REMARK  Name = 
REMARK  5 active torsions:
REMARK  status: ('A' for Active; 'I' for Inactive)
REMARK    1  A    between atoms: N_1  and  C_2
REMARK    2  A    between atoms: C_2  and  C_3
REMARK    3  A    between atoms: C_6  and  C_7
REMARK    4  A    between atoms: C_7  and  N_8
REMARK    5  A    between atoms: C_13  and  C_14
REMARK                            x       y       z     vdW  Elec       q    Type
REMARK                         _______ _______ _______ _____ _____    ______ ____
ROOT
ATOM      1  N   UNL     1       3.769  -4.144   4.144  0.00  0.00    +0.000 N 
ATOM      2  C   UNL     1       3.607  -5.492   4.348  0.00  0.00    +0.000 A 
ATOM      3  C   UNL     1       4.671  -5.943   5.093  0.00  0.00    +0.000 A 
ATOM      4  C   UNL     1       5.470  -4.816   5.422  0.00  0.00    +0.000 A 
ATOM      5  C   UNL     1       6.688  -4.673   6.122  0.00  0.00    +0.000 A 
ATOM      6  C   UNL     1       7.237  -3.396   6.305  0.00  0.00    +0.000 A 
ATOM      7  C   UNL     1       6.531  -2.274   5.840  0.00  0.00    +0.000 A 
ATOM      8  C   UNL     1       5.325  -2.395   5.139  0.00  0.00    +0.000 A 
ATOM      9  C   UNL     1       4.834  -3.690   4.897  0.00  0.00    +0.000 A 
ENDROOT
BRANCH   6  10
ATOM     10  C   UNL     1       8.559  -3.161   6.953  0.00  0.00    +0.000 C 
ATOM     11  N   UNL     1       9.266  -4.236   7.415  0.00  0.00    +0.000 N 
ATOM     12  O   UNL     1       9.028  -2.035   7.067  0.00  0.00    +0.000 OA
ATOM     13  H   UNL     1       8.970  -5.196   7.364  0.00  0.00    +0.000 HD
ATOM     14  H   UNL     1      10.170  -4.041   7.828  0.00  0.00    +0.000 HD
ENDBRANCH   6  10
BRANCH   1  15
ATOM     15  C   UNL     1       2.949  -3.358   3.230  0.00  0.00    +0.000 C 
BRANCH  15  19
ATOM     16  C   UNL     1       2.172  -4.726   0.434  0.00  0.00    +0.000 C 
ATOM     17  C   UNL     1       1.935  -3.315  -0.100  0.00  0.00    +0.000 C 
ATOM     18  C   UNL     1       2.641  -2.381   0.888  0.00  0.00    +0.000 C 
ATOM     19  C   UNL     1       3.525  -3.262   1.794  0.00  0.00    +0.000 C 
ATOM     20  C   UNL     1       3.567  -4.604   1.049  0.00  0.00    +0.000 C 
BRANCH  16  21
ATOM     21  C   UNL     1       2.041  -5.796  -0.648  0.00  0.00    +0.000 C 
BRANCH  21  22
ATOM     22  N   UNL     1       2.267  -7.128  -0.099  0.00  0.00    +0.000 NA
ATOM     23  H   UNL     1       2.140  -7.823  -0.834  0.00  0.00    +0.000 HD
ATOM     24  H   UNL     1       1.564  -7.334   0.610  0.00  0.00    +0.000 HD
ENDBRANCH  21  22
ENDBRANCH  16  21
ENDBRANCH  15  19
ENDBRANCH   1  15
TORSDOF 5
