REMARK  Name = 
REMARK  4 active torsions:
REMARK  status: ('A' for Active; 'I' for Inactive)
REMARK    1  A    between atoms: C_2  and  C_3
REMARK    2  A    between atoms: C_10  and  C_11
REMARK    3  A    between atoms: C_15  and  N_16
REMARK    4  A    between atoms: C_19  and  O_20
REMARK                            x       y       z     vdW  Elec       q    Type
REMARK                         _______ _______ _______ _____ _____    ______ ____
ROOT
ATOM      1  C   UNL     1       0.497   0.038   0.014  0.00  0.00    +0.000 A 
ATOM      2  C   UNL     1      -0.134   1.192  -0.425  0.00  0.00    +0.000 A 
ATOM      3  C   UNL     1      -1.525   1.227  -0.462  0.00  0.00    +0.000 A 
ATOM      4  C   UNL     1      -2.265   0.114  -0.056  0.00  0.00    +0.000 A 
ATOM      5  N   UNL     1      -3.642   0.115  -0.124  0.00  0.00    +0.000 N 
ATOM      6  C   UNL     1      -4.387  -0.655   0.870  0.00  0.00    +0.000 C 
ATOM      7  C   UNL     1      -5.420  -1.573   0.232  0.00  0.00    +0.000 C 
ATOM      8  C   UNL     1      -6.234  -0.918  -0.890  0.00  0.00    +0.000 C 
ATOM      9  C   UNL     1      -5.283  -0.289  -1.916  0.00  0.00    +0.000 C 
ATOM     10  C   UNL     1      -4.294   0.690  -1.296  0.00  0.00    +0.000 C 
ATOM     11  N   UNL     1      -1.646  -0.996   0.400  0.00  0.00    +0.000 NA
ATOM     12  C   UNL     1      -0.295  -1.021   0.416  0.00  0.00    +0.000 A 
ENDROOT
BRANCH   8  13
ATOM     13  C   UNL     1      -7.318   0.059  -0.445  0.00  0.00    +0.000 A 
ATOM     14  C   UNL     1      -7.047   1.197   0.322  0.00  0.00    +0.000 A 
ATOM     15  C   UNL     1      -8.030   2.135   0.599  0.00  0.00    +0.000 A 
ATOM     16  C   UNL     1      -9.312   1.955   0.099  0.00  0.00    +0.000 A 
ATOM     17  C   UNL     1      -9.647   0.837  -0.674  0.00  0.00    +0.000 A 
ATOM     18  C   UNL     1      -8.637  -0.116  -0.907  0.00  0.00    +0.000 A 
BRANCH  17  19
ATOM     19  N   UNL     1     -10.909   0.703  -1.223  0.00  0.00    +0.000 N 
ATOM     20  C   UNL     1     -11.671   1.875  -1.656  0.00  0.00    +0.000 C 
ATOM     21  C   UNL     1     -12.957   1.992  -0.847  0.00  0.00    +0.000 C 
ATOM     22  C   UNL     1     -13.739   0.681  -0.847  0.00  0.00    +0.000 C 
ATOM     23  C   UNL     1     -12.869  -0.505  -0.428  0.00  0.00    +0.000 C 
ATOM     24  C   UNL     1     -11.584  -0.591  -1.248  0.00  0.00    +0.000 C 
BRANCH  22  25
ATOM     25  O   UNL     1     -14.325   0.446  -2.127  0.00  0.00    +0.000 OA
ATOM     26  H   UNL     1     -13.615   0.342  -2.783  0.00  0.00    +0.000 HD
ENDBRANCH  22  25
ENDBRANCH  17  19
ENDBRANCH   8  13
BRANCH   1  28
ATOM     27  N   UNL     1       3.076  -0.143   0.082  0.00  0.00    +0.000 NA
ATOM     28  C   UNL     1       1.915  -0.067   0.054  0.00  0.00    +0.000 C 
ENDBRANCH   1  28
TORSDOF 4
