REMARK  Name = 
REMARK  6 active torsions:
REMARK  status: ('A' for Active; 'I' for Inactive)
REMARK    1  A    between atoms: C_2  and  O_3
REMARK    2  A    between atoms: C_2  and  C_4
REMARK    3  A    between atoms: N_8  and  C_9
REMARK    4  A    between atoms: C_9  and  C_10
REMARK    5  A    between atoms: C_10  and  O_11
REMARK    6  A    between atoms: C_10  and  C_12
REMARK                            x       y       z     vdW  Elec       q    Type
REMARK                         _______ _______ _______ _____ _____    ______ ____
ROOT
ATOM      1  C   UNL     1       7.300  -1.033   2.514  0.00  0.00    +0.000 A 
ATOM      2  C   UNL     1       8.153  -0.191   3.177  0.00  0.00    +0.000 A 
ATOM      3  N   UNL     1       7.900   0.299   4.413  0.00  0.00    +0.000 NA
ATOM      4  C   UNL     1       6.788  -0.143   5.031  0.00  0.00    +0.000 A 
ATOM      5  N   UNL     1       6.451   0.352   6.278  0.00  0.00    +0.000 N 
ATOM      6  N   UNL     1       5.944  -1.033   4.493  0.00  0.00    +0.000 NA
ATOM      7  C   UNL     1       6.203  -1.442   3.232  0.00  0.00    +0.000 A 
ATOM      8  H   UNL     1       6.385  -0.431   6.917  0.00  0.00    +0.000 HD
ENDROOT
BRANCH   1  10
ATOM      9  O   UNL     1       8.773  -1.669   0.800  0.00  0.00    +0.000 OA
ATOM     10  C   UNL     1       7.622  -1.493   1.163  0.00  0.00    +0.000 C 
BRANCH  10  11
ATOM     11  O   UNL     1       6.556  -1.663   0.361  0.00  0.00    +0.000 OA
ATOM     12  H   UNL     1       5.708  -1.288   0.668  0.00  0.00    +0.000 HD
ENDBRANCH  10  11
ENDBRANCH   1  10
BRANCH   5  13
ATOM     13  C   UNL     1       7.186   1.518   6.752  0.00  0.00    +0.000 C 
BRANCH  13  14
ATOM     14  C   UNL     1       6.681   2.818   6.056  0.00  0.00    +0.000 C 
BRANCH  14  15
ATOM     15  C   UNL     1       7.336   4.061   6.611  0.00  0.00    +0.000 A 
ATOM     16  C   UNL     1       8.717   4.270   6.465  0.00  0.00    +0.000 A 
ATOM     17  C   UNL     1       9.316   5.431   6.945  0.00  0.00    +0.000 A 
ATOM     18  C   UNL     1       8.537   6.403   7.578  0.00  0.00    +0.000 A 
ATOM     19  C   UNL     1       7.164   6.204   7.714  0.00  0.00    +0.000 A 
ATOM     20 CL   UNL     1       6.201   7.414   8.473  0.00  0.00    +0.000 Cl
ATOM     21  C   UNL     1       6.561   5.044   7.238  0.00  0.00    +0.000 A 
ENDBRANCH  14  15
BRANCH  14  22
ATOM     22  O   UNL     1       6.916   2.864   4.645  0.00  0.00    +0.000 OA
ATOM     23  H   UNL     1       7.610   2.204   4.457  0.00  0.00    +0.000 HD
ENDBRANCH  14  22
ENDBRANCH  13  14
ENDBRANCH   5  13
TORSDOF 6
