REMARK  Name = 
REMARK  7 active torsions:
REMARK  status: ('A' for Active; 'I' for Inactive)
REMARK    1  A    between atoms: C_1  and  C_2
REMARK    2  A    between atoms: C_2  and  N_3
REMARK    3  A    between atoms: C_2  and  C_16
REMARK    4  A    between atoms: C_4  and  C_6
REMARK    5  A    between atoms: C_19  and  O_20
REMARK    6  A    between atoms: O_20  and  C_21
REMARK    7  A    between atoms: C_21  and  C_22
REMARK                            x       y       z     vdW  Elec       q    Type
REMARK                         _______ _______ _______ _____ _____    ______ ____
ROOT
ATOM      1  C   UNL     1       1.849  -0.681   0.993  0.00  0.00    +0.000 C 
ATOM      2  C   UNL     1       2.517   0.158  -0.106  0.00  0.00    +0.000 C 
ENDROOT
BRANCH   2   3
ATOM      3  C   UNL     1       3.131   1.435   0.439  0.00  0.00    +0.000 A 
ATOM      4  C   UNL     1       3.033   2.621  -0.306  0.00  0.00    +0.000 A 
ATOM      5  C   UNL     1       3.378   3.848   0.265  0.00  0.00    +0.000 A 
ATOM      6  C   UNL     1       3.831   3.901   1.581  0.00  0.00    +0.000 A 
ATOM      7  C   UNL     1       4.094   2.714   2.264  0.00  0.00    +0.000 A 
ATOM      8  C   UNL     1       3.744   1.489   1.697  0.00  0.00    +0.000 A 
BRANCH   6   9
ATOM      9  O   UNL     1       3.959   5.151   2.129  0.00  0.00    +0.000 OA
BRANCH   9  10
ATOM     10  C   UNL     1       3.790   5.180   3.554  0.00  0.00    +0.000 C 
BRANCH  10  11
ATOM     11  C   UNL     1       3.304   6.531   4.021  0.00  0.00    +0.000 A 
ATOM     12  C   UNL     1       2.085   7.033   3.566  0.00  0.00    +0.000 A 
ATOM     13  C   UNL     1       1.625   8.244   4.075  0.00  0.00    +0.000 A 
ATOM     14  C   UNL     1       2.388   8.917   5.022  0.00  0.00    +0.000 A 
ATOM     15  C   UNL     1       3.582   8.347   5.426  0.00  0.00    +0.000 A 
ATOM     16  N   UNL     1       4.052   7.172   4.955  0.00  0.00    +0.000 NA
ENDBRANCH  10  11
ENDBRANCH   9  10
ENDBRANCH   6   9
ENDBRANCH   2   3
BRANCH   2  17
ATOM     17  N   UNL     1       3.493  -0.614  -0.843  0.00  0.00    +0.000 N 
ATOM     18  C   UNL     1       3.127  -1.490  -1.831  0.00  0.00    +0.000 C 
ATOM     19  O   UNL     1       1.952  -1.622  -2.168  0.00  0.00    +0.000 OA
ATOM     20  H   UNL     1       4.462  -0.539  -0.547  0.00  0.00    +0.000 HD
BRANCH  18  21
ATOM     21  C   UNL     1       4.189  -2.274  -2.487  0.00  0.00    +0.000 A 
ATOM     22  C   UNL     1       3.856  -3.114  -3.543  0.00  0.00    +0.000 A 
ATOM     23  S   UNL     1       5.178  -3.972  -4.187  0.00  0.00    +0.000 S 
ATOM     24  C   UNL     1       6.247  -3.266  -3.070  0.00  0.00    +0.000 A 
ATOM     25  N   UNL     1       7.564  -3.605  -3.064  0.00  0.00    +0.000 NA
ATOM     26  C   UNL     1       8.265  -3.006  -2.160  0.00  0.00    +0.000 A 
ATOM     27  N   UNL     1       7.769  -2.091  -1.270  0.00  0.00    +0.000 N 
ATOM     28  C   UNL     1       6.448  -1.711  -1.244  0.00  0.00    +0.000 A 
ATOM     29  O   UNL     1       6.048  -0.881  -0.434  0.00  0.00    +0.000 OA
ATOM     30  C   UNL     1       5.609  -2.369  -2.229  0.00  0.00    +0.000 A 
ATOM     31  H   UNL     1       8.372  -1.649  -0.592  0.00  0.00    +0.000 HD
ENDBRANCH  18  21
ENDBRANCH   2  17
TORSDOF 6
