REMARK  Name = 
REMARK  8 active torsions:
REMARK  status: ('A' for Active; 'I' for Inactive)
REMARK    1  A    between atoms: C_1  and  O_2
REMARK    2  A    between atoms: O_2  and  C_3
REMARK    3  A    between atoms: C_10  and  C_11
REMARK    4  A    between atoms: N_13  and  C_14
REMARK    5  A    between atoms: C_14  and  C_15
REMARK    6  A    between atoms: C_18  and  N_19
REMARK    7  A    between atoms: N_19  and  C_20
REMARK    8  A    between atoms: C_20  and  C_21
REMARK                            x       y       z     vdW  Elec       q    Type
REMARK                         _______ _______ _______ _____ _____    ______ ____
ROOT
ATOM      1  C   UNL     1       2.740   2.980  -1.597  0.00  0.00    +0.000 C 
ENDROOT
BRANCH   1   2
ATOM      2  C   UNL     1       1.512   2.341  -2.193  0.00  0.00    +0.000 A 
ATOM      3  C   UNL     1       1.483   0.974  -2.490  0.00  0.00    +0.000 A 
ATOM      4  C   UNL     1       0.304   0.364  -2.941  0.00  0.00    +0.000 A 
ATOM      5  C   UNL     1      -0.872   1.104  -3.097  0.00  0.00    +0.000 A 
ATOM      6  C   UNL     1      -0.799   2.491  -2.927  0.00  0.00    +0.000 A 
ATOM      7  C   UNL     1       0.371   3.105  -2.467  0.00  0.00    +0.000 A 
BRANCH   5   8
ATOM      8  N   UNL     1      -2.106   0.551  -3.451  0.00  0.00    +0.000 N 
ATOM      9  H   UNL     1      -2.334   0.739  -4.424  0.00  0.00    +0.000 HD
BRANCH   8  10
ATOM     10  C   UNL     1      -2.388  -0.827  -3.066  0.00  0.00    +0.000 C 
BRANCH  10  11
ATOM     11  C   UNL     1      -3.869  -1.000  -2.819  0.00  0.00    +0.000 A 
ATOM     12  C   UNL     1      -4.613  -1.970  -3.495  0.00  0.00    +0.000 A 
ATOM     13  C   UNL     1      -5.952  -2.128  -3.168  0.00  0.00    +0.000 A 
ATOM     14  N   UNL     1      -6.592  -1.400  -2.229  0.00  0.00    +0.000 NA
ATOM     15  C   UNL     1      -5.860  -0.464  -1.589  0.00  0.00    +0.000 A 
ATOM     16  C   UNL     1      -4.517  -0.231  -1.845  0.00  0.00    +0.000 A 
ENDBRANCH  10  11
ENDBRANCH   8  10
ENDBRANCH   5   8
ENDBRANCH   1   2
BRANCH   1  19
ATOM     17  C   UNL     1       4.812   4.093  -2.310  0.00  0.00    +0.000 C 
ATOM     18  O   UNL     1       5.186   4.216  -1.145  0.00  0.00    +0.000 OA
ATOM     19  N   UNL     1       3.619   3.493  -2.612  0.00  0.00    +0.000 N 
ATOM     20  H   UNL     1       3.303   3.440  -3.571  0.00  0.00    +0.000 HD
BRANCH  17  28
ATOM     21  C   UNL     1       4.442   3.957  -5.728  0.00  0.00    +0.000 A 
ATOM     22  N   UNL     1       4.534   4.067  -7.067  0.00  0.00    +0.000 NA
ATOM     23  C   UNL     1       5.591   4.707  -7.572  0.00  0.00    +0.000 A 
ATOM     24  N   UNL     1       6.593   5.261  -6.894  0.00  0.00    +0.000 NA
ATOM     25  C   UNL     1       6.457   5.137  -5.562  0.00  0.00    +0.000 A 
ATOM     26  S   UNL     1       7.647   5.780  -4.536  0.00  0.00    +0.000 S 
ATOM     27  C   UNL     1       6.808   5.255  -3.154  0.00  0.00    +0.000 A 
ATOM     28  C   UNL     1       5.619   4.591  -3.435  0.00  0.00    +0.000 A 
ATOM     29  C   UNL     1       5.416   4.514  -4.881  0.00  0.00    +0.000 A 
BRANCH  21  31
ATOM     30  C   UNL     1       2.746   2.386  -6.107  0.00  0.00    +0.000 C 
ATOM     31  O   UNL     1       3.341   3.314  -5.204  0.00  0.00    +0.000 OA
ENDBRANCH  21  31
ENDBRANCH  17  28
ENDBRANCH   1  19
TORSDOF 7
