REMARK  Name = 
REMARK  8 active torsions:
REMARK  status: ('A' for Active; 'I' for Inactive)
REMARK    1  A    between atoms: C_2  and  C_21
REMARK    2  A    between atoms: N_3  and  C_4
REMARK    3  A    between atoms: C_4  and  C_5
REMARK    4  A    between atoms: C_8  and  C_9
REMARK    5  A    between atoms: C_9  and  C_10
REMARK    6  A    between atoms: C_10  and  O_11
REMARK    7  A    between atoms: C_10  and  C_12
REMARK    8  A    between atoms: C_12  and  C_13
REMARK                            x       y       z     vdW  Elec       q    Type
REMARK                         _______ _______ _______ _____ _____    ______ ____
ROOT
ATOM      1  C   UNL     1       3.194   2.271   2.850  0.00  0.00    +0.000 A 
ATOM      2  C   UNL     1       3.154   3.670   2.803  0.00  0.00    +0.000 A 
ATOM      3  C   UNL     1       3.946   4.435   3.663  0.00  0.00    +0.000 A 
ATOM      4  C   UNL     1       4.796   3.821   4.590  0.00  0.00    +0.000 A 
ATOM      5  C   UNL     1       4.888   2.421   4.589  0.00  0.00    +0.000 A 
ATOM      6  C   UNL     1       4.097   1.655   3.725  0.00  0.00    +0.000 A 
ENDROOT
BRANCH   1   7
ATOM      7  C   UNL     1       2.271   1.454   1.984  0.00  0.00    +0.000 C 
BRANCH   7  10
ATOM      8  O   UNL     1       1.090  -0.137   0.060  0.00  0.00    +0.000 OA
ATOM      9  C   UNL     1       2.149   0.422  -0.222  0.00  0.00    +0.000 C 
ATOM     10  N   UNL     1       2.843   1.171   0.695  0.00  0.00    +0.000 N 
ATOM     11  H   UNL     1       3.583   1.789   0.375  0.00  0.00    +0.000 HD
BRANCH   9  12
ATOM     12  C   UNL     1       2.749   0.286  -1.552  0.00  0.00    +0.000 A 
ATOM     13  C   UNL     1       2.453  -0.823  -2.334  0.00  0.00    +0.000 A 
ATOM     14  S   UNL     1       3.234  -0.816  -3.850  0.00  0.00    +0.000 S 
ATOM     15  C   UNL     1       3.957   0.692  -3.532  0.00  0.00    +0.000 A 
ATOM     16  N   UNL     1       4.739   1.302  -4.462  0.00  0.00    +0.000 NA
ATOM     17  C   UNL     1       5.190   2.458  -4.102  0.00  0.00    +0.000 A 
ATOM     18  N   UNL     1       4.939   3.052  -2.892  0.00  0.00    +0.000 N 
ATOM     19  C   UNL     1       4.194   2.453  -1.906  0.00  0.00    +0.000 A 
ATOM     20  O   UNL     1       4.045   2.981  -0.809  0.00  0.00    +0.000 OA
ATOM     21  C   UNL     1       3.633   1.166  -2.274  0.00  0.00    +0.000 A 
ATOM     22  H   UNL     1       5.340   3.950  -2.664  0.00  0.00    +0.000 HD
ENDBRANCH   9  12
ENDBRANCH   7  10
ENDBRANCH   1   7
BRANCH   4  23
ATOM     23  C   UNL     1       5.583   4.651   5.586  0.00  0.00    +0.000 C 
BRANCH  23  24
ATOM     24  C   UNL     1       4.682   5.450   6.560  0.00  0.00    +0.000 C 
BRANCH  24  25
ATOM     25  O   UNL     1       3.893   4.533   7.336  0.00  0.00    +0.000 OA
ATOM     26  H   UNL     1       4.480   3.858   7.706  0.00  0.00    +0.000 HD
ENDBRANCH  24  25
BRANCH  24  27
ATOM     27  C   UNL     1       5.524   6.317   7.511  0.00  0.00    +0.000 C 
BRANCH  27  28
ATOM     28  C   UNL     1       4.667   7.184   8.404  0.00  0.00    +0.000 A 
ATOM     29  C   UNL     1       4.218   6.701   9.636  0.00  0.00    +0.000 A 
ATOM     30  C   UNL     1       3.407   7.509  10.426  0.00  0.00    +0.000 A 
ATOM     31  C   UNL     1       3.058   8.774   9.970  0.00  0.00    +0.000 A 
ATOM     32  C   UNL     1       3.544   9.177   8.736  0.00  0.00    +0.000 A 
ATOM     33  N   UNL     1       4.340   8.419   7.950  0.00  0.00    +0.000 NA
ENDBRANCH  27  28
ENDBRANCH  24  27
ENDBRANCH  23  24
ENDBRANCH   4  23
TORSDOF 8
