REMARK  Name = 
REMARK  9 active torsions:
REMARK  status: ('A' for Active; 'I' for Inactive)
REMARK    1  A    between atoms: C_1  and  C_2
REMARK    2  A    between atoms: C_2  and  O_3
REMARK    3  A    between atoms: C_5  and  O_6
REMARK    4  A    between atoms: O_6  and  C_7
REMARK    5  A    between atoms: C_11  and  C_12
REMARK    6  A    between atoms: C_12  and  C_13
REMARK    7  A    between atoms: C_13  and  N_14
REMARK    8  A    between atoms: N_14  and  C_15
REMARK    9  A    between atoms: C_20  and  C_21
REMARK                            x       y       z     vdW  Elec       q    Type
REMARK                         _______ _______ _______ _____ _____    ______ ____
ROOT
ATOM      1  C   UNL     1       6.447  -1.018   0.611  0.00  0.00    +0.000 A 
ATOM      2  C   UNL     1       6.148  -2.376   0.573  0.00  0.00    +0.000 A 
ATOM      3  C   UNL     1       7.171  -3.316   0.724  0.00  0.00    +0.000 A 
ATOM      4  C   UNL     1       8.503  -2.898   0.859  0.00  0.00    +0.000 A 
ATOM      5  C   UNL     1       8.823  -1.535   0.828  0.00  0.00    +0.000 A 
ATOM      6  C   UNL     1       7.769  -0.614   0.739  0.00  0.00    +0.000 A 
ENDROOT
BRANCH   1   7
ATOM      7  O   UNL     1       5.425  -0.114   0.467  0.00  0.00    +0.000 OA
BRANCH   7  11
ATOM      8  C   UNL     1       3.648   2.527   3.643  0.00  0.00    +0.000 C 
ATOM      9  C   UNL     1       4.103   1.507   2.614  0.00  0.00    +0.000 C 
ATOM     10  C   UNL     1       5.628   1.249   2.633  0.00  0.00    +0.000 C 
ATOM     11  C   UNL     1       5.583   1.196   1.084  0.00  0.00    +0.000 C 
ATOM     12  C   UNL     1       4.283   2.029   1.164  0.00  0.00    +0.000 C 
BRANCH   9  13
ATOM     13  O   UNL     1       3.269   0.332   2.724  0.00  0.00    +0.000 OA
ATOM     14  H   UNL     1       3.471  -0.047   3.596  0.00  0.00    +0.000 HD
ENDBRANCH   9  13
ENDBRANCH   7  11
ENDBRANCH   1   7
BRANCH   5  15
ATOM     15  C   UNL     1      10.271  -1.064   0.815  0.00  0.00    +0.000 C 
BRANCH  15  16
ATOM     16  C   UNL     1      10.414   0.468   0.775  0.00  0.00    +0.000 C 
BRANCH  16  17
ATOM     17  N   UNL     1      11.803   0.941   0.693  0.00  0.00    +0.000 N 
ATOM     18  H   UNL     1      12.257   0.601  -0.150  0.00  0.00    +0.000 HD
BRANCH  17  19
ATOM     19  C   UNL     1      11.860   2.361   0.683  0.00  0.00    +0.000 A 
ATOM     20  N   UNL     1      10.682   3.032   0.737  0.00  0.00    +0.000 NA
ATOM     21  C   UNL     1      10.686   4.377   0.714  0.00  0.00    +0.000 A 
ATOM     22  C   UNL     1      11.837   5.130   0.674  0.00  0.00    +0.000 A 
ATOM     23  C   UNL     1      13.053   4.458   0.633  0.00  0.00    +0.000 A 
ATOM     24  C   UNL     1      13.075   3.054   0.627  0.00  0.00    +0.000 A 
BRANCH  24  25
ATOM     25  C   UNL     1      14.352   2.400   0.553  0.00  0.00    +0.000 C 
ATOM     26  N   UNL     1      15.411   1.944   0.457  0.00  0.00    +0.000 NA
ENDBRANCH  24  25
ENDBRANCH  17  19
ENDBRANCH  16  17
ENDBRANCH  15  16
ENDBRANCH   5  15
TORSDOF 8
