REMARK  Name = 
REMARK  5 active torsions:
REMARK  status: ('A' for Active; 'I' for Inactive)
REMARK    1  A    between atoms: N_1  and  C_2
REMARK    2  A    between atoms: C_2  and  C_3
REMARK    3  A    between atoms: C_3  and  C_4
REMARK    4  A    between atoms: C_7  and  C_8
REMARK    5  A    between atoms: C_8  and  N_9
REMARK                            x       y       z     vdW  Elec       q    Type
REMARK                         _______ _______ _______ _____ _____    ______ ____
ROOT
ATOM      1  C   UNL     1       4.600  -1.325  -0.525  0.00  0.00    +0.000 A 
ATOM      2  C   UNL     1       5.338  -2.391  -1.043  0.00  0.00    +0.000 A 
ATOM      3  C   UNL     1       6.735  -2.333  -1.084  0.00  0.00    +0.000 A 
ATOM      4  C   UNL     1       7.420  -1.217  -0.594  0.00  0.00    +0.000 A 
ATOM      5  C   UNL     1       6.681  -0.157  -0.054  0.00  0.00    +0.000 A 
ATOM      6  C   UNL     1       5.279  -0.220  -0.012  0.00  0.00    +0.000 A 
ENDROOT
BRANCH   1   7
ATOM      7  C   UNL     1       3.085  -1.357  -0.535  0.00  0.00    +0.000 C 
BRANCH   7   8
ATOM      8  C   UNL     1       2.473  -1.979   0.723  0.00  0.00    +0.000 C 
BRANCH   8   9
ATOM      9  N   UNL     1       1.011  -1.951   0.653  0.00  0.00    +0.000 NA
ATOM     10  H   UNL     1       0.624  -2.377   1.492  0.00  0.00    +0.000 HD
ATOM     11  H   UNL     1       0.693  -2.523  -0.130  0.00  0.00    +0.000 HD
ENDBRANCH   8   9
ENDBRANCH   7   8
ENDBRANCH   1   7
BRANCH   4  12
ATOM     12  C   UNL     1       8.930  -1.174  -0.593  0.00  0.00    +0.000 C 
BRANCH  12  13
ATOM     13  N   UNL     1       9.547  -0.556  -1.761  0.00  0.00    +0.000 N 
ATOM     14  C   UNL     1       9.283  -0.882  -3.064  0.00  0.00    +0.000 A 
ATOM     15  N   UNL     1      10.308  -0.634  -3.846  0.00  0.00    +0.000 NA
ATOM     16  C   UNL     1      11.258  -0.074  -3.032  0.00  0.00    +0.000 A 
ATOM     17  C   UNL     1      12.583   0.289  -3.322  0.00  0.00    +0.000 A 
ATOM     18  C   UNL     1      13.368   0.852  -2.308  0.00  0.00    +0.000 A 
ATOM     19  C   UNL     1      12.825   1.089  -1.045  0.00  0.00    +0.000 A 
ATOM     20 CL   UNL     1      13.805   1.820   0.170  0.00  0.00    +0.000 Cl
ATOM     21  C   UNL     1      11.513   0.720  -0.727  0.00  0.00    +0.000 A 
ATOM     22  C   UNL     1      10.767   0.096  -1.739  0.00  0.00    +0.000 A 
ENDBRANCH  12  13
ENDBRANCH   4  12
TORSDOF 5
