REMARK  Name = 
REMARK  3 active torsions:
REMARK  status: ('A' for Active; 'I' for Inactive)
REMARK    1  A    between atoms: C_2  and  C_4
REMARK    2  A    between atoms: N_8  and  C_9
REMARK    3  A    between atoms: C_9  and  C_10
REMARK                            x       y       z     vdW  Elec       q    Type
REMARK                         _______ _______ _______ _____ _____    ______ ____
ROOT
ATOM      1  C   UNL     1       3.293  -0.248  -1.212  0.00  0.00    +0.000 A 
ATOM      2  C   UNL     1       2.648   0.055  -2.406  0.00  0.00    +0.000 A 
ATOM      3  C   UNL     1       3.311  -0.173  -3.611  0.00  0.00    +0.000 A 
ATOM      4  C   UNL     1       4.609  -0.674  -3.603  0.00  0.00    +0.000 A 
ATOM      5  N   UNL     1       5.295  -1.012  -4.747  0.00  0.00    +0.000 N 
ATOM      6  N   UNL     1       5.251  -0.947  -2.451  0.00  0.00    +0.000 NA
ATOM      7  C   UNL     1       4.592  -0.725  -1.284  0.00  0.00    +0.000 A 
ATOM      8  H   UNL     1       6.241  -1.289  -4.500  0.00  0.00    +0.000 HD
ENDROOT
BRANCH   1  10
ATOM      9  N   UNL     1       1.290  -0.167   0.154  0.00  0.00    +0.000 N 
ATOM     10  C   UNL     1       2.654  -0.083   0.108  0.00  0.00    +0.000 C 
ATOM     11  O   UNL     1       3.316   0.085   1.123  0.00  0.00    +0.000 OA
ATOM     12  H   UNL     1       0.871  -0.167   1.076  0.00  0.00    +0.000 HD
ATOM     13  H   UNL     1       0.744  -0.559  -0.601  0.00  0.00    +0.000 HD
ENDBRANCH   1  10
BRANCH   5  14
ATOM     14  C   UNL     1       5.160  -0.259  -5.977  0.00  0.00    +0.000 C 
BRANCH  14  15
ATOM     15  C   UNL     1       4.691  -1.141  -7.105  0.00  0.00    +0.000 A 
ATOM     16  C   UNL     1       5.031  -0.846  -8.430  0.00  0.00    +0.000 A 
ATOM     17  C   UNL     1       4.548  -1.643  -9.465  0.00  0.00    +0.000 A 
ATOM     18  C   UNL     1       3.724  -2.708  -9.146  0.00  0.00    +0.000 A 
ATOM     19  N   UNL     1       3.358  -3.017  -7.886  0.00  0.00    +0.000 NA
ATOM     20  C   UNL     1       3.850  -2.232  -6.900  0.00  0.00    +0.000 A 
ENDBRANCH  14  15
ENDBRANCH   5  14
TORSDOF 3
