REMARK  Name = 
REMARK  4 active torsions:
REMARK  status: ('A' for Active; 'I' for Inactive)
REMARK    1  A    between atoms: C_1  and  C_2
REMARK    2  A    between atoms: C_4  and  C_5
REMARK    3  A    between atoms: C_10  and  C_11
REMARK    4  A    between atoms: C_11  and  C_12
REMARK                            x       y       z     vdW  Elec       q    Type
REMARK                         _______ _______ _______ _____ _____    ______ ____
ROOT
ATOM      1  C   UNL     1       0.958   0.067   0.040  0.00  0.00    +0.000 C 
ATOM      2  C   UNL     1       2.465   0.082   0.045  0.00  0.00    +0.000 A 
ATOM      3  C   UNL     1       3.159  -1.078   0.051  0.00  0.00    +0.000 A 
ATOM      4  C   UNL     1       4.620  -1.136   0.067  0.00  0.00    +0.000 A 
ATOM      5  C   UNL     1       5.301   0.027   0.068  0.00  0.00    +0.000 A 
ATOM      6  N   UNL     1       4.603   1.235   0.054  0.00  0.00    +0.000 N 
ATOM      7  C   UNL     1       5.061   2.543   0.045  0.00  0.00    +0.000 A 
ATOM      8  C   UNL     1       3.919   3.319   0.014  0.00  0.00    +0.000 A 
ATOM      9  N   UNL     1       2.790   2.553   0.028  0.00  0.00    +0.000 NA
ATOM     10  C   UNL     1       3.211   1.308   0.042  0.00  0.00    +0.000 A 
ENDROOT
BRANCH   4  11
ATOM     11  C   UNL     1       5.289  -2.480   0.038  0.00  0.00    +0.000 C 
ATOM     12  N   UNL     1       6.589  -2.544   0.437  0.00  0.00    +0.000 N 
ATOM     13  O   UNL     1       4.696  -3.498  -0.291  0.00  0.00    +0.000 OA
ATOM     14  H   UNL     1       7.100  -1.783   0.849  0.00  0.00    +0.000 HD
ATOM     15  H   UNL     1       6.995  -3.470   0.485  0.00  0.00    +0.000 HD
ENDBRANCH   4  11
BRANCH   7  16
ATOM     16  C   UNL     1       6.492   2.966   0.050  0.00  0.00    +0.000 C 
BRANCH  16  17
ATOM     17  C   UNL     1       7.045   3.123  -1.347  0.00  0.00    +0.000 A 
ATOM     18  C   UNL     1       6.979   4.360  -2.007  0.00  0.00    +0.000 A 
ATOM     19  C   UNL     1       7.422   4.484  -3.324  0.00  0.00    +0.000 A 
ATOM     20  C   UNL     1       7.882   3.364  -4.014  0.00  0.00    +0.000 A 
ATOM     21  C   UNL     1       7.942   2.130  -3.373  0.00  0.00    +0.000 A 
ATOM     22  C   UNL     1       7.564   2.019  -2.036  0.00  0.00    +0.000 A 
ENDBRANCH  16  17
ENDBRANCH   7  16
TORSDOF 3
