REMARK  Name = 
REMARK  3 active torsions:
REMARK  status: ('A' for Active; 'I' for Inactive)
REMARK    1  A    between atoms: C_2  and  C_4
REMARK    2  A    between atoms: N_8  and  C_9
REMARK    3  A    between atoms: C_9  and  C_10
REMARK                            x       y       z     vdW  Elec       q    Type
REMARK                         _______ _______ _______ _____ _____    ______ ____
ROOT
ATOM      1  C   UNL     1       3.823   1.539   3.218  0.00  0.00    +0.000 A 
ATOM      2  C   UNL     1       3.071   0.533   3.817  0.00  0.00    +0.000 A 
ATOM      3  C   UNL     1       3.668  -0.703   4.081  0.00  0.00    +0.000 A 
ATOM      4  C   UNL     1       4.997  -0.916   3.733  0.00  0.00    +0.000 A 
ATOM      5  N   UNL     1       5.636  -2.152   3.864  0.00  0.00    +0.000 N 
ATOM      6  N   UNL     1       5.736   0.053   3.152  0.00  0.00    +0.000 NA
ATOM      7  C   UNL     1       5.141   1.250   2.903  0.00  0.00    +0.000 A 
ATOM      8  H   UNL     1       6.606  -1.991   3.597  0.00  0.00    +0.000 HD
ENDROOT
BRANCH   1  10
ATOM      9  N   UNL     1       2.174   3.293   3.558  0.00  0.00    +0.000 N 
ATOM     10  C   UNL     1       3.271   2.862   2.866  0.00  0.00    +0.000 C 
ATOM     11  O   UNL     1       3.785   3.561   2.001  0.00  0.00    +0.000 OA
ATOM     12  H   UNL     1       1.857   4.236   3.361  0.00  0.00    +0.000 HD
ATOM     13  H   UNL     1       1.866   2.870   4.421  0.00  0.00    +0.000 HD
ENDBRANCH   1  10
BRANCH   5  14
ATOM     14  C   UNL     1       5.406  -3.102   4.964  0.00  0.00    +0.000 C 
ATOM     15  C   UNL     1       5.315  -4.566   4.546  0.00  0.00    +0.000 C 
ATOM     16  C   UNL     1       4.114  -3.883   5.106  0.00  0.00    +0.000 C 
BRANCH  14  17
ATOM     17  C   UNL     1       6.207  -2.779   6.225  0.00  0.00    +0.000 A 
ATOM     18  C   UNL     1       7.503  -3.301   6.424  0.00  0.00    +0.000 A 
ATOM     19  C   UNL     1       8.255  -2.990   7.562  0.00  0.00    +0.000 A 
ATOM     20  C   UNL     1       7.722  -2.135   8.518  0.00  0.00    +0.000 A 
ATOM     21  F   UNL     1       8.445  -1.828   9.603  0.00  0.00    +0.000 F 
ATOM     22  C   UNL     1       6.451  -1.605   8.345  0.00  0.00    +0.000 A 
ATOM     23  F   UNL     1       5.936  -0.780   9.268  0.00  0.00    +0.000 F 
ATOM     24  C   UNL     1       5.699  -1.920   7.216  0.00  0.00    +0.000 A 
ENDBRANCH  14  17
ENDBRANCH   5  14
TORSDOF 3
