REMARK  Name = 
REMARK  6 active torsions:
REMARK  status: ('A' for Active; 'I' for Inactive)
REMARK    1  A    between atoms: C_2  and  C_25
REMARK    2  A    between atoms: N_3  and  C_4
REMARK    3  A    between atoms: C_4  and  C_5
REMARK    4  A    between atoms: C_8  and  C_9
REMARK    5  A    between atoms: C_9  and  N_10
REMARK    6  A    between atoms: C_11  and  C_13
REMARK                            x       y       z     vdW  Elec       q    Type
REMARK                         _______ _______ _______ _____ _____    ______ ____
ROOT
ATOM      1  C   UNL     1       3.210   3.676  -0.624  0.00  0.00    +0.000 A 
ATOM      2  C   UNL     1       2.700   4.970  -0.549  0.00  0.00    +0.000 A 
ATOM      3  C   UNL     1       3.555   6.051  -0.769  0.00  0.00    +0.000 A 
ATOM      4  C   UNL     1       4.907   5.827  -1.037  0.00  0.00    +0.000 A 
ATOM      5  C   UNL     1       5.326   4.504  -1.097  0.00  0.00    +0.000 A 
ATOM      6  N   UNL     1       4.519   3.435  -0.887  0.00  0.00    +0.000 NA
ENDROOT
BRANCH   1   7
ATOM      7  C   UNL     1       2.303   2.482  -0.446  0.00  0.00    +0.000 C 
BRANCH   7  10
ATOM      8  O   UNL     1       0.623   0.463   0.335  0.00  0.00    +0.000 OA
ATOM      9  C   UNL     1       1.286   1.015   1.217  0.00  0.00    +0.000 C 
ATOM     10  N   UNL     1       2.125   2.072   0.930  0.00  0.00    +0.000 N 
ATOM     11  H   UNL     1       2.785   2.368   1.641  0.00  0.00    +0.000 HD
BRANCH   9  12
ATOM     12  C   UNL     1       1.228   0.607   2.605  0.00  0.00    +0.000 A 
ATOM     13  C   UNL     1       0.552  -0.443   3.200  0.00  0.00    +0.000 A 
ATOM     14  C   UNL     1       0.790  -0.350   4.590  0.00  0.00    +0.000 A 
ATOM     15  C   UNL     1       1.605   0.744   4.763  0.00  0.00    +0.000 A 
ATOM     16  O   UNL     1       1.887   1.327   3.568  0.00  0.00    +0.000 OA
ENDBRANCH   9  12
ENDBRANCH   7  10
ENDBRANCH   1   7
BRANCH   4  17
ATOM     17  C   UNL     1       5.865   6.959  -1.267  0.00  0.00    +0.000 C 
BRANCH  17  18
ATOM     18  N   UNL     1       5.943   7.329  -2.658  0.00  0.00    +0.000 N 
ATOM     19  C   UNL     1       6.855   8.263  -3.089  0.00  0.00    +0.000 C 
ATOM     20  O   UNL     1       7.664   8.780  -2.322  0.00  0.00    +0.000 OA
ATOM     21  H   UNL     1       5.145   7.112  -3.246  0.00  0.00    +0.000 HD
BRANCH  19  22
ATOM     22  C   UNL     1       6.859   8.568  -4.525  0.00  0.00    +0.000 A 
ATOM     23  C   UNL     1       8.007   9.077  -5.119  0.00  0.00    +0.000 A 
ATOM     24  S   UNL     1       7.852   9.332  -6.798  0.00  0.00    +0.000 S 
ATOM     25  C   UNL     1       6.229   8.824  -6.781  0.00  0.00    +0.000 A 
ATOM     26  N   UNL     1       5.481   8.831  -7.918  0.00  0.00    +0.000 NA
ATOM     27  C   UNL     1       4.257   8.456  -7.752  0.00  0.00    +0.000 A 
ATOM     28  N   UNL     1       3.714   8.066  -6.555  0.00  0.00    +0.000 N 
ATOM     29  C   UNL     1       4.441   8.009  -5.390  0.00  0.00    +0.000 A 
ATOM     30  O   UNL     1       3.939   7.606  -4.344  0.00  0.00    +0.000 OA
ATOM     31  C   UNL     1       5.818   8.442  -5.517  0.00  0.00    +0.000 A 
ATOM     32  H   UNL     1       2.750   7.772  -6.496  0.00  0.00    +0.000 HD
ENDBRANCH  19  22
ENDBRANCH  17  18
ENDBRANCH   4  17
TORSDOF 6
