REMARK  Name = 
REMARK  10 active torsions:
REMARK  status: ('A' for Active; 'I' for Inactive)
REMARK    1  A    between atoms: C_2  and  C_3
REMARK    2  A    between atoms: C_3  and  C_4
REMARK    3  A    between atoms: C_4  and  N_5
REMARK    4  A    between atoms: C_4  and  C_21
REMARK    5  A    between atoms: N_5  and  C_6
REMARK    6  A    between atoms: C_6  and  C_7
REMARK    7  A    between atoms: C_10  and  C_11
REMARK    8  A    between atoms: C_11  and  N_12
REMARK    9  A    between atoms: N_12  and  C_13
REMARK   10  A    between atoms: C_13  and  C_14
REMARK                            x       y       z     vdW  Elec       q    Type
REMARK                         _______ _______ _______ _____ _____    ______ ____
ROOT
ATOM      1  N   UNL     1       1.388   1.751   0.311  0.00  0.00    +0.000 NA
ATOM      2  H   UNL     1       0.984   1.252   1.103  0.00  0.00    +0.000 HD
ENDROOT
BRANCH   1   3
ATOM      3  C   UNL     1       1.778   0.788  -0.728  0.00  0.00    +0.000 C 
BRANCH   3   4
ATOM      4  C   UNL     1       2.098   1.582  -1.988  0.00  0.00    +0.000 A 
ATOM      5  C   UNL     1       3.364   2.002  -2.373  0.00  0.00    +0.000 A 
ATOM      6  S   UNL     1       3.357   3.010  -3.751  0.00  0.00    +0.000 S 
ATOM      7  C   UNL     1       1.668   2.893  -3.896  0.00  0.00    +0.000 A 
ATOM      8  N   UNL     1       1.002   3.559  -4.880  0.00  0.00    +0.000 NA
ATOM      9  C   UNL     1      -0.280   3.400  -4.852  0.00  0.00    +0.000 A 
ATOM     10  N   UNL     1      -0.955   2.628  -3.939  0.00  0.00    +0.000 N 
ATOM     11  C   UNL     1      -0.325   1.899  -2.957  0.00  0.00    +0.000 A 
ATOM     12  O   UNL     1      -0.951   1.135  -2.229  0.00  0.00    +0.000 OA
ATOM     13  C   UNL     1       1.117   2.086  -2.920  0.00  0.00    +0.000 A 
ATOM     14  H   UNL     1      -1.956   2.516  -3.997  0.00  0.00    +0.000 HD
ENDBRANCH   3   4
BRANCH   3  15
ATOM     15  C   UNL     1       2.897  -0.178  -0.317  0.00  0.00    +0.000 C 
BRANCH  15  17
ATOM     16  N   UNL     1       2.218  -1.707   1.905  0.00  0.00    +0.000 NA
ATOM     17  C   UNL     1       2.526  -1.014   0.897  0.00  0.00    +0.000 C 
ENDBRANCH  15  17
ENDBRANCH   3  15
ENDBRANCH   1   3
BRANCH   1  18
ATOM     18  C   UNL     1       2.473   2.609   0.777  0.00  0.00    +0.000 C 
BRANCH  18  19
ATOM     19  C   UNL     1       2.040   3.484   1.916  0.00  0.00    +0.000 A 
ATOM     20  C   UNL     1       1.656   2.923   3.143  0.00  0.00    +0.000 A 
ATOM     21  C   UNL     1       1.330   3.750   4.210  0.00  0.00    +0.000 A 
ATOM     22  C   UNL     1       1.407   5.145   4.079  0.00  0.00    +0.000 A 
ATOM     23  C   UNL     1       1.772   5.703   2.851  0.00  0.00    +0.000 A 
ATOM     24  C   UNL     1       2.082   4.877   1.775  0.00  0.00    +0.000 A 
BRANCH  22  25
ATOM     25  C   UNL     1       1.155   6.022   5.275  0.00  0.00    +0.000 C 
BRANCH  25  26
ATOM     26  N   UNL     1       2.125   5.698   6.319  0.00  0.00    +0.000 NA
ATOM     27  H   UNL     1       3.064   5.819   5.940  0.00  0.00    +0.000 HD
BRANCH  26  28
ATOM     28  C   UNL     1       1.936   6.533   7.502  0.00  0.00    +0.000 C 
BRANCH  28  29
ATOM     29  C   UNL     1       2.952   6.199   8.602  0.00  0.00    +0.000 C 
ATOM     30  C   UNL     1       2.865   4.775   9.124  0.00  0.00    +0.000 C 
ATOM     31  C   UNL     1       2.812   4.950  10.618  0.00  0.00    +0.000 C 
ATOM     32  N   UNL     1       2.138   6.232  10.788  0.00  0.00    +0.000 NA
ATOM     33  O   UNL     1       2.714   7.058   9.730  0.00  0.00    +0.000 OA
ATOM     34  H   UNL     1       2.494   6.690  11.629  0.00  0.00    +0.000 HD
ENDBRANCH  28  29
ENDBRANCH  26  28
ENDBRANCH  25  26
ENDBRANCH  22  25
ENDBRANCH  18  19
ENDBRANCH   1  18
TORSDOF 10
