REMARK  Name = 
REMARK  6 active torsions:
REMARK  status: ('A' for Active; 'I' for Inactive)
REMARK    1  A    between atoms: C_2  and  C_4
REMARK    2  A    between atoms: C_7  and  O_8
REMARK    3  A    between atoms: O_8  and  C_9
REMARK    4  A    between atoms: C_9  and  C_10
REMARK    5  A    between atoms: C_14  and  C_15
REMARK    6  A    between atoms: C_19  and  C_20
REMARK                            x       y       z     vdW  Elec       q    Type
REMARK                         _______ _______ _______ _____ _____    ______ ____
ROOT
ATOM      1  C   UNL     1       6.457  -5.975   2.980  0.00  0.00    +0.000 A 
ATOM      2  C   UNL     1       6.391  -7.367   3.000  0.00  0.00    +0.000 A 
ATOM      3  C   UNL     1       7.371  -8.061   3.688  0.00  0.00    +0.000 A 
ATOM      4  N   UNL     1       8.395  -7.471   4.344  0.00  0.00    +0.000 NA
ATOM      5  C   UNL     1       8.475  -6.117   4.308  0.00  0.00    +0.000 A 
ATOM      6  C   UNL     1       7.528  -5.349   3.628  0.00  0.00    +0.000 A 
ENDROOT
BRANCH   5   7
ATOM      7  C   UNL     1       9.575  -5.512   5.089  0.00  0.00    +0.000 A 
ATOM      8  C   UNL     1      10.189  -4.307   4.704  0.00  0.00    +0.000 A 
ATOM      9  C   UNL     1      11.188  -3.717   5.484  0.00  0.00    +0.000 A 
ATOM     10  C   UNL     1      11.596  -4.319   6.671  0.00  0.00    +0.000 A 
ATOM     11  C   UNL     1      11.017  -5.525   7.085  0.00  0.00    +0.000 A 
ATOM     12  C   UNL     1      10.024  -6.114   6.280  0.00  0.00    +0.000 A 
BRANCH  11  13
ATOM     13  C   UNL     1      11.422  -6.182   8.381  0.00  0.00    +0.000 C 
ATOM     14  F   UNL     1      12.352  -5.472   9.082  0.00  0.00    +0.000 F 
ATOM     15  F   UNL     1      10.371  -6.350   9.231  0.00  0.00    +0.000 F 
ATOM     16  F   UNL     1      11.960  -7.420   8.201  0.00  0.00    +0.000 F 
ENDBRANCH  11  13
ENDBRANCH   5   7
BRANCH   1  17
ATOM     17  C   UNL     1       5.381  -5.158   2.313  0.00  0.00    +0.000 C 
BRANCH  17  18
ATOM     18  O   UNL     1       5.698  -4.970   0.932  0.00  0.00    +0.000 OA
BRANCH  18  22
ATOM     19  C   UNL     1       2.838  -2.753  -1.046  0.00  0.00    +0.000 A 
ATOM     20  C   UNL     1       3.950  -3.224  -1.746  0.00  0.00    +0.000 A 
ATOM     21  C   UNL     1       4.917  -3.972  -1.066  0.00  0.00    +0.000 A 
ATOM     22  C   UNL     1       4.731  -4.223   0.287  0.00  0.00    +0.000 A 
ATOM     23  N   UNL     1       3.666  -3.772   0.985  0.00  0.00    +0.000 NA
ATOM     24  C   UNL     1       2.751  -3.041   0.309  0.00  0.00    +0.000 A 
BRANCH  19  26
ATOM     25  N   UNL     1       1.530  -2.105  -2.992  0.00  0.00    +0.000 N 
ATOM     26  C   UNL     1       1.760  -1.947  -1.655  0.00  0.00    +0.000 C 
ATOM     27  O   UNL     1       1.070  -1.195  -0.980  0.00  0.00    +0.000 OA
ATOM     28  H   UNL     1       0.712  -1.631  -3.358  0.00  0.00    +0.000 HD
ATOM     29  H   UNL     1       1.890  -2.886  -3.521  0.00  0.00    +0.000 HD
ENDBRANCH  19  26
ENDBRANCH  18  22
ENDBRANCH  17  18
ENDBRANCH   1  17
TORSDOF 6
