REMARK  Name = 
REMARK  6 active torsions:
REMARK  status: ('A' for Active; 'I' for Inactive)
REMARK    1  A    between atoms: C_1  and  C_2
REMARK    2  A    between atoms: C_2  and  C_3
REMARK    3  A    between atoms: C_2  and  C_4
REMARK    4  A    between atoms: C_2  and  C_19
REMARK    5  A    between atoms: C_5  and  C_6
REMARK    6  A    between atoms: C_9  and  C_10
REMARK                            x       y       z     vdW  Elec       q    Type
REMARK                         _______ _______ _______ _____ _____    ______ ____
ROOT
ATOM      1  C   UNL     1       3.255   1.547   3.422  0.00  0.00    +0.000 C 
ATOM      2  C   UNL     1       2.696   0.419   4.323  0.00  0.00    +0.000 C 
ATOM      3  N   UNL     1       3.003   0.590   5.762  0.00  0.00    +0.000 NA
ATOM      4  C   UNL     1       2.532   1.938   6.190  0.00  0.00    +0.000 C 
ATOM      5  C   UNL     1       3.111   3.058   5.289  0.00  0.00    +0.000 C 
ATOM      6  O   UNL     1       2.883   2.853   3.885  0.00  0.00    +0.000 OA
ATOM      7  H   UNL     1       4.017   0.565   5.864  0.00  0.00    +0.000 HD
ENDROOT
BRANCH   4   8
ATOM      8  C   UNL     1       1.008   2.008   6.304  0.00  0.00    +0.000 A 
ATOM      9  C   UNL     1       0.342   1.142   7.177  0.00  0.00    +0.000 A 
ATOM     10  C   UNL     1      -1.051   1.164   7.220  0.00  0.00    +0.000 A 
ATOM     11  C   UNL     1      -1.730   2.044   6.393  0.00  0.00    +0.000 A 
ATOM     12  F   UNL     1      -3.069   2.076   6.395  0.00  0.00    +0.000 F 
ATOM     13  C   UNL     1      -1.012   2.878   5.563  0.00  0.00    +0.000 A 
ATOM     14  N   UNL     1       0.340   2.881   5.508  0.00  0.00    +0.000 NA
ENDBRANCH   4   8
BRANCH   1  16
ATOM     15  C   UNL     1       5.433   1.418   2.150  0.00  0.00    +0.000 C 
ATOM     16  C   UNL     1       4.753   1.525   3.302  0.00  0.00    +0.000 C 
BRANCH  15  18
ATOM     17  C   UNL     1       7.673   1.966   3.301  0.00  0.00    +0.000 C 
ATOM     18  C   UNL     1       6.943   1.584   1.990  0.00  0.00    +0.000 C 
ATOM     19  C   UNL     1       7.500   0.217   1.538  0.00  0.00    +0.000 C 
BRANCH  18  20
ATOM     20  C   UNL     1       7.217   2.691   0.953  0.00  0.00    +0.000 A 
ATOM     21  C   UNL     1       6.751   3.996   1.175  0.00  0.00    +0.000 A 
ATOM     22  C   UNL     1       7.025   4.993   0.242  0.00  0.00    +0.000 A 
ATOM     23  C   UNL     1       7.743   4.661  -0.892  0.00  0.00    +0.000 A 
ATOM     24  F   UNL     1       8.030   5.594  -1.808  0.00  0.00    +0.000 F 
ATOM     25  C   UNL     1       8.159   3.355  -1.060  0.00  0.00    +0.000 A 
ATOM     26  N   UNL     1       7.916   2.366  -0.165  0.00  0.00    +0.000 NA
ENDBRANCH  18  20
ENDBRANCH  15  18
ENDBRANCH   1  16
TORSDOF 4
