REMARK  Name = 
REMARK  5 active torsions:
REMARK  status: ('A' for Active; 'I' for Inactive)
REMARK    1  A    between atoms: N_1  and  C_2
REMARK    2  A    between atoms: C_2  and  C_3
REMARK    3  A    between atoms: C_6  and  C_7
REMARK    4  A    between atoms: C_7  and  C_8
REMARK    5  A    between atoms: C_15  and  C_16
REMARK                            x       y       z     vdW  Elec       q    Type
REMARK                         _______ _______ _______ _____ _____    ______ ____
ROOT
ATOM      1  C   UNL     1       4.916  -4.770   4.123  0.00  0.00    +0.000 A 
ATOM      2  N   UNL     1       4.773  -4.318   5.381  0.00  0.00    +0.000 NA
ATOM      3  O   UNL     1       6.040  -3.935   5.782  0.00  0.00    +0.000 OA
ATOM      4  C   UNL     1       6.930  -4.229   4.802  0.00  0.00    +0.000 A 
ATOM      5  C   UNL     1       8.273  -3.882   4.794  0.00  0.00    +0.000 A 
ATOM      6  C   UNL     1       9.008  -4.311   3.689  0.00  0.00    +0.000 A 
ATOM      7  F   UNL     1      10.297  -3.939   3.633  0.00  0.00    +0.000 F 
ATOM      8  C   UNL     1       8.441  -5.089   2.671  0.00  0.00    +0.000 A 
ATOM      9  C   UNL     1       7.059  -5.378   2.696  0.00  0.00    +0.000 A 
ATOM     10  C   UNL     1       6.290  -4.901   3.775  0.00  0.00    +0.000 A 
ENDROOT
BRANCH   8  11
ATOM     11  C   UNL     1       9.253  -5.629   1.543  0.00  0.00    +0.000 C 
ATOM     12  N   UNL     1      10.568  -5.270   1.462  0.00  0.00    +0.000 N 
ATOM     13  O   UNL     1       8.761  -6.392   0.719  0.00  0.00    +0.000 OA
ATOM     14  H   UNL     1      11.017  -4.651   2.128  0.00  0.00    +0.000 HD
ATOM     15  H   UNL     1      11.126  -5.660   0.714  0.00  0.00    +0.000 HD
ENDBRANCH   8  11
BRANCH   1  16
ATOM     16  C   UNL     1       3.717  -4.876   3.237  0.00  0.00    +0.000 C 
BRANCH  16  20
ATOM     17  C   UNL     1       3.886  -0.945   1.387  0.00  0.00    +0.000 A 
ATOM     18  C   UNL     1       4.269  -2.090   0.671  0.00  0.00    +0.000 A 
ATOM     19  C   UNL     1       4.166  -3.364   1.242  0.00  0.00    +0.000 A 
ATOM     20  C   UNL     1       3.675  -3.522   2.545  0.00  0.00    +0.000 A 
ATOM     21  C   UNL     1       3.250  -2.377   3.243  0.00  0.00    +0.000 A 
ATOM     22  C   UNL     1       3.364  -1.106   2.674  0.00  0.00    +0.000 A 
BRANCH  17  23
ATOM     23  C   UNL     1       4.091   0.431   0.807  0.00  0.00    +0.000 C 
BRANCH  23  24
ATOM     24  N   UNL     1       3.371   0.610  -0.448  0.00  0.00    +0.000 NA
ATOM     25  H   UNL     1       3.460   1.580  -0.744  0.00  0.00    +0.000 HD
ATOM     26  H   UNL     1       2.379   0.451  -0.278  0.00  0.00    +0.000 HD
ENDBRANCH  23  24
ENDBRANCH  17  23
ENDBRANCH  16  20
ENDBRANCH   1  16
TORSDOF 5
