REMARK  Name = 
REMARK  5 active torsions:
REMARK  status: ('A' for Active; 'I' for Inactive)
REMARK    1  A    between atoms: C_2  and  C_3
REMARK    2  A    between atoms: C_6  and  C_7
REMARK    3  A    between atoms: C_11  and  C_12
REMARK    4  A    between atoms: C_12  and  N_13
REMARK    5  A    between atoms: C_17  and  C_18
REMARK                            x       y       z     vdW  Elec       q    Type
REMARK                         _______ _______ _______ _____ _____    ______ ____
ROOT
ATOM      1  C   UNL     1       6.956  -1.147  -1.557  0.00  0.00    +0.000 C 
ATOM      2  C   UNL     1       7.048  -0.782  -3.027  0.00  0.00    +0.000 C 
ATOM      3  C   UNL     1       6.483  -2.109  -2.648  0.00  0.00    +0.000 C 
ENDROOT
BRANCH   1   4
ATOM      4  N   UNL     1       8.123  -1.605  -0.799  0.00  0.00    +0.000 N 
ATOM      5  C   UNL     1       9.268  -0.888  -0.472  0.00  0.00    +0.000 A 
ATOM      6  C   UNL     1       9.345   0.497  -0.421  0.00  0.00    +0.000 A 
ATOM      7  C   UNL     1      10.542   1.117  -0.049  0.00  0.00    +0.000 A 
ATOM      8  C   UNL     1      11.646   0.330   0.262  0.00  0.00    +0.000 A 
ATOM      9  C   UNL     1      11.493  -1.044   0.186  0.00  0.00    +0.000 A 
ATOM     10  N   UNL     1      10.333  -1.657  -0.163  0.00  0.00    +0.000 NA
ATOM     11  H   UNL     1       8.383  -2.587  -0.835  0.00  0.00    +0.000 HD
BRANCH   8  12
ATOM     12  C   UNL     1      12.965   0.890   0.618  0.00  0.00    +0.000 C 
ATOM     13  N   UNL     1      12.990   2.145   1.159  0.00  0.00    +0.000 N 
ATOM     14  O   UNL     1      13.993   0.250   0.451  0.00  0.00    +0.000 OA
ATOM     15  H   UNL     1      12.168   2.622   1.500  0.00  0.00    +0.000 HD
ATOM     16  H   UNL     1      13.892   2.489   1.464  0.00  0.00    +0.000 HD
ENDBRANCH   8  12
ENDBRANCH   1   4
BRANCH   1  21
ATOM     17  C   UNL     1       4.736   1.497   0.191  0.00  0.00    +0.000 A 
ATOM     18  C   UNL     1       3.801   0.619   0.729  0.00  0.00    +0.000 A 
ATOM     19  N   UNL     1       3.850  -0.729   0.632  0.00  0.00    +0.000 NA
ATOM     20  C   UNL     1       4.889  -1.243  -0.066  0.00  0.00    +0.000 A 
ATOM     21  C   UNL     1       5.865  -0.495  -0.717  0.00  0.00    +0.000 A 
ATOM     22  C   UNL     1       5.758   0.897  -0.563  0.00  0.00    +0.000 A 
BRANCH  17  26
ATOM     23  C   UNL     1       4.631   5.752   0.883  0.00  0.00    +0.000 A 
ATOM     24  C   UNL     1       4.088   4.875   1.819  0.00  0.00    +0.000 A 
ATOM     25  C   UNL     1       4.123   3.497   1.588  0.00  0.00    +0.000 A 
ATOM     26  C   UNL     1       4.681   2.960   0.412  0.00  0.00    +0.000 A 
ATOM     27  C   UNL     1       5.210   3.871  -0.522  0.00  0.00    +0.000 A 
ATOM     28  C   UNL     1       5.194   5.251  -0.289  0.00  0.00    +0.000 A 
BRANCH  23  30
ATOM     29  N   UNL     1       4.610   8.307   1.319  0.00  0.00    +0.000 NA
ATOM     30  C   UNL     1       4.615   7.161   1.123  0.00  0.00    +0.000 C 
ENDBRANCH  23  30
ENDBRANCH  17  26
ENDBRANCH   1  21
TORSDOF 5
