REMARK  Name = 
REMARK  4 active torsions:
REMARK  status: ('A' for Active; 'I' for Inactive)
REMARK    1  A    between atoms: C_2  and  C_4
REMARK    2  A    between atoms: N_8  and  C_9
REMARK    3  A    between atoms: C_9  and  C_10
REMARK    4  A    between atoms: C_13  and  C_14
REMARK                            x       y       z     vdW  Elec       q    Type
REMARK                         _______ _______ _______ _____ _____    ______ ____
ROOT
ATOM      1  C   UNL     1       3.107  -3.319   0.806  0.00  0.00    +0.000 A 
ATOM      2  C   UNL     1       2.416  -3.572  -0.376  0.00  0.00    +0.000 A 
ATOM      3  C   UNL     1       3.132  -3.702  -1.568  0.00  0.00    +0.000 A 
ATOM      4  C   UNL     1       4.514  -3.580  -1.561  0.00  0.00    +0.000 A 
ATOM      5  N   UNL     1       5.298  -3.621  -2.717  0.00  0.00    +0.000 N 
ATOM      6  N   UNL     1       5.191  -3.320  -0.421  0.00  0.00    +0.000 NA
ATOM      7  C   UNL     1       4.483  -3.189   0.730  0.00  0.00    +0.000 A 
ATOM      8  H   UNL     1       6.266  -3.572  -2.406  0.00  0.00    +0.000 HD
ENDROOT
BRANCH   1  10
ATOM      9  N   UNL     1       1.234  -3.799   2.271  0.00  0.00    +0.000 N 
ATOM     10  C   UNL     1       2.430  -3.156   2.108  0.00  0.00    +0.000 C 
ATOM     11  O   UNL     1       2.930  -2.503   3.013  0.00  0.00    +0.000 OA
ATOM     12  H   UNL     1       0.821  -3.758   3.195  0.00  0.00    +0.000 HD
ATOM     13  H   UNL     1       0.923  -4.536   1.654  0.00  0.00    +0.000 HD
ENDBRANCH   1  10
BRANCH   5  14
ATOM     14  C   UNL     1       5.025  -4.429  -3.912  0.00  0.00    +0.000 C 
ATOM     15  C   UNL     1       5.178  -3.668  -5.226  0.00  0.00    +0.000 C 
ATOM     16  C   UNL     1       3.842  -4.207  -4.843  0.00  0.00    +0.000 C 
BRANCH  14  17
ATOM     17  C   UNL     1       5.550  -5.862  -3.842  0.00  0.00    +0.000 A 
ATOM     18  C   UNL     1       4.766  -6.896  -3.301  0.00  0.00    +0.000 A 
ATOM     19  C   UNL     1       5.187  -8.230  -3.335  0.00  0.00    +0.000 A 
ATOM     20  C   UNL     1       6.418  -8.570  -3.906  0.00  0.00    +0.000 A 
ATOM     21  C   UNL     1       7.234  -7.546  -4.404  0.00  0.00    +0.000 A 
ATOM     22  C   UNL     1       6.808  -6.215  -4.361  0.00  0.00    +0.000 A 
BRANCH  20  23
ATOM     23  C   UNL     1       6.864 -10.007  -4.010  0.00  0.00    +0.000 C 
ATOM     24  F   UNL     1       5.972 -10.894  -3.486  0.00  0.00    +0.000 F 
ATOM     25  F   UNL     1       7.057 -10.398  -5.301  0.00  0.00    +0.000 F 
ATOM     26  F   UNL     1       8.042 -10.239  -3.369  0.00  0.00    +0.000 F 
ENDBRANCH  20  23
ENDBRANCH  14  17
ENDBRANCH   5  14
TORSDOF 4
