REMARK  Name = 
REMARK  6 active torsions:
REMARK  status: ('A' for Active; 'I' for Inactive)
REMARK    1  A    between atoms: C_2  and  C_25
REMARK    2  A    between atoms: N_3  and  C_4
REMARK    3  A    between atoms: C_4  and  C_5
REMARK    4  A    between atoms: C_8  and  C_9
REMARK    5  A    between atoms: C_9  and  N_10
REMARK    6  A    between atoms: C_11  and  C_13
REMARK                            x       y       z     vdW  Elec       q    Type
REMARK                         _______ _______ _______ _____ _____    ______ ____
ROOT
ATOM      1  C   UNL     1       3.163  -2.542   2.469  0.00  0.00    +0.000 A 
ATOM      2  C   UNL     1       4.098  -1.933   3.317  0.00  0.00    +0.000 A 
ATOM      3  C   UNL     1       4.919  -2.705   4.149  0.00  0.00    +0.000 A 
ATOM      4  C   UNL     1       4.837  -4.104   4.135  0.00  0.00    +0.000 A 
ATOM      5  C   UNL     1       3.901  -4.712   3.288  0.00  0.00    +0.000 A 
ATOM      6  C   UNL     1       3.082  -3.941   2.456  0.00  0.00    +0.000 A 
ENDROOT
BRANCH   1   7
ATOM      7  C   UNL     1       2.229  -1.714   1.628  0.00  0.00    +0.000 C 
BRANCH   7  10
ATOM      8  O   UNL     1       0.859  -0.217  -0.308  0.00  0.00    +0.000 OA
ATOM      9  C   UNL     1       1.993  -0.621  -0.535  0.00  0.00    +0.000 C 
ATOM     10  N   UNL     1       2.758  -1.365   0.334  0.00  0.00    +0.000 N 
ATOM     11  H   UNL     1       3.692  -1.640   0.047  0.00  0.00    +0.000 HD
BRANCH   9  12
ATOM     12  C   UNL     1       2.635  -0.298  -1.856  0.00  0.00    +0.000 C 
ATOM     13  C   UNL     1       1.945   0.489  -2.891  0.00  0.00    +0.000 C 
ATOM     14  C   UNL     1       2.913   0.575  -3.938  0.00  0.00    +0.000 C 
ATOM     15  C   UNL     1       3.983  -0.098  -3.487  0.00  0.00    +0.000 C 
ATOM     16  N   UNL     1       3.847  -0.647  -2.220  0.00  0.00    +0.000 NA
ENDBRANCH   9  12
ENDBRANCH   7  10
ENDBRANCH   1   7
BRANCH   4  17
ATOM     17  C   UNL     1       5.705  -4.945   5.038  0.00  0.00    +0.000 C 
BRANCH  17  18
ATOM     18  N   UNL     1       5.058  -5.205   6.300  0.00  0.00    +0.000 N 
ATOM     19  C   UNL     1       5.698  -5.893   7.301  0.00  0.00    +0.000 C 
ATOM     20  O   UNL     1       6.862  -6.269   7.191  0.00  0.00    +0.000 OA
ATOM     21  H   UNL     1       4.048  -5.120   6.323  0.00  0.00    +0.000 HD
BRANCH  19  22
ATOM     22  C   UNL     1       4.939  -6.104   8.541  0.00  0.00    +0.000 A 
ATOM     23  C   UNL     1       5.615  -6.328   9.734  0.00  0.00    +0.000 A 
ATOM     24  S   UNL     1       4.586  -6.500  11.083  0.00  0.00    +0.000 S 
ATOM     25  C   UNL     1       3.198  -6.335  10.114  0.00  0.00    +0.000 A 
ATOM     26  N   UNL     1       1.953  -6.412  10.656  0.00  0.00    +0.000 NA
ATOM     27  C   UNL     1       0.991  -6.302   9.802  0.00  0.00    +0.000 A 
ATOM     28  N   UNL     1       1.162  -6.117   8.454  0.00  0.00    +0.000 N 
ATOM     29  C   UNL     1       2.399  -6.008   7.866  0.00  0.00    +0.000 A 
ATOM     30  O   UNL     1       2.516  -5.806   6.662  0.00  0.00    +0.000 OA
ATOM     31  C   UNL     1       3.516  -6.134   8.782  0.00  0.00    +0.000 A 
ATOM     32  H   UNL     1       0.367  -6.031   7.838  0.00  0.00    +0.000 HD
ENDBRANCH  19  22
ENDBRANCH  17  18
ENDBRANCH   4  17
TORSDOF 6
