REMARK  Name = 
REMARK  6 active torsions:
REMARK  status: ('A' for Active; 'I' for Inactive)
REMARK    1  A    between atoms: C_2  and  C_19
REMARK    2  A    between atoms: N_3  and  C_4
REMARK    3  A    between atoms: C_4  and  C_5
REMARK    4  A    between atoms: C_8  and  C_9
REMARK    5  A    between atoms: C_9  and  O_10
REMARK    6  A    between atoms: O_10  and  C_11
REMARK                            x       y       z     vdW  Elec       q    Type
REMARK                         _______ _______ _______ _____ _____    ______ ____
ROOT
ATOM      1  O   UNL     1       1.052  -2.777  -0.873  0.00  0.00    +0.000 OA
ATOM      2  C   UNL     1       2.091  -2.142  -0.776  0.00  0.00    +0.000 C 
ATOM      3  N   UNL     1       2.503  -1.500   0.368  0.00  0.00    +0.000 N 
ATOM      4  H   UNL     1       3.447  -1.142   0.379  0.00  0.00    +0.000 HD
ENDROOT
BRANCH   2   5
ATOM      5  C   UNL     1       3.145  -2.172  -1.774  0.00  0.00    +0.000 A 
ATOM      6  C   UNL     1       3.489  -3.332  -2.455  0.00  0.00    +0.000 A 
ATOM      7  S   UNL     1       5.127  -3.288  -2.971  0.00  0.00    +0.000 S 
ATOM      8  C   UNL     1       5.306  -1.673  -2.450  0.00  0.00    +0.000 A 
ATOM      9  N   UNL     1       6.507  -1.036  -2.425  0.00  0.00    +0.000 NA
ATOM     10  C   UNL     1       6.440   0.203  -2.059  0.00  0.00    +0.000 A 
ATOM     11  N   UNL     1       5.280   0.880  -1.770  0.00  0.00    +0.000 N 
ATOM     12  C   UNL     1       4.047   0.275  -1.770  0.00  0.00    +0.000 A 
ATOM     13  O   UNL     1       3.015   0.899  -1.547  0.00  0.00    +0.000 OA
ATOM     14  C   UNL     1       4.098  -1.141  -2.053  0.00  0.00    +0.000 A 
ATOM     15  H   UNL     1       5.288   1.870  -1.575  0.00  0.00    +0.000 HD
ENDBRANCH   2   5
BRANCH   3  16
ATOM     16  C   UNL     1       2.082  -1.936   1.678  0.00  0.00    +0.000 C 
BRANCH  16  17
ATOM     17  C   UNL     1       3.078  -2.918   2.286  0.00  0.00    +0.000 A 
ATOM     18  N   UNL     1       4.174  -2.409   2.894  0.00  0.00    +0.000 NA
ATOM     19  C   UNL     1       5.019  -3.301   3.456  0.00  0.00    +0.000 A 
ATOM     20  C   UNL     1       4.845  -4.667   3.403  0.00  0.00    +0.000 A 
ATOM     21  C   UNL     1       3.725  -5.078   2.711  0.00  0.00    +0.000 A 
ATOM     22  N   UNL     1       2.841  -4.235   2.141  0.00  0.00    +0.000 NA
BRANCH  20  23
ATOM     23  C   UNL     1       5.770  -5.631   4.075  0.00  0.00    +0.000 C 
BRANCH  23  24
ATOM     24  O   UNL     1       5.313  -5.849   5.410  0.00  0.00    +0.000 OA
BRANCH  24  25
ATOM     25  C   UNL     1       6.045  -6.715   6.178  0.00  0.00    +0.000 A 
ATOM     26  C   UNL     1       7.182  -7.405   5.771  0.00  0.00    +0.000 A 
ATOM     27  C   UNL     1       7.805  -8.243   6.685  0.00  0.00    +0.000 A 
ATOM     28  N   UNL     1       7.375  -8.432   7.949  0.00  0.00    +0.000 NA
ATOM     29  C   UNL     1       6.268  -7.754   8.318  0.00  0.00    +0.000 A 
ATOM     30  C   UNL     1       5.578  -6.896   7.479  0.00  0.00    +0.000 A 
ENDBRANCH  24  25
ENDBRANCH  23  24
ENDBRANCH  20  23
ENDBRANCH  16  17
ENDBRANCH   3  16
TORSDOF 6
