REMARK  Name = 
REMARK  9 active torsions:
REMARK  status: ('A' for Active; 'I' for Inactive)
REMARK    1  A    between atoms: C_1  and  C_2
REMARK    2  A    between atoms: C_2  and  N_3
REMARK    3  A    between atoms: N_3  and  C_4
REMARK    4  A    between atoms: N_3  and  C_19
REMARK    5  A    between atoms: C_4  and  C_5
REMARK    6  A    between atoms: C_8  and  C_9
REMARK    7  A    between atoms: C_9  and  N_10
REMARK    8  A    between atoms: N_10  and  C_11
REMARK    9  A    between atoms: C_11  and  C_12
REMARK                            x       y       z     vdW  Elec       q    Type
REMARK                         _______ _______ _______ _____ _____    ______ ____
ROOT
ATOM      1  C   UNL     1       2.019  -0.689  -2.575  0.00  0.00    +0.000 C 
ENDROOT
BRANCH   1   2
ATOM      2  C   UNL     1       0.545  -0.665  -2.263  0.00  0.00    +0.000 A 
ATOM      3  C   UNL     1      -0.167  -1.804  -1.887  0.00  0.00    +0.000 A 
ATOM      4  C   UNL     1      -1.464  -1.669  -1.384  0.00  0.00    +0.000 A 
ATOM      5  C   UNL     1      -2.021  -0.395  -1.280  0.00  0.00    +0.000 A 
ATOM      6  N   UNL     1      -1.378   0.716  -1.713  0.00  0.00    +0.000 NA
ATOM      7  C   UNL     1      -0.120   0.557  -2.183  0.00  0.00    +0.000 A 
BRANCH   5   8
ATOM      8  C   UNL     1      -3.358  -0.184  -0.592  0.00  0.00    +0.000 C 
BRANCH   8   9
ATOM      9  N   UNL     1      -4.373   0.475  -1.421  0.00  0.00    +0.000 NA
ATOM     10  H   UNL     1      -3.927   1.306  -1.824  0.00  0.00    +0.000 HD
BRANCH   9  11
ATOM     11  C   UNL     1      -4.812  -0.386  -2.524  0.00  0.00    +0.000 C 
BRANCH  11  12
ATOM     12  C   UNL     1      -5.922   0.306  -3.268  0.00  0.00    +0.000 C 
ATOM     13  C   UNL     1      -7.197   0.684  -2.628  0.00  0.00    +0.000 C 
ATOM     14  C   UNL     1      -7.911   1.336  -3.678  0.00  0.00    +0.000 C 
ATOM     15  C   UNL     1      -7.102   1.283  -4.748  0.00  0.00    +0.000 C 
ATOM     16  N   UNL     1      -5.888   0.657  -4.531  0.00  0.00    +0.000 NA
ENDBRANCH  11  12
ENDBRANCH   9  11
ENDBRANCH   8   9
ENDBRANCH   5   8
ENDBRANCH   1   2
BRANCH   1  17
ATOM     17  N   UNL     1       2.474  -1.128  -3.908  0.00  0.00    +0.000 N 
BRANCH  17  18
ATOM     18  C   UNL     1       3.721  -1.718  -3.984  0.00  0.00    +0.000 A 
ATOM     19  C   UNL     1       3.914  -2.923  -4.646  0.00  0.00    +0.000 A 
ATOM     20  S   UNL     1       5.527  -3.458  -4.636  0.00  0.00    +0.000 S 
ATOM     21  C   UNL     1       6.028  -2.097  -3.752  0.00  0.00    +0.000 A 
ATOM     22  N   UNL     1       7.345  -1.940  -3.438  0.00  0.00    +0.000 NA
ATOM     23  C   UNL     1       7.616  -0.858  -2.792  0.00  0.00    +0.000 A 
ATOM     24  N   UNL     1       6.684   0.070  -2.415  0.00  0.00    +0.000 N 
ATOM     25  C   UNL     1       5.335  -0.061  -2.668  0.00  0.00    +0.000 A 
ATOM     26  O   UNL     1       4.560   0.783  -2.228  0.00  0.00    +0.000 OA
ATOM     27  C   UNL     1       4.977  -1.252  -3.436  0.00  0.00    +0.000 A 
ATOM     28  H   UNL     1       6.955   0.887  -1.886  0.00  0.00    +0.000 HD
ENDBRANCH  17  18
BRANCH  17  30
ATOM     29  C   UNL     1       0.646  -0.167  -5.382  0.00  0.00    +0.000 C 
ATOM     30  C   UNL     1       1.518  -1.356  -5.013  0.00  0.00    +0.000 C 
ENDBRANCH  17  30
ENDBRANCH   1  17
TORSDOF 8
