REMARK  Name = 
REMARK  10 active torsions:
REMARK  status: ('A' for Active; 'I' for Inactive)
REMARK    1  A    between atoms: C_1  and  O_2
REMARK    2  A    between atoms: O_2  and  C_3
REMARK    3  A    between atoms: C_10  and  C_11
REMARK    4  A    between atoms: N_13  and  C_14
REMARK    5  A    between atoms: C_14  and  C_15
REMARK    6  A    between atoms: C_18  and  N_19
REMARK    7  A    between atoms: N_19  and  C_20
REMARK    8  A    between atoms: C_20  and  C_21
REMARK    9  A    between atoms: C_20  and  C_22
REMARK   10  A    between atoms: C_22  and  C_23
REMARK                            x       y       z     vdW  Elec       q    Type
REMARK                         _______ _______ _______ _____ _____    ______ ____
ROOT
ATOM      1  C   UNL     1       1.422   2.890  -1.676  0.00  0.00    +0.000 A 
ATOM      2  C   UNL     1       1.317   1.605  -2.217  0.00  0.00    +0.000 A 
ATOM      3  C   UNL     1       0.120   1.171  -2.807  0.00  0.00    +0.000 A 
ATOM      4  C   UNL     1      -0.993   2.014  -2.914  0.00  0.00    +0.000 A 
ATOM      5  C   UNL     1      -0.827   3.345  -2.519  0.00  0.00    +0.000 A 
ATOM      6  C   UNL     1       0.355   3.774  -1.887  0.00  0.00    +0.000 A 
ENDROOT
BRANCH   4   7
ATOM      7  N   UNL     1      -2.261   1.584  -3.329  0.00  0.00    +0.000 N 
ATOM      8  H   UNL     1      -2.557   1.968  -4.224  0.00  0.00    +0.000 HD
BRANCH   7   9
ATOM      9  C   UNL     1      -2.670   0.193  -3.065  0.00  0.00    +0.000 C 
ATOM     10  C   UNL     1      -2.727   0.001  -1.536  0.00  0.00    +0.000 C 
BRANCH   9  11
ATOM     11  C   UNL     1      -4.049  -0.134  -3.685  0.00  0.00    +0.000 C 
BRANCH  11  12
ATOM     12  C   UNL     1      -4.122  -0.063  -5.200  0.00  0.00    +0.000 A 
ATOM     13  C   UNL     1      -3.310  -0.866  -6.016  0.00  0.00    +0.000 A 
ATOM     14  C   UNL     1      -3.497  -0.895  -7.401  0.00  0.00    +0.000 A 
ATOM     15  C   UNL     1      -4.477  -0.103  -7.993  0.00  0.00    +0.000 A 
ATOM     16  C   UNL     1      -5.250   0.743  -7.202  0.00  0.00    +0.000 A 
ATOM     17  C   UNL     1      -5.077   0.760  -5.815  0.00  0.00    +0.000 A 
ENDBRANCH  11  12
ENDBRANCH   9  11
ENDBRANCH   7   9
ENDBRANCH   4   7
BRANCH   1  18
ATOM     18  C   UNL     1       2.632   3.284  -0.856  0.00  0.00    +0.000 C 
BRANCH  18  21
ATOM     19  C   UNL     1       4.870   4.316  -1.155  0.00  0.00    +0.000 C 
ATOM     20  O   UNL     1       5.136   4.207   0.049  0.00  0.00    +0.000 OA
ATOM     21  N   UNL     1       3.672   3.882  -1.665  0.00  0.00    +0.000 N 
ATOM     22  H   UNL     1       3.487   3.958  -2.649  0.00  0.00    +0.000 HD
BRANCH  19  30
ATOM     23  C   UNL     1       4.815   4.825  -4.554  0.00  0.00    +0.000 A 
ATOM     24  N   UNL     1       5.024   5.166  -5.839  0.00  0.00    +0.000 NA
ATOM     25  C   UNL     1       6.170   5.775  -6.146  0.00  0.00    +0.000 A 
ATOM     26  N   UNL     1       7.158   6.085  -5.311  0.00  0.00    +0.000 NA
ATOM     27  C   UNL     1       6.901   5.738  -4.038  0.00  0.00    +0.000 A 
ATOM     28  S   UNL     1       8.049   6.060  -2.830  0.00  0.00    +0.000 S 
ATOM     29  C   UNL     1       7.051   5.385  -1.629  0.00  0.00    +0.000 A 
ATOM     30  C   UNL     1       5.835   4.909  -2.103  0.00  0.00    +0.000 A 
ATOM     31  C   UNL     1       5.756   5.115  -3.553  0.00  0.00    +0.000 A 
BRANCH  23  33
ATOM     32  C   UNL     1       3.075   3.475  -5.326  0.00  0.00    +0.000 C 
ATOM     33  O   UNL     1       3.625   4.208  -4.237  0.00  0.00    +0.000 OA
ENDBRANCH  23  33
ENDBRANCH  19  30
ENDBRANCH  18  21
ENDBRANCH   1  18
TORSDOF 8
