REMARK  Name = 
REMARK  9 active torsions:
REMARK  status: ('A' for Active; 'I' for Inactive)
REMARK    1  A    between atoms: N_1  and  C_2
REMARK    2  A    between atoms: C_2  and  C_3
REMARK    3  A    between atoms: C_6  and  O_7
REMARK    4  A    between atoms: O_7  and  C_8
REMARK    5  A    between atoms: C_8  and  C_9
REMARK    6  A    between atoms: C_9  and  O_10
REMARK    7  A    between atoms: N_13  and  C_14
REMARK    8  A    between atoms: C_14  and  C_15
REMARK    9  A    between atoms: C_15  and  O_16
REMARK                            x       y       z     vdW  Elec       q    Type
REMARK                         _______ _______ _______ _____ _____    ______ ____
ROOT
ATOM      1  C   UNL     1       3.551   4.474  -4.329  0.00  0.00    +0.000 C 
ENDROOT
BRANCH   1   2
ATOM      2  C   UNL     1       3.964   5.178  -5.637  0.00  0.00    +0.000 C 
ATOM      3  C   UNL     1       4.323   6.649  -5.395  0.00  0.00    +0.000 C 
ATOM      4  C   UNL     1       4.498   7.416  -6.706  0.00  0.00    +0.000 C 
ATOM      5  N   UNL     1       3.297   7.308  -7.562  0.00  0.00    +0.000 NA
ATOM      6  C   UNL     1       3.077   5.893  -7.907  0.00  0.00    +0.000 C 
ATOM      7  C   UNL     1       2.824   5.061  -6.652  0.00  0.00    +0.000 C 
BRANCH   2   8
ATOM      8  O   UNL     1       5.115   4.504  -6.175  0.00  0.00    +0.000 OA
ATOM      9  H   UNL     1       5.715   4.343  -5.420  0.00  0.00    +0.000 HD
ENDBRANCH   2   8
BRANCH   5  10
ATOM     10  C   UNL     1       3.496   8.143  -8.772  0.00  0.00    +0.000 C 
BRANCH  10  11
ATOM     11  C   UNL     1       2.275   8.194  -9.706  0.00  0.00    +0.000 C 
BRANCH  11  12
ATOM     12  O   UNL     1       1.111   8.586  -8.989  0.00  0.00    +0.000 OA
ATOM     13  H   UNL     1       1.178   8.134  -8.123  0.00  0.00    +0.000 HD
ENDBRANCH  11  12
ENDBRANCH  10  11
ENDBRANCH   5  10
ENDBRANCH   1   2
BRANCH   1  14
ATOM     14  O   UNL     1       4.616   4.570  -3.373  0.00  0.00    +0.000 OA
BRANCH  14  18
ATOM     15  C   UNL     1       4.165   2.770   0.377  0.00  0.00    +0.000 A 
ATOM     16  C   UNL     1       3.103   2.716  -0.535  0.00  0.00    +0.000 A 
ATOM     17  C   UNL     1       3.212   3.312  -1.792  0.00  0.00    +0.000 A 
ATOM     18  C   UNL     1       4.385   3.976  -2.161  0.00  0.00    +0.000 A 
ATOM     19  C   UNL     1       5.436   4.056  -1.245  0.00  0.00    +0.000 A 
ATOM     20  C   UNL     1       5.328   3.458   0.016  0.00  0.00    +0.000 A 
BRANCH  15  21
ATOM     21  C   UNL     1       4.044   2.087   1.714  0.00  0.00    +0.000 C 
BRANCH  21  22
ATOM     22  N   UNL     1       3.827   0.651   1.552  0.00  0.00    +0.000 NA
ATOM     23  H   UNL     1       3.851   0.202   2.464  0.00  0.00    +0.000 HD
ATOM     24  H   UNL     1       4.602   0.264   1.014  0.00  0.00    +0.000 HD
ENDBRANCH  21  22
ENDBRANCH  15  21
ENDBRANCH  14  18
ENDBRANCH   1  14
TORSDOF 9
