REMARK  Name = 
REMARK  5 active torsions:
REMARK  status: ('A' for Active; 'I' for Inactive)
REMARK    1  A    between atoms: C_2  and  C_4
REMARK    2  A    between atoms: N_8  and  C_9
REMARK    3  A    between atoms: C_9  and  C_10
REMARK    4  A    between atoms: C_14  and  N_15
REMARK    5  A    between atoms: C_18  and  O_19
REMARK                            x       y       z     vdW  Elec       q    Type
REMARK                         _______ _______ _______ _____ _____    ______ ____
ROOT
ATOM      1  C   UNL     1       5.321   2.205   5.472  0.00  0.00    +0.000 C 
ENDROOT
BRANCH   1   6
ATOM      2  C   UNL     1       3.691   0.029   1.172  0.00  0.00    +0.000 A 
ATOM      3  C   UNL     1       2.987   0.704   2.164  0.00  0.00    +0.000 A 
ATOM      4  C   UNL     1       3.695   1.352   3.176  0.00  0.00    +0.000 A 
ATOM      5  C   UNL     1       5.090   1.320   3.195  0.00  0.00    +0.000 A 
ATOM      6  N   UNL     1       5.839   2.006   4.136  0.00  0.00    +0.000 N 
ATOM      7  N   UNL     1       5.778   0.662   2.241  0.00  0.00    +0.000 NA
ATOM      8  C   UNL     1       5.074   0.026   1.261  0.00  0.00    +0.000 A 
ATOM      9  H   UNL     1       6.833   1.829   4.032  0.00  0.00    +0.000 HD
BRANCH   2  11
ATOM     10  N   UNL     1       1.794  -0.230  -0.318  0.00  0.00    +0.000 N 
ATOM     11  C   UNL     1       3.009  -0.694   0.085  0.00  0.00    +0.000 C 
ATOM     12  O   UNL     1       3.528  -1.676  -0.454  0.00  0.00    +0.000 OA
ATOM     13  H   UNL     1       1.365  -0.683  -1.111  0.00  0.00    +0.000 HD
ATOM     14  H   UNL     1       1.451   0.694  -0.067  0.00  0.00    +0.000 HD
ENDBRANCH   2  11
ENDBRANCH   1   6
BRANCH   1  15
ATOM     15  C   UNL     1       6.283   2.943   6.374  0.00  0.00    +0.000 A 
ATOM     16  C   UNL     1       6.265   4.342   6.418  0.00  0.00    +0.000 A 
ATOM     17  C   UNL     1       7.009   5.024   7.379  0.00  0.00    +0.000 A 
ATOM     18  C   UNL     1       7.748   4.312   8.313  0.00  0.00    +0.000 A 
ATOM     19  C   UNL     1       7.789   2.913   8.309  0.00  0.00    +0.000 A 
ATOM     20  C   UNL     1       7.091   2.247   7.284  0.00  0.00    +0.000 A 
BRANCH  19  21
ATOM     21  N   UNL     1       8.437   2.220   9.311  0.00  0.00    +0.000 N 
ATOM     22  C   UNL     1       9.054   0.933   9.023  0.00  0.00    +0.000 C 
ATOM     23  C   UNL     1      10.540   1.013   9.342  0.00  0.00    +0.000 C 
ATOM     24  C   UNL     1      10.788   1.518  10.762  0.00  0.00    +0.000 C 
ATOM     25  C   UNL     1      10.055   2.829  11.048  0.00  0.00    +0.000 C 
ATOM     26  C   UNL     1       8.581   2.765  10.660  0.00  0.00    +0.000 C 
BRANCH  24  27
ATOM     27  O   UNL     1      10.431   0.519  11.717  0.00  0.00    +0.000 OA
ATOM     28  H   UNL     1       9.479   0.337  11.642  0.00  0.00    +0.000 HD
ENDBRANCH  24  27
ENDBRANCH  19  21
ENDBRANCH   1  15
TORSDOF 5
