REMARK  Name = 
REMARK  7 active torsions:
REMARK  status: ('A' for Active; 'I' for Inactive)
REMARK    1  A    between atoms: C_2  and  C_4
REMARK    2  A    between atoms: C_7  and  N_8
REMARK    3  A    between atoms: N_8  and  C_9
REMARK    4  A    between atoms: C_9  and  C_10
REMARK    5  A    between atoms: C_10  and  C_13
REMARK    6  A    between atoms: C_17  and  O_18
REMARK    7  A    between atoms: O_18  and  C_19
REMARK                            x       y       z     vdW  Elec       q    Type
REMARK                         _______ _______ _______ _____ _____    ______ ____
ROOT
ATOM      1  C   UNL     1       6.145  -4.420  -3.249  0.00  0.00    +0.000 C 
ENDROOT
BRANCH   1   2
ATOM      2  C   UNL     1       6.746  -5.290  -4.383  0.00  0.00    +0.000 C 
ATOM      3  F   UNL     1       5.749  -6.003  -4.983  0.00  0.00    +0.000 F 
ATOM      4  F   UNL     1       7.229  -4.457  -5.355  0.00  0.00    +0.000 F 
BRANCH   2   5
ATOM      5  C   UNL     1       7.820  -6.182  -3.792  0.00  0.00    +0.000 A 
ATOM      6  C   UNL     1       9.151  -5.749  -3.719  0.00  0.00    +0.000 A 
ATOM      7  C   UNL     1      10.100  -6.510  -3.034  0.00  0.00    +0.000 A 
ATOM      8  C   UNL     1       9.734  -7.714  -2.425  0.00  0.00    +0.000 A 
ATOM      9  C   UNL     1       8.423  -8.171  -2.528  0.00  0.00    +0.000 A 
ATOM     10  C   UNL     1       7.471  -7.407  -3.205  0.00  0.00    +0.000 A 
BRANCH   9  11
ATOM     11  O   UNL     1       7.943  -9.323  -1.957  0.00  0.00    +0.000 OA
BRANCH  11  12
ATOM     12  C   UNL     1       8.870 -10.389  -1.654  0.00  0.00    +0.000 C 
ATOM     13  C   UNL     1       9.524 -11.133  -2.826  0.00  0.00    +0.000 C 
ATOM     14  O   UNL     1       9.014 -12.408  -2.371  0.00  0.00    +0.000 OA
ATOM     15  C   UNL     1       8.222 -11.748  -1.357  0.00  0.00    +0.000 C 
ENDBRANCH  11  12
ENDBRANCH   9  11
ENDBRANCH   2   5
ENDBRANCH   1   2
BRANCH   1  16
ATOM     16  N   UNL     1       5.085  -3.497  -3.695  0.00  0.00    +0.000 N 
ATOM     17  H   UNL     1       5.222  -3.126  -4.633  0.00  0.00    +0.000 HD
BRANCH  16  21
ATOM     18  C   UNL     1       3.059  -0.932  -1.017  0.00  0.00    +0.000 A 
ATOM     19  C   UNL     1       2.857  -0.849  -2.399  0.00  0.00    +0.000 A 
ATOM     20  C   UNL     1       3.582  -1.678  -3.264  0.00  0.00    +0.000 A 
ATOM     21  C   UNL     1       4.526  -2.595  -2.781  0.00  0.00    +0.000 A 
ATOM     22  C   UNL     1       4.720  -2.637  -1.385  0.00  0.00    +0.000 A 
ATOM     23  F   UNL     1       5.601  -3.486  -0.836  0.00  0.00    +0.000 F 
ATOM     24  C   UNL     1       4.016  -1.808  -0.513  0.00  0.00    +0.000 A 
BRANCH  18  26
ATOM     25  N   UNL     1       0.990   0.196  -0.427  0.00  0.00    +0.000 N 
ATOM     26  C   UNL     1       2.266  -0.130  -0.054  0.00  0.00    +0.000 C 
ATOM     27  O   UNL     1       2.703   0.177   1.045  0.00  0.00    +0.000 OA
ATOM     28  H   UNL     1       0.412   0.613   0.292  0.00  0.00    +0.000 HD
ATOM     29  H   UNL     1       0.519  -0.265  -1.192  0.00  0.00    +0.000 HD
ENDBRANCH  18  26
ENDBRANCH  16  21
ENDBRANCH   1  16
TORSDOF 7
