REMARK  Name = 
REMARK  7 active torsions:
REMARK  status: ('A' for Active; 'I' for Inactive)
REMARK    1  A    between atoms: C_1  and  O_2
REMARK    2  A    between atoms: O_2  and  C_3
REMARK    3  A    between atoms: C_6  and  C_7
REMARK    4  A    between atoms: C_7  and  C_8
REMARK    5  A    between atoms: C_7  and  N_9
REMARK    6  A    between atoms: N_9  and  C_10
REMARK    7  A    between atoms: C_13  and  C_14
REMARK                            x       y       z     vdW  Elec       q    Type
REMARK                         _______ _______ _______ _____ _____    ______ ____
ROOT
ATOM      1  N   UNL     1       4.892  -3.933   4.465  0.00  0.00    +0.000 N 
ATOM      2  H   UNL     1       4.235  -4.305   3.780  0.00  0.00    +0.000 HD
ENDROOT
BRANCH   1   3
ATOM      3  C   UNL     1       5.695  -4.953   4.991  0.00  0.00    +0.000 A 
ATOM      4  C   UNL     1       6.900  -4.739   5.664  0.00  0.00    +0.000 A 
ATOM      5  C   UNL     1       7.581  -5.802   6.266  0.00  0.00    +0.000 A 
ATOM      6  C   UNL     1       7.031  -7.073   6.196  0.00  0.00    +0.000 A 
ATOM      7  N   UNL     1       5.861  -7.346   5.564  0.00  0.00    +0.000 NA
ATOM      8  C   UNL     1       5.230  -6.280   5.006  0.00  0.00    +0.000 A 
BRANCH   6   9
ATOM      9  C   UNL     1       7.729  -8.220   6.867  0.00  0.00    +0.000 C 
ATOM     10  N   UNL     1       7.123  -9.438   6.751  0.00  0.00    +0.000 N 
ATOM     11  O   UNL     1       8.772  -8.077   7.493  0.00  0.00    +0.000 OA
ATOM     12  H   UNL     1       6.243  -9.519   6.254  0.00  0.00    +0.000 HD
ATOM     13  H   UNL     1       7.519 -10.235   7.230  0.00  0.00    +0.000 HD
ENDBRANCH   6   9
ENDBRANCH   1   3
BRANCH   1  14
ATOM     14  C   UNL     1       5.456  -2.648   4.026  0.00  0.00    +0.000 C 
ATOM     15  C   UNL     1       5.541  -1.634   5.170  0.00  0.00    +0.000 C 
BRANCH  14  19
ATOM     16  C   UNL     1       3.231  -0.991   0.777  0.00  0.00    +0.000 A 
ATOM     17  C   UNL     1       2.575  -1.112   1.991  0.00  0.00    +0.000 A 
ATOM     18  C   UNL     1       3.269  -1.666   3.070  0.00  0.00    +0.000 A 
ATOM     19  C   UNL     1       4.600  -2.080   2.907  0.00  0.00    +0.000 A 
ATOM     20  C   UNL     1       5.153  -1.919   1.640  0.00  0.00    +0.000 A 
ATOM     21  N   UNL     1       4.506  -1.389   0.582  0.00  0.00    +0.000 NA
BRANCH  16  23
ATOM     22  C   UNL     1       3.318  -0.331  -1.458  0.00  0.00    +0.000 C 
ATOM     23  O   UNL     1       2.527  -0.440  -0.274  0.00  0.00    +0.000 OA
ENDBRANCH  16  23
ENDBRANCH  14  19
ENDBRANCH   1  14
TORSDOF 5
