REMARK  Name = 
REMARK  5 active torsions:
REMARK  status: ('A' for Active; 'I' for Inactive)
REMARK    1  A    between atoms: C_2  and  C_3
REMARK    2  A    between atoms: C_6  and  N_7
REMARK    3  A    between atoms: N_7  and  C_8
REMARK    4  A    between atoms: C_8  and  C_9
REMARK    5  A    between atoms: C_13  and  C_14
REMARK                            x       y       z     vdW  Elec       q    Type
REMARK                         _______ _______ _______ _____ _____    ______ ____
ROOT
ATOM      1  C   UNL     1       4.522  -1.053   0.205  0.00  0.00    +0.000 C 
ATOM      2  C   UNL     1       4.806  -2.133  -0.838  0.00  0.00    +0.000 C 
ATOM      3  C   UNL     1       4.243  -2.523   0.486  0.00  0.00    +0.000 C 
ENDROOT
BRANCH   1   4
ATOM      4  C   UNL     1       5.714  -0.459   0.935  0.00  0.00    +0.000 A 
ATOM      5  C   UNL     1       6.750   0.207   0.280  0.00  0.00    +0.000 A 
ATOM      6  N   UNL     1       7.914   0.594   0.860  0.00  0.00    +0.000 NA
ATOM      7  C   UNL     1       8.073   0.289   2.171  0.00  0.00    +0.000 A 
ATOM      8  C   UNL     1       7.109  -0.345   2.936  0.00  0.00    +0.000 A 
ATOM      9  C   UNL     1       5.907  -0.677   2.308  0.00  0.00    +0.000 A 
BRANCH   8  10
ATOM     10  C   UNL     1       7.298  -0.751   4.348  0.00  0.00    +0.000 C 
ATOM     11  N   UNL     1       8.555  -0.723   4.881  0.00  0.00    +0.000 N 
ATOM     12  O   UNL     1       6.359  -1.167   5.018  0.00  0.00    +0.000 OA
ATOM     13  H   UNL     1       9.403  -0.549   4.363  0.00  0.00    +0.000 HD
ATOM     14  H   UNL     1       8.652  -1.120   5.808  0.00  0.00    +0.000 HD
ENDBRANCH   8  10
ENDBRANCH   1   4
BRANCH   1  15
ATOM     15  N   UNL     1       3.483  -0.109  -0.214  0.00  0.00    +0.000 N 
ATOM     16  H   UNL     1       3.727   0.602  -0.898  0.00  0.00    +0.000 HD
BRANCH  15  20
ATOM     17  C   UNL     1      -0.175   0.823   1.683  0.00  0.00    +0.000 A 
ATOM     18  C   UNL     1       0.948   0.520   2.462  0.00  0.00    +0.000 A 
ATOM     19  C   UNL     1       2.169   0.185   1.854  0.00  0.00    +0.000 A 
ATOM     20  C   UNL     1       2.292   0.188   0.463  0.00  0.00    +0.000 A 
ATOM     21  C   UNL     1       1.159   0.494  -0.307  0.00  0.00    +0.000 A 
ATOM     22  C   UNL     1      -0.071   0.794   0.292  0.00  0.00    +0.000 A 
BRANCH  17  24
ATOM     23  N   UNL     1      -2.441   1.417   2.802  0.00  0.00    +0.000 NA
ATOM     24  C   UNL     1      -1.426   1.143   2.309  0.00  0.00    +0.000 C 
ENDBRANCH  17  24
ENDBRANCH  15  20
ENDBRANCH   1  15
TORSDOF 5
