REMARK  Name = 
REMARK  7 active torsions:
REMARK  status: ('A' for Active; 'I' for Inactive)
REMARK    1  A    between atoms: C_1  and  C_2
REMARK    2  A    between atoms: C_6  and  C_7
REMARK    3  A    between atoms: C_7  and  O_8
REMARK    4  A    between atoms: O_8  and  C_9
REMARK    5  A    between atoms: C_12  and  C_13
REMARK    6  A    between atoms: C_13  and  N_14
REMARK    7  A    between atoms: C_15  and  C_17
REMARK                            x       y       z     vdW  Elec       q    Type
REMARK                         _______ _______ _______ _____ _____    ______ ____
ROOT
ATOM      1  C   UNL     1      -6.868  -6.718   0.036  0.00  0.00    +0.000 C 
ENDROOT
BRANCH   1   5
ATOM      2  C   UNL     1      -4.205  -3.333  -0.114  0.00  0.00    +0.000 A 
ATOM      3  C   UNL     1      -3.955  -4.373   0.783  0.00  0.00    +0.000 A 
ATOM      4  C   UNL     1      -4.819  -5.470   0.848  0.00  0.00    +0.000 A 
ATOM      5  C   UNL     1      -5.944  -5.533   0.015  0.00  0.00    +0.000 A 
ATOM      6  C   UNL     1      -6.223  -4.453  -0.830  0.00  0.00    +0.000 A 
ATOM      7  C   UNL     1      -5.362  -3.359  -0.892  0.00  0.00    +0.000 A 
BRANCH   2   8
ATOM      8  O   UNL     1      -3.263  -2.340  -0.157  0.00  0.00    +0.000 OA
BRANCH   8   9
ATOM      9  C   UNL     1      -3.215  -1.616  -1.391  0.00  0.00    +0.000 C 
BRANCH   9  15
ATOM     10  C   UNL     1       1.800  -1.910  -1.523  0.00  0.00    +0.000 C 
ATOM     11  C   UNL     1       0.555  -1.080  -1.622  0.00  0.00    +0.000 A 
ATOM     12  C   UNL     1       0.616   0.291  -1.890  0.00  0.00    +0.000 A 
ATOM     13  C   UNL     1      -0.555   1.045  -1.983  0.00  0.00    +0.000 A 
ATOM     14  C   UNL     1      -1.797   0.435  -1.808  0.00  0.00    +0.000 A 
ATOM     15  C   UNL     1      -1.878  -0.935  -1.531  0.00  0.00    +0.000 A 
ATOM     16  C   UNL     1      -0.696  -1.685  -1.449  0.00  0.00    +0.000 A 
ENDBRANCH   9  15
ENDBRANCH   8   9
ENDBRANCH   2   8
ENDBRANCH   1   5
BRANCH   1  17
ATOM     17  N   UNL     1      -7.955  -6.520   0.958  0.00  0.00    +0.000 N 
ATOM     18  C   UNL     1      -8.882  -7.510   1.157  0.00  0.00    +0.000 C 
ATOM     19  O   UNL     1      -8.791  -8.602   0.599  0.00  0.00    +0.000 OA
ATOM     20  H   UNL     1      -8.157  -5.570   1.254  0.00  0.00    +0.000 HD
BRANCH  18  21
ATOM     21  C   UNL     1      -9.961  -7.230   2.109  0.00  0.00    +0.000 A 
ATOM     22  C   UNL     1     -10.619  -8.289   2.719  0.00  0.00    +0.000 A 
ATOM     23  S   UNL     1     -11.836  -7.805   3.808  0.00  0.00    +0.000 S 
ATOM     24  C   UNL     1     -11.557  -6.160   3.471  0.00  0.00    +0.000 A 
ATOM     25  N   UNL     1     -12.310  -5.192   4.059  0.00  0.00    +0.000 NA
ATOM     26  C   UNL     1     -12.010  -3.990   3.694  0.00  0.00    +0.000 A 
ATOM     27  N   UNL     1     -11.015  -3.669   2.805  0.00  0.00    +0.000 N 
ATOM     28  C   UNL     1     -10.212  -4.612   2.207  0.00  0.00    +0.000 A 
ATOM     29  O   UNL     1      -9.304  -4.288   1.449  0.00  0.00    +0.000 OA
ATOM     30  C   UNL     1     -10.527  -5.982   2.565  0.00  0.00    +0.000 A 
ATOM     31  H   UNL     1     -10.822  -2.706   2.576  0.00  0.00    +0.000 HD
ENDBRANCH  18  21
ENDBRANCH   1  17
TORSDOF 6
