REMARK  Name = 
REMARK  6 active torsions:
REMARK  status: ('A' for Active; 'I' for Inactive)
REMARK    1  A    between atoms: C_2  and  C_18
REMARK    2  A    between atoms: N_3  and  C_4
REMARK    3  A    between atoms: C_4  and  C_5
REMARK    4  A    between atoms: C_8  and  C_9
REMARK    5  A    between atoms: C_9  and  N_10
REMARK    6  A    between atoms: C_13  and  O_14
REMARK                            x       y       z     vdW  Elec       q    Type
REMARK                         _______ _______ _______ _____ _____    ______ ____
ROOT
ATOM      1  O   UNL     1       0.280   2.463  -2.337  0.00  0.00    +0.000 OA
ATOM      2  C   UNL     1       0.077   1.335  -2.779  0.00  0.00    +0.000 C 
ATOM      3  N   UNL     1       1.003   0.327  -2.698  0.00  0.00    +0.000 N 
ATOM      4  H   UNL     1       0.856  -0.513  -3.245  0.00  0.00    +0.000 HD
ENDROOT
BRANCH   2   5
ATOM      5  C   UNL     1      -1.198   0.971  -3.400  0.00  0.00    +0.000 A 
ATOM      6  C   UNL     1      -2.360   1.647  -3.066  0.00  0.00    +0.000 A 
ATOM      7  S   UNL     1      -3.742   1.060  -3.882  0.00  0.00    +0.000 S 
ATOM      8  C   UNL     1      -2.821  -0.089  -4.733  0.00  0.00    +0.000 A 
ATOM      9  N   UNL     1      -3.398  -0.929  -5.635  0.00  0.00    +0.000 NA
ATOM     10  C   UNL     1      -2.572  -1.723  -6.227  0.00  0.00    +0.000 A 
ATOM     11  N   UNL     1      -1.222  -1.762  -6.005  0.00  0.00    +0.000 N 
ATOM     12  C   UNL     1      -0.607  -0.987  -5.052  0.00  0.00    +0.000 A 
ATOM     13  O   UNL     1       0.579  -1.150  -4.773  0.00  0.00    +0.000 OA
ATOM     14  C   UNL     1      -1.482  -0.043  -4.385  0.00  0.00    +0.000 A 
ATOM     15  H   UNL     1      -0.631  -2.430  -6.474  0.00  0.00    +0.000 HD
ENDBRANCH   2   5
BRANCH   3  16
ATOM     16  C   UNL     1       2.347   0.537  -2.231  0.00  0.00    +0.000 C 
BRANCH  16  17
ATOM     17  C   UNL     1       3.257   0.965  -3.341  0.00  0.00    +0.000 A 
ATOM     18  C   UNL     1       3.384   2.309  -3.689  0.00  0.00    +0.000 A 
ATOM     19  C   UNL     1       4.254   2.686  -4.711  0.00  0.00    +0.000 A 
ATOM     20  C   UNL     1       4.983   1.702  -5.377  0.00  0.00    +0.000 A 
ATOM     21  N   UNL     1       4.850   0.384  -5.068  0.00  0.00    +0.000 NA
ATOM     22  C   UNL     1       3.992   0.048  -4.076  0.00  0.00    +0.000 A 
BRANCH  20  23
ATOM     23  C   UNL     1       5.943   2.127  -6.494  0.00  0.00    +0.000 C 
BRANCH  23  24
ATOM     24  N   UNL     1       6.721   1.091  -7.203  0.00  0.00    +0.000 NA
ATOM     25  C   UNL     1       5.888   0.092  -7.877  0.00  0.00    +0.000 C 
ATOM     26  C   UNL     1       6.465  -1.280  -7.550  0.00  0.00    +0.000 C 
ATOM     27  C   UNL     1       7.810  -1.004  -6.906  0.00  0.00    +0.000 C 
ATOM     28  C   UNL     1       7.691   0.406  -6.337  0.00  0.00    +0.000 C 
BRANCH  27  29
ATOM     29  O   UNL     1       8.837  -1.073  -7.895  0.00  0.00    +0.000 OA
ATOM     30  H   UNL     1       8.693  -0.308  -8.488  0.00  0.00    +0.000 HD
ENDBRANCH  27  29
ENDBRANCH  23  24
ENDBRANCH  20  23
ENDBRANCH  16  17
ENDBRANCH   3  16
TORSDOF 6
