REMARK  Name = 
REMARK  9 active torsions:
REMARK  status: ('A' for Active; 'I' for Inactive)
REMARK    1  A    between atoms: C_1  and  O_2
REMARK    2  A    between atoms: O_2  and  C_3
REMARK    3  A    between atoms: C_10  and  C_11
REMARK    4  A    between atoms: N_13  and  C_14
REMARK    5  A    between atoms: C_14  and  C_15
REMARK    6  A    between atoms: C_18  and  C_19
REMARK    7  A    between atoms: C_19  and  N_20
REMARK    8  A    between atoms: N_20  and  C_21
REMARK    9  A    between atoms: C_21  and  C_22
REMARK                            x       y       z     vdW  Elec       q    Type
REMARK                         _______ _______ _______ _____ _____    ______ ____
ROOT
ATOM      1  C   UNL     1       3.031  -1.360   3.094  0.00  0.00    +0.000 C 
ENDROOT
BRANCH   1   2
ATOM      2  C   UNL     1       1.882  -0.425   3.392  0.00  0.00    +0.000 A 
ATOM      3  C   UNL     1       0.623  -0.927   3.745  0.00  0.00    +0.000 A 
ATOM      4  C   UNL     1      -0.444  -0.061   4.025  0.00  0.00    +0.000 A 
ATOM      5  C   UNL     1      -0.278   1.331   3.956  0.00  0.00    +0.000 A 
ATOM      6  C   UNL     1       0.974   1.830   3.569  0.00  0.00    +0.000 A 
ATOM      7  C   UNL     1       2.038   0.964   3.284  0.00  0.00    +0.000 A 
BRANCH   5   8
ATOM      8  C   UNL     1      -1.424   2.276   4.273  0.00  0.00    +0.000 C 
BRANCH   8   9
ATOM      9  N   UNL     1      -1.905   2.093   5.644  0.00  0.00    +0.000 NA
ATOM     10  H   UNL     1      -1.129   2.266   6.283  0.00  0.00    +0.000 HD
BRANCH   9  11
ATOM     11  C   UNL     1      -2.997   3.010   5.978  0.00  0.00    +0.000 C 
BRANCH  11  12
ATOM     12  C   UNL     1      -3.460   2.812   7.404  0.00  0.00    +0.000 A 
ATOM     13  C   UNL     1      -3.389   3.859   8.332  0.00  0.00    +0.000 A 
ATOM     14  C   UNL     1      -3.821   3.634   9.633  0.00  0.00    +0.000 A 
ATOM     15  N   UNL     1      -4.312   2.455  10.071  0.00  0.00    +0.000 NA
ATOM     16  C   UNL     1      -4.379   1.458   9.163  0.00  0.00    +0.000 A 
ATOM     17  C   UNL     1      -3.980   1.588   7.840  0.00  0.00    +0.000 A 
ENDBRANCH  11  12
ENDBRANCH   9  11
ENDBRANCH   8   9
ENDBRANCH   5   8
ENDBRANCH   1   2
BRANCH   1  20
ATOM     18  C   UNL     1       3.997  -2.562   1.166  0.00  0.00    +0.000 C 
ATOM     19  O   UNL     1       4.867  -3.080   1.862  0.00  0.00    +0.000 OA
ATOM     20  N   UNL     1       3.066  -1.714   1.698  0.00  0.00    +0.000 N 
ATOM     21  H   UNL     1       2.394  -1.262   1.096  0.00  0.00    +0.000 HD
BRANCH  18  29
ATOM     22  C   UNL     1       1.819  -1.532  -1.291  0.00  0.00    +0.000 A 
ATOM     23  N   UNL     1       1.126  -1.292  -2.416  0.00  0.00    +0.000 NA
ATOM     24  C   UNL     1       1.539  -1.877  -3.541  0.00  0.00    +0.000 A 
ATOM     25  N   UNL     1       2.582  -2.689  -3.686  0.00  0.00    +0.000 NA
ATOM     26  C   UNL     1       3.252  -2.896  -2.540  0.00  0.00    +0.000 A 
ATOM     27  S   UNL     1       4.621  -3.901  -2.535  0.00  0.00    +0.000 S 
ATOM     28  C   UNL     1       4.853  -3.665  -0.868  0.00  0.00    +0.000 A 
ATOM     29  C   UNL     1       3.909  -2.828  -0.282  0.00  0.00    +0.000 A 
ATOM     30  C   UNL     1       2.955  -2.364  -1.288  0.00  0.00    +0.000 A 
BRANCH  22  32
ATOM     31  C   UNL     1       0.025  -0.563  -0.151  0.00  0.00    +0.000 C 
ATOM     32  O   UNL     1       1.413  -0.886  -0.139  0.00  0.00    +0.000 OA
ENDBRANCH  22  32
ENDBRANCH  18  29
ENDBRANCH   1  20
TORSDOF 8
