REMARK  Name = 
REMARK  6 active torsions:
REMARK  status: ('A' for Active; 'I' for Inactive)
REMARK    1  A    between atoms: N_1  and  C_2
REMARK    2  A    between atoms: C_2  and  C_3
REMARK    3  A    between atoms: C_6  and  O_7
REMARK    4  A    between atoms: O_7  and  C_8
REMARK    5  A    between atoms: C_8  and  C_9
REMARK    6  A    between atoms: C_13  and  C_14
REMARK                            x       y       z     vdW  Elec       q    Type
REMARK                         _______ _______ _______ _____ _____    ______ ____
ROOT
ATOM      1  C   UNL     1       4.773   0.694  -6.042  0.00  0.00    +0.000 C 
ENDROOT
BRANCH   1   2
ATOM      2  C   UNL     1       4.679   0.317  -7.495  0.00  0.00    +0.000 A 
ATOM      3  C   UNL     1       3.813  -0.672  -7.946  0.00  0.00    +0.000 A 
ATOM      4  N   UNL     1       3.643  -0.992  -9.249  0.00  0.00    +0.000 NA
ATOM      5  C   UNL     1       4.366  -0.283 -10.152  0.00  0.00    +0.000 A 
ATOM      6  C   UNL     1       5.248   0.734  -9.819  0.00  0.00    +0.000 A 
ATOM      7  C   UNL     1       5.396   1.035  -8.461  0.00  0.00    +0.000 A 
BRANCH   6   8
ATOM      8  C   UNL     1       6.018   1.516 -10.818  0.00  0.00    +0.000 C 
ATOM      9  N   UNL     1       5.877   1.224 -12.145  0.00  0.00    +0.000 N 
ATOM     10  O   UNL     1       6.770   2.419 -10.466  0.00  0.00    +0.000 OA
ATOM     11  H   UNL     1       5.292   0.503 -12.538  0.00  0.00    +0.000 HD
ATOM     12  H   UNL     1       6.423   1.782 -12.790  0.00  0.00    +0.000 HD
ENDBRANCH   6   8
ENDBRANCH   1   2
BRANCH   1  13
ATOM     13  O   UNL     1       4.439  -0.416  -5.202  0.00  0.00    +0.000 OA
BRANCH  13  17
ATOM     14  C   UNL     1       3.024   0.477  -1.372  0.00  0.00    +0.000 A 
ATOM     15  C   UNL     1       2.722  -0.732  -2.014  0.00  0.00    +0.000 A 
ATOM     16  C   UNL     1       3.233  -1.011  -3.285  0.00  0.00    +0.000 A 
ATOM     17  C   UNL     1       4.041  -0.078  -3.936  0.00  0.00    +0.000 A 
ATOM     18  C   UNL     1       4.389   1.104  -3.283  0.00  0.00    +0.000 A 
ATOM     19  C   UNL     1       3.875   1.384  -2.015  0.00  0.00    +0.000 A 
BRANCH  14  20
ATOM     20  C   UNL     1       2.433   0.811  -0.028  0.00  0.00    +0.000 C 
BRANCH  20  21
ATOM     21  N   UNL     1       2.858  -0.133   0.996  0.00  0.00    +0.000 NA
ATOM     22  H   UNL     1       2.522   0.187   1.902  0.00  0.00    +0.000 HD
ATOM     23  H   UNL     1       3.876  -0.126   1.047  0.00  0.00    +0.000 HD
ENDBRANCH  20  21
ENDBRANCH  14  20
ENDBRANCH  13  17
ENDBRANCH   1  13
TORSDOF 6
