REMARK  Name = 
REMARK  9 active torsions:
REMARK  status: ('A' for Active; 'I' for Inactive)
REMARK    1  A    between atoms: C_1  and  O_2
REMARK    2  A    between atoms: O_2  and  C_3
REMARK    3  A    between atoms: C_5  and  C_6
REMARK    4  A    between atoms: C_11  and  O_12
REMARK    5  A    between atoms: O_12  and  C_13
REMARK    6  A    between atoms: C_13  and  C_14
REMARK    7  A    between atoms: C_19  and  C_20
REMARK    8  A    between atoms: C_24  and  O_25
REMARK    9  A    between atoms: O_25  and  C_26
REMARK                            x       y       z     vdW  Elec       q    Type
REMARK                         _______ _______ _______ _____ _____    ______ ____
ROOT
ATOM      1  C   UNL     1       4.440  -2.895  -2.035  0.00  0.00    +0.000 A 
ATOM      2  C   UNL     1       5.544  -2.881  -2.886  0.00  0.00    +0.000 A 
ATOM      3  C   UNL     1       6.008  -4.075  -3.434  0.00  0.00    +0.000 A 
ATOM      4  C   UNL     1       5.388  -5.296  -3.127  0.00  0.00    +0.000 A 
ATOM      5 CL   UNL     1       5.989  -6.669  -4.001  0.00  0.00    +0.000 Cl
ATOM      6  C   UNL     1       4.315  -5.362  -2.208  0.00  0.00    +0.000 A 
ATOM      7  C   UNL     1       3.853  -4.128  -1.700  0.00  0.00    +0.000 A 
ENDROOT
BRANCH   6   8
ATOM      8  C   UNL     1       3.679  -6.619  -1.720  0.00  0.00    +0.000 A 
ATOM      9  C   UNL     1       2.303  -6.698  -1.435  0.00  0.00    +0.000 A 
ATOM     10  C   UNL     1       1.723  -7.867  -0.928  0.00  0.00    +0.000 A 
ATOM     11  C   UNL     1       2.500  -9.006  -0.721  0.00  0.00    +0.000 A 
ATOM     12  C   UNL     1       3.866  -8.957  -0.978  0.00  0.00    +0.000 A 
ATOM     13  C   UNL     1       4.439  -7.769  -1.447  0.00  0.00    +0.000 A 
BRANCH  12  14
ATOM     14  O   UNL     1       4.749  -9.990  -0.849  0.00  0.00    +0.000 OA
BRANCH  14  15
ATOM     15  C   UNL     1       4.381 -11.020   0.046  0.00  0.00    +0.000 C 
ATOM     16  F   UNL     1       3.522 -11.863  -0.576  0.00  0.00    +0.000 F 
ATOM     17  F   UNL     1       5.503 -11.735   0.316  0.00  0.00    +0.000 F 
ENDBRANCH  14  15
ENDBRANCH  12  14
ENDBRANCH   6   8
BRANCH   1  18
ATOM     18  C   UNL     1       3.858  -1.613  -1.484  0.00  0.00    +0.000 C 
BRANCH  18  19
ATOM     19  O   UNL     1       4.785  -1.015  -0.587  0.00  0.00    +0.000 OA
BRANCH  19  25
ATOM     20  C   UNL     1       3.200   0.849  -0.053  0.00  0.00    +0.000 A 
ATOM     21  C   UNL     1       3.036   2.033   0.677  0.00  0.00    +0.000 A 
ATOM     22  C   UNL     1       4.058   2.546   1.494  0.00  0.00    +0.000 A 
ATOM     23  C   UNL     1       5.260   1.843   1.590  0.00  0.00    +0.000 A 
ATOM     24  C   UNL     1       5.427   0.656   0.867  0.00  0.00    +0.000 A 
ATOM     25  C   UNL     1       4.415   0.147   0.043  0.00  0.00    +0.000 A 
BRANCH  22  26
ATOM     26  C   UNL     1       3.777   3.821   2.213  0.00  0.00    +0.000 C 
ATOM     27  N   UNL     1       4.742   4.352   3.018  0.00  0.00    +0.000 N 
ATOM     28  O   UNL     1       2.702   4.403   2.087  0.00  0.00    +0.000 OA
ATOM     29  H   UNL     1       5.650   3.954   3.185  0.00  0.00    +0.000 HD
ATOM     30  H   UNL     1       4.510   5.221   3.485  0.00  0.00    +0.000 HD
ENDBRANCH  22  26
BRANCH  20  32
ATOM     31  C   UNL     1       1.194   1.220  -1.295  0.00  0.00    +0.000 C 
ATOM     32  O   UNL     1       2.186   0.322  -0.811  0.00  0.00    +0.000 OA
ENDBRANCH  20  32
ENDBRANCH  19  25
ENDBRANCH  18  19
ENDBRANCH   1  18
TORSDOF 8
