REMARK  Name = 
REMARK  7 active torsions:
REMARK  status: ('A' for Active; 'I' for Inactive)
REMARK    1  A    between atoms: C_1  and  C_2
REMARK    2  A    between atoms: C_2  and  C_3
REMARK    3  A    between atoms: C_2  and  C_14
REMARK    4  A    between atoms: C_3  and  N_4
REMARK    5  A    between atoms: N_4  and  C_5
REMARK    6  A    between atoms: C_8  and  C_9
REMARK    7  A    between atoms: C_18  and  C_19
REMARK                            x       y       z     vdW  Elec       q    Type
REMARK                         _______ _______ _______ _____ _____    ______ ____
ROOT
ATOM      1  N   UNL     1       2.404  -1.662   1.689  0.00  0.00    +0.000 N 
ATOM      2  H   UNL     1       2.212  -0.806   2.208  0.00  0.00    +0.000 HD
ENDROOT
BRANCH   1   3
ATOM      3  C   UNL     1       2.903  -2.673   2.520  0.00  0.00    +0.000 A 
ATOM      4  C   UNL     1       3.895  -3.583   2.131  0.00  0.00    +0.000 A 
ATOM      5  C   UNL     1       4.315  -4.614   2.979  0.00  0.00    +0.000 A 
ATOM      6  C   UNL     1       3.728  -4.780   4.235  0.00  0.00    +0.000 A 
ATOM      7  C   UNL     1       2.707  -3.908   4.627  0.00  0.00    +0.000 A 
ATOM      8  C   UNL     1       2.301  -2.874   3.773  0.00  0.00    +0.000 A 
BRANCH   6   9
ATOM      9  C   UNL     1       4.195  -5.910   5.081  0.00  0.00    +0.000 C 
ATOM     10  N   UNL     1       4.025  -5.799   6.434  0.00  0.00    +0.000 N 
ATOM     11  O   UNL     1       4.742  -6.891   4.598  0.00  0.00    +0.000 OA
ATOM     12  H   UNL     1       3.777  -4.934   6.890  0.00  0.00    +0.000 HD
ATOM     13  H   UNL     1       4.440  -6.531   6.996  0.00  0.00    +0.000 HD
ENDBRANCH   6   9
ENDBRANCH   1   3
BRANCH   1  14
ATOM     14  C   UNL     1       3.033  -1.436   0.398  0.00  0.00    +0.000 C 
BRANCH  14  16
ATOM     15  C   UNL     1       0.937  -0.303  -0.610  0.00  0.00    +0.000 C 
ATOM     16  C   UNL     1       2.403  -0.260  -0.299  0.00  0.00    +0.000 C 
BRANCH  16  17
ATOM     17  C   UNL     1       3.289   0.571  -1.142  0.00  0.00    +0.000 A 
ATOM     18  C   UNL     1       3.016   0.779  -2.502  0.00  0.00    +0.000 A 
ATOM     19  C   UNL     1       3.891   1.515  -3.305  0.00  0.00    +0.000 A 
ATOM     20  C   UNL     1       5.046   2.067  -2.754  0.00  0.00    +0.000 A 
ATOM     21  C   UNL     1       5.322   1.889  -1.396  0.00  0.00    +0.000 A 
ATOM     22  C   UNL     1       4.447   1.141  -0.597  0.00  0.00    +0.000 A 
BRANCH  21  23
ATOM     23  C   UNL     1       6.501   2.466  -0.820  0.00  0.00    +0.000 C 
ATOM     24  N   UNL     1       7.454   2.935  -0.350  0.00  0.00    +0.000 NA
ENDBRANCH  21  23
ENDBRANCH  16  17
ENDBRANCH  14  16
ENDBRANCH   1  14
TORSDOF 6
