REMARK  Name = 
REMARK  7 active torsions:
REMARK  status: ('A' for Active; 'I' for Inactive)
REMARK    1  A    between atoms: C_1  and  C_2
REMARK    2  A    between atoms: C_2  and  C_3
REMARK    3  A    between atoms: C_5  and  N_6
REMARK    4  A    between atoms: C_11  and  C_12
REMARK    5  A    between atoms: C_13  and  N_14
REMARK    6  A    between atoms: N_14  and  C_15
REMARK    7  A    between atoms: C_18  and  C_19
REMARK                            x       y       z     vdW  Elec       q    Type
REMARK                         _______ _______ _______ _____ _____    ______ ____
ROOT
ATOM      1  C   UNL     1      -4.412   0.570   4.594  0.00  0.00    +0.000 C 
ATOM      2  C   UNL     1      -3.186   0.750   5.110  0.00  0.00    +0.000 C 
ENDROOT
BRANCH   1   8
ATOM      3  N   UNL     1      -2.790   1.046   0.145  0.00  0.00    +0.000 N 
ATOM      4  C   UNL     1      -3.852   0.782   1.011  0.00  0.00    +0.000 A 
ATOM      5  N   UNL     1      -5.039   0.517   0.459  0.00  0.00    +0.000 NA
ATOM      6  C   UNL     1      -6.077   0.355   1.297  0.00  0.00    +0.000 A 
ATOM      7  C   UNL     1      -5.955   0.372   2.664  0.00  0.00    +0.000 A 
ATOM      8  C   UNL     1      -4.687   0.593   3.148  0.00  0.00    +0.000 A 
ATOM      9  N   UNL     1      -3.638   0.828   2.331  0.00  0.00    +0.000 NA
ATOM     10  H   UNL     1      -2.598   0.172  -0.334  0.00  0.00    +0.000 HD
BRANCH   3  15
ATOM     11  C   UNL     1       0.558   3.857   0.925  0.00  0.00    +0.000 C 
ATOM     12  C   UNL     1      -0.721   3.666   0.112  0.00  0.00    +0.000 C 
ATOM     13  C   UNL     1      -1.008   4.870  -0.780  0.00  0.00    +0.000 C 
ATOM     14  C   UNL     1      -1.936   3.214   0.964  0.00  0.00    +0.000 C 
ATOM     15  C   UNL     1      -1.621   1.748   0.570  0.00  0.00    +0.000 C 
ATOM     16  C   UNL     1      -0.816   2.300  -0.627  0.00  0.00    +0.000 C 
ENDBRANCH   3  15
ENDBRANCH   1   8
BRANCH   2  17
ATOM     17  N   UNL     1      -2.815   0.698   6.430  0.00  0.00    +0.000 N 
ATOM     18  H   UNL     1      -3.524   0.400   7.092  0.00  0.00    +0.000 HD
BRANCH  17  19
ATOM     19  C   UNL     1      -1.528   0.916   6.950  0.00  0.00    +0.000 A 
ATOM     20  C   UNL     1      -0.584   1.722   6.304  0.00  0.00    +0.000 A 
ATOM     21  C   UNL     1       0.723   1.843   6.797  0.00  0.00    +0.000 A 
ATOM     22  C   UNL     1       1.110   1.147   7.942  0.00  0.00    +0.000 A 
ATOM     23  C   UNL     1       0.184   0.326   8.593  0.00  0.00    +0.000 A 
ATOM     24  C   UNL     1      -1.126   0.217   8.097  0.00  0.00    +0.000 A 
BRANCH  22  25
ATOM     25  C   UNL     1       2.517   1.280   8.397  0.00  0.00    +0.000 C 
ATOM     26  N   UNL     1       2.782   1.033   9.716  0.00  0.00    +0.000 N 
ATOM     27  O   UNL     1       3.412   1.630   7.637  0.00  0.00    +0.000 OA
ATOM     28  H   UNL     1       2.060   0.981  10.422  0.00  0.00    +0.000 HD
ATOM     29  H   UNL     1       3.727   1.235  10.025  0.00  0.00    +0.000 HD
ENDBRANCH  22  25
ENDBRANCH  17  19
ENDBRANCH   2  17
TORSDOF 5
