REMARK  Name = 
REMARK  5 active torsions:
REMARK  status: ('A' for Active; 'I' for Inactive)
REMARK    1  A    between atoms: N_1  and  C_2
REMARK    2  A    between atoms: C_2  and  C_3
REMARK    3  A    between atoms: C_3  and  C_4
REMARK    4  A    between atoms: C_7  and  C_8
REMARK    5  A    between atoms: C_8  and  N_9
REMARK                            x       y       z     vdW  Elec       q    Type
REMARK                         _______ _______ _______ _____ _____    ______ ____
ROOT
ATOM      1  C   UNL     1       4.716  -1.415   0.378  0.00  0.00    +0.000 A 
ATOM      2  C   UNL     1       5.482  -1.446   1.550  0.00  0.00    +0.000 A 
ATOM      3  C   UNL     1       6.875  -1.496   1.486  0.00  0.00    +0.000 A 
ATOM      4  C   UNL     1       7.534  -1.513   0.246  0.00  0.00    +0.000 A 
ATOM      5  C   UNL     1       6.768  -1.480  -0.925  0.00  0.00    +0.000 A 
ATOM      6  C   UNL     1       5.373  -1.419  -0.859  0.00  0.00    +0.000 A 
ENDROOT
BRANCH   1   7
ATOM      7  C   UNL     1       3.208  -1.378   0.440  0.00  0.00    +0.000 C 
BRANCH   7   8
ATOM      8  C   UNL     1       2.650   0.049   0.476  0.00  0.00    +0.000 C 
BRANCH   8   9
ATOM      9  N   UNL     1       1.187   0.037   0.491  0.00  0.00    +0.000 NA
ATOM     10  H   UNL     1       0.841   0.995   0.546  0.00  0.00    +0.000 HD
ATOM     11  H   UNL     1       0.854  -0.433   1.331  0.00  0.00    +0.000 HD
ENDBRANCH   8   9
ENDBRANCH   7   8
ENDBRANCH   1   7
BRANCH   4  12
ATOM     12  C   UNL     1       9.039  -1.512   0.179  0.00  0.00    +0.000 C 
BRANCH  12  13
ATOM     13  N   UNL     1       9.665  -2.828   0.115  0.00  0.00    +0.000 N 
ATOM     14  C   UNL     1       9.395  -3.884   0.945  0.00  0.00    +0.000 A 
ATOM     15  N   UNL     1      10.395  -4.736   0.995  0.00  0.00    +0.000 NA
ATOM     16  C   UNL     1      11.341  -4.231   0.139  0.00  0.00    +0.000 A 
ATOM     17  C   UNL     1      12.642  -4.685  -0.123  0.00  0.00    +0.000 A 
ATOM     18  C   UNL     1      13.429  -3.986  -1.047  0.00  0.00    +0.000 A 
ATOM     19  C   UNL     1      12.915  -2.881  -1.728  0.00  0.00    +0.000 A 
ATOM     20  C   UNL     1      11.624  -2.406  -1.472  0.00  0.00    +0.000 A 
ATOM     21  C   UNL     1      10.875  -3.084  -0.501  0.00  0.00    +0.000 A 
ENDBRANCH  12  13
ENDBRANCH   4  12
TORSDOF 5
