REMARK  Name = 
REMARK  3 active torsions:
REMARK  status: ('A' for Active; 'I' for Inactive)
REMARK    1  A    between atoms: C_2  and  C_4
REMARK    2  A    between atoms: N_10  and  C_11
REMARK    3  A    between atoms: C_11  and  C_12
REMARK                            x       y       z     vdW  Elec       q    Type
REMARK                         _______ _______ _______ _____ _____    ______ ____
ROOT
ATOM      1  C   UNL     1       3.232  -0.880  -0.866  0.00  0.00    +0.000 A 
ATOM      2  C   UNL     1       2.796  -1.272  -2.125  0.00  0.00    +0.000 A 
ATOM      3  N   UNL     1       3.417  -2.167  -2.925  0.00  0.00    +0.000 NA
ATOM      4  C   UNL     1       4.553  -2.701  -2.411  0.00  0.00    +0.000 A 
ATOM      5  C   UNL     1       5.417  -3.652  -2.995  0.00  0.00    +0.000 A 
ATOM      6  C   UNL     1       6.421  -3.909  -2.088  0.00  0.00    +0.000 A 
ATOM      7  N   UNL     1       6.194  -3.139  -0.969  0.00  0.00    +0.000 N 
ATOM      8  C   UNL     1       5.064  -2.368  -1.154  0.00  0.00    +0.000 A 
ATOM      9  C   UNL     1       4.416  -1.418  -0.354  0.00  0.00    +0.000 A 
ENDROOT
BRANCH   1  11
ATOM     10  N   UNL     1       1.124   0.143  -0.204  0.00  0.00    +0.000 N 
ATOM     11  C   UNL     1       2.483   0.105  -0.055  0.00  0.00    +0.000 C 
ATOM     12  O   UNL     1       3.051   0.824   0.756  0.00  0.00    +0.000 OA
ATOM     13  H   UNL     1       0.624   0.743   0.442  0.00  0.00    +0.000 HD
ATOM     14  H   UNL     1       0.598  -0.600  -0.643  0.00  0.00    +0.000 HD
ENDBRANCH   1  11
BRANCH   7  15
ATOM     15  C   UNL     1       6.986  -3.227   0.255  0.00  0.00    +0.000 C 
BRANCH  15  16
ATOM     16  C   UNL     1       8.173  -2.310   0.212  0.00  0.00    +0.000 A 
ATOM     17  C   UNL     1       8.123  -1.043   0.792  0.00  0.00    +0.000 A 
ATOM     18  N   UNL     1       9.136  -0.147   0.747  0.00  0.00    +0.000 NA
ATOM     19  C   UNL     1      10.252  -0.525   0.082  0.00  0.00    +0.000 A 
ATOM     20  C   UNL     1      10.402  -1.765  -0.511  0.00  0.00    +0.000 A 
ATOM     21  F   UNL     1      11.533  -2.086  -1.150  0.00  0.00    +0.000 F 
ATOM     22  C   UNL     1       9.357  -2.673  -0.442  0.00  0.00    +0.000 A 
ENDBRANCH  15  16
ENDBRANCH   7  15
TORSDOF 3
