REMARK  Name = 
REMARK  7 active torsions:
REMARK  status: ('A' for Active; 'I' for Inactive)
REMARK    1  A    between atoms: C_1  and  N_2
REMARK    2  A    between atoms: C_4  and  C_5
REMARK    3  A    between atoms: N_7  and  C_8
REMARK    4  A    between atoms: C_8  and  C_9
REMARK    5  A    between atoms: C_12  and  C_13
REMARK    6  A    between atoms: C_13  and  N_14
REMARK    7  A    between atoms: C_15  and  C_17
REMARK                            x       y       z     vdW  Elec       q    Type
REMARK                         _______ _______ _______ _____ _____    ______ ____
ROOT
ATOM      1  C   UNL     1       3.488  -5.188  -0.071  0.00  0.00    +0.000 A 
ATOM      2  C   UNL     1       4.378  -6.108  -0.641  0.00  0.00    +0.000 A 
ATOM      3  C   UNL     1       4.106  -7.481  -0.606  0.00  0.00    +0.000 A 
ATOM      4  C   UNL     1       2.928  -7.960  -0.018  0.00  0.00    +0.000 A 
ATOM      5  C   UNL     1       2.043  -7.040   0.560  0.00  0.00    +0.000 A 
ATOM      6  C   UNL     1       2.314  -5.669   0.524  0.00  0.00    +0.000 A 
ENDROOT
BRANCH   1   7
ATOM      7  C   UNL     1       3.785  -3.711  -0.101  0.00  0.00    +0.000 C 
BRANCH   7  10
ATOM      8  C   UNL     1       3.460  -1.725  -1.483  0.00  0.00    +0.000 C 
ATOM      9  O   UNL     1       3.996  -1.004  -0.642  0.00  0.00    +0.000 OA
ATOM     10  N   UNL     1       3.300  -3.077  -1.302  0.00  0.00    +0.000 N 
ATOM     11  H   UNL     1       2.911  -3.651  -2.036  0.00  0.00    +0.000 HD
BRANCH   8  15
ATOM     12  C   UNL     1       1.372  -1.014  -5.976  0.00  0.00    +0.000 C 
ATOM     13  N   UNL     1       2.045  -0.848  -4.713  0.00  0.00    +0.000 N 
ATOM     14  C   UNL     1       2.296  -1.813  -3.779  0.00  0.00    +0.000 A 
ATOM     15  C   UNL     1       2.959  -1.185  -2.737  0.00  0.00    +0.000 A 
ATOM     16  C   UNL     1       3.048   0.164  -3.166  0.00  0.00    +0.000 A 
ATOM     17  N   UNL     1       2.497   0.368  -4.365  0.00  0.00    +0.000 NA
ENDBRANCH   8  15
ENDBRANCH   7  10
ENDBRANCH   1   7
BRANCH   4  18
ATOM     18  C   UNL     1       2.623  -9.436   0.016  0.00  0.00    +0.000 C 
BRANCH  18  19
ATOM     19  N   UNL     1       3.130 -10.061   1.211  0.00  0.00    +0.000 N 
ATOM     20  C   UNL     1       3.021 -11.419   1.392  0.00  0.00    +0.000 C 
ATOM     21  O   UNL     1       2.535 -12.150   0.533  0.00  0.00    +0.000 OA
ATOM     22  H   UNL     1       3.318  -9.463   2.009  0.00  0.00    +0.000 HD
BRANCH  20  23
ATOM     23  C   UNL     1       3.578 -11.969   2.635  0.00  0.00    +0.000 A 
ATOM     24  C   UNL     1       3.938 -13.309   2.692  0.00  0.00    +0.000 A 
ATOM     25  S   UNL     1       4.622 -13.773   4.184  0.00  0.00    +0.000 S 
ATOM     26  C   UNL     1       4.409 -12.213   4.827  0.00  0.00    +0.000 A 
ATOM     27  N   UNL     1       4.776 -11.929   6.106  0.00  0.00    +0.000 NA
ATOM     28  C   UNL     1       4.521 -10.719   6.477  0.00  0.00    +0.000 A 
ATOM     29  N   UNL     1       3.937  -9.765   5.684  0.00  0.00    +0.000 N 
ATOM     30  C   UNL     1       3.581  -9.997   4.377  0.00  0.00    +0.000 A 
ATOM     31  O   UNL     1       3.100  -9.110   3.679  0.00  0.00    +0.000 OA
ATOM     32  C   UNL     1       3.836 -11.347   3.913  0.00  0.00    +0.000 A 
ATOM     33  H   UNL     1       3.769  -8.834   6.034  0.00  0.00    +0.000 HD
ENDBRANCH  20  23
ENDBRANCH  18  19
ENDBRANCH   4  18
TORSDOF 6
