REMARK  Name = 
REMARK  7 active torsions:
REMARK  status: ('A' for Active; 'I' for Inactive)
REMARK    1  A    between atoms: C_1  and  C_2
REMARK    2  A    between atoms: C_2  and  N_3
REMARK    3  A    between atoms: C_2  and  C_16
REMARK    4  A    between atoms: C_4  and  C_6
REMARK    5  A    between atoms: C_19  and  O_20
REMARK    6  A    between atoms: O_20  and  C_21
REMARK    7  A    between atoms: C_21  and  C_22
REMARK                            x       y       z     vdW  Elec       q    Type
REMARK                         _______ _______ _______ _____ _____    ______ ____
ROOT
ATOM      1  C   UNL     1       1.765  -1.360   0.004  0.00  0.00    +0.000 C 
ATOM      2  C   UNL     1       2.449   0.002  -0.161  0.00  0.00    +0.000 C 
ENDROOT
BRANCH   2   3
ATOM      3  C   UNL     1       2.795   0.664   1.161  0.00  0.00    +0.000 A 
ATOM      4  C   UNL     1       2.755   2.063   1.271  0.00  0.00    +0.000 A 
ATOM      5  C   UNL     1       3.024   2.689   2.492  0.00  0.00    +0.000 A 
ATOM      6  C   UNL     1       3.335   1.927   3.617  0.00  0.00    +0.000 A 
ATOM      7  C   UNL     1       3.474   0.546   3.492  0.00  0.00    +0.000 A 
ATOM      8  C   UNL     1       3.206  -0.080   2.275  0.00  0.00    +0.000 A 
BRANCH   6   9
ATOM      9  O   UNL     1       3.475   2.618   4.790  0.00  0.00    +0.000 OA
BRANCH   9  10
ATOM     10  C   UNL     1       3.248   1.834   5.966  0.00  0.00    +0.000 C 
BRANCH  10  11
ATOM     11  C   UNL     1       2.862   2.715   7.131  0.00  0.00    +0.000 A 
ATOM     12  C   UNL     1       1.765   3.568   7.027  0.00  0.00    +0.000 A 
ATOM     13  C   UNL     1       1.379   4.304   8.142  0.00  0.00    +0.000 A 
ATOM     14  C   UNL     1       2.095   4.172   9.325  0.00  0.00    +0.000 A 
ATOM     15  C   UNL     1       3.171   3.300   9.345  0.00  0.00    +0.000 A 
ATOM     16  N   UNL     1       3.565   2.567   8.283  0.00  0.00    +0.000 NA
ENDBRANCH  10  11
ENDBRANCH   9  10
ENDBRANCH   6   9
ENDBRANCH   2   3
BRANCH   2  17
ATOM     17  N   UNL     1       3.658  -0.125  -0.943  0.00  0.00    +0.000 N 
ATOM     18  C   UNL     1       3.664  -0.111  -2.310  0.00  0.00    +0.000 C 
ATOM     19  O   UNL     1       2.652   0.076  -2.979  0.00  0.00    +0.000 OA
ATOM     20  H   UNL     1       4.482  -0.439  -0.445  0.00  0.00    +0.000 HD
BRANCH  18  21
ATOM     21  C   UNL     1       4.985  -0.260  -2.938  0.00  0.00    +0.000 A 
ATOM     22  C   UNL     1       5.232   0.316  -4.175  0.00  0.00    +0.000 A 
ATOM     23  S   UNL     1       6.834   0.096  -4.717  0.00  0.00    +0.000 S 
ATOM     24  C   UNL     1       7.234  -0.821  -3.340  0.00  0.00    +0.000 A 
ATOM     25  N   UNL     1       8.480  -1.342  -3.181  0.00  0.00    +0.000 NA
ATOM     26  C   UNL     1       8.631  -2.048  -2.111  0.00  0.00    +0.000 A 
ATOM     27  N   UNL     1       7.649  -2.280  -1.183  0.00  0.00    +0.000 N 
ATOM     28  C   UNL     1       6.389  -1.738  -1.277  0.00  0.00    +0.000 A 
ATOM     29  O   UNL     1       5.554  -1.906  -0.393  0.00  0.00    +0.000 OA
ATOM     30  C   UNL     1       6.164  -0.947  -2.472  0.00  0.00    +0.000 A 
ATOM     31  H   UNL     1       7.836  -2.834  -0.360  0.00  0.00    +0.000 HD
ENDBRANCH  18  21
ENDBRANCH   2  17
TORSDOF 6
