REMARK  Name = 
REMARK  6 active torsions:
REMARK  status: ('A' for Active; 'I' for Inactive)
REMARK    1  A    between atoms: C_1  and  C_2
REMARK    2  A    between atoms: C_2  and  N_3
REMARK    3  A    between atoms: C_2  and  C_16
REMARK    4  A    between atoms: C_4  and  C_6
REMARK    5  A    between atoms: C_19  and  O_20
REMARK    6  A    between atoms: O_20  and  C_21
REMARK                            x       y       z     vdW  Elec       q    Type
REMARK                         _______ _______ _______ _____ _____    ______ ____
ROOT
ATOM      1  C   UNL     1       3.192  -0.154  -1.436  0.00  0.00    +0.000 C 
ATOM      2  C   UNL     1       2.534   0.003  -0.064  0.00  0.00    +0.000 C 
ENDROOT
BRANCH   2   3
ATOM      3  C   UNL     1       3.034   1.205   0.719  0.00  0.00    +0.000 A 
ATOM      4  C   UNL     1       3.165   1.096   2.112  0.00  0.00    +0.000 A 
ATOM      5  C   UNL     1       3.705   2.142   2.863  0.00  0.00    +0.000 A 
ATOM      6  C   UNL     1       4.181   3.291   2.231  0.00  0.00    +0.000 A 
ATOM      7  C   UNL     1       3.967   3.452   0.864  0.00  0.00    +0.000 A 
ATOM      8  C   UNL     1       3.385   2.423   0.114  0.00  0.00    +0.000 A 
BRANCH   6   9
ATOM      9  O   UNL     1       4.834   4.315   2.883  0.00  0.00    +0.000 OA
BRANCH   9  10
ATOM     10  C   UNL     1       5.668   4.019   3.941  0.00  0.00    +0.000 A 
ATOM     11  C   UNL     1       6.390   2.827   4.069  0.00  0.00    +0.000 A 
ATOM     12  C   UNL     1       7.141   2.579   5.219  0.00  0.00    +0.000 A 
ATOM     13  C   UNL     1       7.236   3.552   6.210  0.00  0.00    +0.000 A 
ATOM     14  C   UNL     1       6.587   4.776   6.049  0.00  0.00    +0.000 A 
ATOM     15  C   UNL     1       5.802   5.008   4.916  0.00  0.00    +0.000 A 
ENDBRANCH   9  10
ENDBRANCH   6   9
ENDBRANCH   2   3
BRANCH   2  16
ATOM     16  N   UNL     1       1.088   0.024  -0.166  0.00  0.00    +0.000 N 
ATOM     17  C   UNL     1       0.354  -1.138  -0.170  0.00  0.00    +0.000 C 
ATOM     18  O   UNL     1       0.886  -2.244  -0.103  0.00  0.00    +0.000 OA
ATOM     19  H   UNL     1       0.642   0.905  -0.402  0.00  0.00    +0.000 HD
BRANCH  17  20
ATOM     20  C   UNL     1      -1.107  -1.006  -0.182  0.00  0.00    +0.000 A 
ATOM     21  C   UNL     1      -1.885  -2.026   0.352  0.00  0.00    +0.000 A 
ATOM     22  S   UNL     1      -3.560  -1.725   0.274  0.00  0.00    +0.000 S 
ATOM     23  C   UNL     1      -3.304  -0.244  -0.528  0.00  0.00    +0.000 A 
ATOM     24  N   UNL     1      -4.358   0.515  -0.937  0.00  0.00    +0.000 NA
ATOM     25  C   UNL     1      -4.025   1.585  -1.570  0.00  0.00    +0.000 A 
ATOM     26  N   UNL     1      -2.733   1.978  -1.819  0.00  0.00    +0.000 N 
ATOM     27  C   UNL     1      -1.640   1.274  -1.372  0.00  0.00    +0.000 A 
ATOM     28  O   UNL     1      -0.503   1.697  -1.530  0.00  0.00    +0.000 OA
ATOM     29  C   UNL     1      -1.963   0.033  -0.696  0.00  0.00    +0.000 A 
ATOM     30  H   UNL     1      -2.542   2.843  -2.304  0.00  0.00    +0.000 HD
ENDBRANCH  17  20
ENDBRANCH   2  16
TORSDOF 5
