REMARK  Name = 
REMARK  6 active torsions:
REMARK  status: ('A' for Active; 'I' for Inactive)
REMARK    1  A    between atoms: N_1  and  C_2
REMARK    2  A    between atoms: C_2  and  C_3
REMARK    3  A    between atoms: C_6  and  C_7
REMARK    4  A    between atoms: C_7  and  N_8
REMARK    5  A    between atoms: N_8  and  C_9
REMARK    6  A    between atoms: C_12  and  C_13
REMARK                            x       y       z     vdW  Elec       q    Type
REMARK                         _______ _______ _______ _____ _____    ______ ____
ROOT
ATOM      1  N   UNL     1       4.823  -3.368  -5.090  0.00  0.00    +0.000 N 
ATOM      2  H   UNL     1       5.603  -2.829  -4.722  0.00  0.00    +0.000 HD
ENDROOT
BRANCH   1   3
ATOM      3  C   UNL     1       5.211  -4.206  -6.147  0.00  0.00    +0.000 A 
ATOM      4  C   UNL     1       4.446  -5.296  -6.583  0.00  0.00    +0.000 A 
ATOM      5  C   UNL     1       4.829  -6.065  -7.688  0.00  0.00    +0.000 A 
ATOM      6  C   UNL     1       5.982  -5.748  -8.412  0.00  0.00    +0.000 A 
ATOM      7  C   UNL     1       6.732  -4.634  -8.012  0.00  0.00    +0.000 A 
ATOM      8  C   UNL     1       6.339  -3.868  -6.906  0.00  0.00    +0.000 A 
BRANCH   6   9
ATOM      9  C   UNL     1       6.403  -6.566  -9.608  0.00  0.00    +0.000 C 
ATOM     10  F   UNL     1       5.576  -7.615  -9.871  0.00  0.00    +0.000 F 
ATOM     11  F   UNL     1       6.448  -5.832 -10.754  0.00  0.00    +0.000 F 
ATOM     12  F   UNL     1       7.647  -7.103  -9.460  0.00  0.00    +0.000 F 
ENDBRANCH   6   9
ENDBRANCH   1   3
BRANCH   1  13
ATOM     13  C   UNL     1       4.021  -3.953  -4.021  0.00  0.00    +0.000 C 
BRANCH  13  17
ATOM     14  C   UNL     1       2.961  -1.188  -0.855  0.00  0.00    +0.000 A 
ATOM     15  C   UNL     1       2.587  -0.931  -2.182  0.00  0.00    +0.000 A 
ATOM     16  C   UNL     1       2.964  -1.799  -3.211  0.00  0.00    +0.000 A 
ATOM     17  C   UNL     1       3.726  -2.942  -2.936  0.00  0.00    +0.000 A 
ATOM     18  C   UNL     1       4.128  -3.182  -1.614  0.00  0.00    +0.000 A 
ATOM     19  C   UNL     1       3.749  -2.314  -0.585  0.00  0.00    +0.000 A 
BRANCH  14  20
ATOM     20  C   UNL     1       2.520  -0.272   0.259  0.00  0.00    +0.000 C 
BRANCH  20  21
ATOM     21  N   UNL     1       1.066  -0.219   0.369  0.00  0.00    +0.000 NA
ATOM     22  H   UNL     1       0.812   0.330   1.188  0.00  0.00    +0.000 HD
ATOM     23  H   UNL     1       0.716  -1.162   0.533  0.00  0.00    +0.000 HD
ENDBRANCH  20  21
ENDBRANCH  14  20
ENDBRANCH  13  17
ENDBRANCH   1  13
TORSDOF 6
