REMARK  Name = 
REMARK  5 active torsions:
REMARK  status: ('A' for Active; 'I' for Inactive)
REMARK    1  A    between atoms: C_2  and  C_4
REMARK    2  A    between atoms: C_7  and  O_8
REMARK    3  A    between atoms: O_8  and  C_9
REMARK    4  A    between atoms: C_9  and  C_10
REMARK    5  A    between atoms: C_14  and  C_15
REMARK                            x       y       z     vdW  Elec       q    Type
REMARK                         _______ _______ _______ _____ _____    ______ ____
ROOT
ATOM      1  C   UNL     1       5.032   3.250   4.765  0.00  0.00    +0.000 C 
ENDROOT
BRANCH   1   2
ATOM      2  C   UNL     1       5.927   4.169   5.569  0.00  0.00    +0.000 A 
ATOM      3  C   UNL     1       5.850   5.560   5.468  0.00  0.00    +0.000 A 
ATOM      4  C   UNL     1       6.635   6.362   6.291  0.00  0.00    +0.000 A 
ATOM      5  C   UNL     1       7.489   5.781   7.234  0.00  0.00    +0.000 A 
ATOM      6  C   UNL     1       7.574   4.388   7.395  0.00  0.00    +0.000 A 
ATOM      7  C   UNL     1       6.783   3.602   6.535  0.00  0.00    +0.000 A 
BRANCH   6   8
ATOM      8  C   UNL     1       8.434   3.773   8.437  0.00  0.00    +0.000 A 
ATOM      9  C   UNL     1       9.095   2.548   8.217  0.00  0.00    +0.000 A 
ATOM     10  C   UNL     1       9.906   1.963   9.200  0.00  0.00    +0.000 A 
ATOM     11  C   UNL     1      10.085   2.594  10.428  0.00  0.00    +0.000 A 
ATOM     12  C   UNL     1       9.443   3.801  10.675  0.00  0.00    +0.000 A 
ATOM     13  C   UNL     1       8.626   4.371   9.696  0.00  0.00    +0.000 A 
ATOM     14  F   UNL     1       8.008   5.521  10.011  0.00  0.00    +0.000 F 
ENDBRANCH   6   8
ENDBRANCH   1   2
BRANCH   1  15
ATOM     15  O   UNL     1       4.608   3.848   3.535  0.00  0.00    +0.000 OA
BRANCH  15  19
ATOM     16  C   UNL     1       1.999   1.445   1.437  0.00  0.00    +0.000 A 
ATOM     17  C   UNL     1       2.350   2.698   0.927  0.00  0.00    +0.000 A 
ATOM     18  C   UNL     1       3.236   3.504   1.644  0.00  0.00    +0.000 A 
ATOM     19  C   UNL     1       3.737   3.027   2.847  0.00  0.00    +0.000 A 
ATOM     20  N   UNL     1       3.411   1.824   3.365  0.00  0.00    +0.000 NA
ATOM     21  C   UNL     1       2.541   1.063   2.656  0.00  0.00    +0.000 A 
BRANCH  16  23
ATOM     22  N   UNL     1       0.965   0.599  -0.592  0.00  0.00    +0.000 N 
ATOM     23  C   UNL     1       1.070   0.513   0.766  0.00  0.00    +0.000 C 
ATOM     24  O   UNL     1       0.451  -0.331   1.397  0.00  0.00    +0.000 OA
ATOM     25  H   UNL     1       0.412  -0.122  -1.039  0.00  0.00    +0.000 HD
ATOM     26  H   UNL     1       1.634   1.095  -1.163  0.00  0.00    +0.000 HD
ENDBRANCH  16  23
ENDBRANCH  15  19
ENDBRANCH   1  15
TORSDOF 5
