REMARK  Name = 
REMARK  10 active torsions:
REMARK  status: ('A' for Active; 'I' for Inactive)
REMARK    1  A    between atoms: C_1  and  O_2
REMARK    2  A    between atoms: O_2  and  C_3
REMARK    3  A    between atoms: C_6  and  C_7
REMARK    4  A    between atoms: C_11  and  C_12
REMARK    5  A    between atoms: C_12  and  C_13
REMARK    6  A    between atoms: C_12  and  C_14
REMARK    7  A    between atoms: C_12  and  C_15
REMARK    8  A    between atoms: C_15  and  N_16
REMARK    9  A    between atoms: N_16  and  C_17
REMARK   10  A    between atoms: C_20  and  C_21
REMARK                            x       y       z     vdW  Elec       q    Type
REMARK                         _______ _______ _______ _____ _____    ______ ____
ROOT
ATOM      1  C   UNL     1       7.016   7.590   0.956  0.00  0.00    +0.000 C 
ATOM      2  C   UNL     1       7.626   6.890  -0.283  0.00  0.00    +0.000 C 
ATOM      3  C   UNL     1       5.871   8.517   0.478  0.00  0.00    +0.000 C 
ENDROOT
BRANCH   1   8
ATOM      4  C   UNL     1       6.212   5.582   4.178  0.00  0.00    +0.000 A 
ATOM      5  C   UNL     1       5.155   4.786   3.722  0.00  0.00    +0.000 A 
ATOM      6  C   UNL     1       4.777   4.801   2.380  0.00  0.00    +0.000 A 
ATOM      7  C   UNL     1       5.399   5.673   1.487  0.00  0.00    +0.000 A 
ATOM      8  C   UNL     1       6.440   6.519   1.903  0.00  0.00    +0.000 A 
ATOM      9  C   UNL     1       6.881   6.378   3.229  0.00  0.00    +0.000 A 
BRANCH   4  13
ATOM     10  C   UNL     1       7.366   5.680   8.256  0.00  0.00    +0.000 A 
ATOM     11  C   UNL     1       7.474   6.849   7.528  0.00  0.00    +0.000 A 
ATOM     12  C   UNL     1       7.075   6.818   6.196  0.00  0.00    +0.000 A 
ATOM     13  C   UNL     1       6.604   5.636   5.600  0.00  0.00    +0.000 A 
ATOM     14  C   UNL     1       6.533   4.530   6.442  0.00  0.00    +0.000 A 
ATOM     15  N   UNL     1       6.892   4.526   7.746  0.00  0.00    +0.000 NA
BRANCH  10  17
ATOM     16  C   UNL     1       7.613   4.478  10.231  0.00  0.00    +0.000 C 
ATOM     17  O   UNL     1       7.788   5.723   9.567  0.00  0.00    +0.000 OA
ENDBRANCH  10  17
ENDBRANCH   4  13
ENDBRANCH   1   8
BRANCH   1  18
ATOM     18  C   UNL     1       8.146   8.495   1.562  0.00  0.00    +0.000 C 
BRANCH  18  19
ATOM     19  N   UNL     1       7.690   9.337   2.686  0.00  0.00    +0.000 N 
ATOM     20  H   UNL     1       6.991   8.891   3.273  0.00  0.00    +0.000 HD
BRANCH  19  21
ATOM     21  C   UNL     1       8.664  10.042   3.405  0.00  0.00    +0.000 A 
ATOM     22  C   UNL     1       9.762  10.643   2.791  0.00  0.00    +0.000 A 
ATOM     23  C   UNL     1      10.655  11.421   3.527  0.00  0.00    +0.000 A 
ATOM     24  C   UNL     1      10.429  11.578   4.886  0.00  0.00    +0.000 A 
ATOM     25  N   UNL     1       9.384  11.010   5.546  0.00  0.00    +0.000 NA
ATOM     26  C   UNL     1       8.529  10.284   4.781  0.00  0.00    +0.000 A 
BRANCH  24  27
ATOM     27  C   UNL     1      11.340  12.456   5.685  0.00  0.00    +0.000 C 
ATOM     28  N   UNL     1      11.060  12.541   7.021  0.00  0.00    +0.000 N 
ATOM     29  O   UNL     1      12.271  13.073   5.182  0.00  0.00    +0.000 OA
ATOM     30  H   UNL     1      10.260  12.046   7.398  0.00  0.00    +0.000 HD
ATOM     31  H   UNL     1      11.606  13.158   7.604  0.00  0.00    +0.000 HD
ENDBRANCH  24  27
ENDBRANCH  19  21
ENDBRANCH  18  19
ENDBRANCH   1  18
TORSDOF 7
