REMARK  Name = 
REMARK  5 active torsions:
REMARK  status: ('A' for Active; 'I' for Inactive)
REMARK    1  A    between atoms: C_1  and  C_2
REMARK    2  A    between atoms: C_2  and  N_3
REMARK    3  A    between atoms: C_2  and  C_13
REMARK    4  A    between atoms: N_3  and  C_4
REMARK    5  A    between atoms: C_7  and  C_8
REMARK                            x       y       z     vdW  Elec       q    Type
REMARK                         _______ _______ _______ _____ _____    ______ ____
ROOT
ATOM      1  N   UNL     1       2.897  -1.494   0.368  0.00  0.00    +0.000 N 
ATOM      2  H   UNL     1       3.896  -1.656   0.229  0.00  0.00    +0.000 HD
ENDROOT
BRANCH   1   3
ATOM      3  C   UNL     1       2.539  -1.978   1.634  0.00  0.00    +0.000 A 
ATOM      4  C   UNL     1       2.385  -3.358   1.790  0.00  0.00    +0.000 A 
ATOM      5  C   UNL     1       2.093  -3.910   3.038  0.00  0.00    +0.000 A 
ATOM      6  C   UNL     1       2.000  -3.054   4.125  0.00  0.00    +0.000 A 
ATOM      7  N   UNL     1       2.181  -1.707   4.042  0.00  0.00    +0.000 NA
ATOM      8  C   UNL     1       2.451  -1.217   2.804  0.00  0.00    +0.000 A 
BRANCH   6   9
ATOM      9  C   UNL     1       1.710  -3.616   5.485  0.00  0.00    +0.000 C 
ATOM     10  N   UNL     1       1.662  -2.699   6.503  0.00  0.00    +0.000 N 
ATOM     11  O   UNL     1       1.533  -4.809   5.687  0.00  0.00    +0.000 OA
ATOM     12  H   UNL     1       1.829  -1.720   6.304  0.00  0.00    +0.000 HD
ATOM     13  H   UNL     1       1.490  -3.013   7.446  0.00  0.00    +0.000 HD
ENDBRANCH   6   9
ENDBRANCH   1   3
BRANCH   1  15
ATOM     14  C   UNL     1       1.034   0.073  -0.086  0.00  0.00    +0.000 C 
ATOM     15  C   UNL     1       2.553  -0.116  -0.023  0.00  0.00    +0.000 C 
BRANCH  15  16
ATOM     16  C   UNL     1       3.129   0.211  -1.397  0.00  0.00    +0.000 A 
ATOM     17  C   UNL     1       3.544   1.527  -1.676  0.00  0.00    +0.000 A 
ATOM     18  C   UNL     1       3.968   1.894  -2.957  0.00  0.00    +0.000 A 
ATOM     19  C   UNL     1       3.991   0.948  -3.978  0.00  0.00    +0.000 A 
ATOM     20  C   UNL     1       3.592  -0.356  -3.709  0.00  0.00    +0.000 A 
ATOM     21  F   UNL     1       3.604  -1.262  -4.695  0.00  0.00    +0.000 F 
ATOM     22  C   UNL     1       3.160  -0.731  -2.438  0.00  0.00    +0.000 A 
ENDBRANCH  15  16
ENDBRANCH   1  15
TORSDOF 4
