REMARK  Name = 
REMARK  6 active torsions:
REMARK  status: ('A' for Active; 'I' for Inactive)
REMARK    1  A    between atoms: C_2  and  C_3
REMARK    2  A    between atoms: C_6  and  C_7
REMARK    3  A    between atoms: C_9  and  C_10
REMARK    4  A    between atoms: C_10  and  N_11
REMARK    5  A    between atoms: N_11  and  C_12
REMARK    6  A    between atoms: C_15  and  C_16
REMARK                            x       y       z     vdW  Elec       q    Type
REMARK                         _______ _______ _______ _____ _____    ______ ____
ROOT
ATOM      1  C   UNL     1       6.871  -1.287  -1.660  0.00  0.00    +0.000 C 
ATOM      2  C   UNL     1       6.987  -0.898  -3.120  0.00  0.00    +0.000 C 
ATOM      3  C   UNL     1       6.326  -2.188  -2.769  0.00  0.00    +0.000 C 
ENDROOT
BRANCH   1   6
ATOM      4  C   UNL     1       5.000   1.493   0.217  0.00  0.00    +0.000 A 
ATOM      5  C   UNL     1       5.978   0.819  -0.515  0.00  0.00    +0.000 A 
ATOM      6  C   UNL     1       5.847  -0.549  -0.803  0.00  0.00    +0.000 A 
ATOM      7  C   UNL     1       4.720  -1.194  -0.283  0.00  0.00    +0.000 A 
ATOM      8  C   UNL     1       3.784  -0.464   0.426  0.00  0.00    +0.000 A 
ATOM      9  N   UNL     1       3.900   0.853   0.681  0.00  0.00    +0.000 NA
BRANCH   4  13
ATOM     10  C   UNL     1       5.225   5.678   1.225  0.00  0.00    +0.000 A 
ATOM     11  C   UNL     1       5.847   5.210   0.068  0.00  0.00    +0.000 A 
ATOM     12  C   UNL     1       5.773   3.853  -0.268  0.00  0.00    +0.000 A 
ATOM     13  C   UNL     1       5.086   2.933   0.547  0.00  0.00    +0.000 A 
ATOM     14  C   UNL     1       4.463   3.437   1.704  0.00  0.00    +0.000 A 
ATOM     15  C   UNL     1       4.530   4.791   2.045  0.00  0.00    +0.000 A 
BRANCH  10  17
ATOM     16  N   UNL     1       5.359   8.192   1.840  0.00  0.00    +0.000 NA
ATOM     17  C   UNL     1       5.299   7.068   1.567  0.00  0.00    +0.000 C 
ENDBRANCH  10  17
ENDBRANCH   4  13
ENDBRANCH   1   6
BRANCH   1  18
ATOM     18  N   UNL     1       7.987  -1.866  -0.906  0.00  0.00    +0.000 N 
ATOM     19  H   UNL     1       7.942  -2.860  -0.706  0.00  0.00    +0.000 HD
BRANCH  18  20
ATOM     20  C   UNL     1       9.202  -1.256  -0.566  0.00  0.00    +0.000 A 
ATOM     21  C   UNL     1       9.594   0.021  -0.966  0.00  0.00    +0.000 A 
ATOM     22  C   UNL     1      10.823   0.546  -0.549  0.00  0.00    +0.000 A 
ATOM     23  C   UNL     1      11.627  -0.227   0.278  0.00  0.00    +0.000 A 
ATOM     24  N   UNL     1      11.281  -1.464   0.720  0.00  0.00    +0.000 NA
ATOM     25  C   UNL     1      10.084  -1.927   0.292  0.00  0.00    +0.000 A 
BRANCH  23  26
ATOM     26  C   UNL     1      12.963   0.279   0.730  0.00  0.00    +0.000 C 
ATOM     27  N   UNL     1      13.661  -0.575   1.541  0.00  0.00    +0.000 N 
ATOM     28  O   UNL     1      13.407   1.371   0.401  0.00  0.00    +0.000 OA
ATOM     29  H   UNL     1      13.251  -1.469   1.788  0.00  0.00    +0.000 HD
ATOM     30  H   UNL     1      14.572  -0.313   1.890  0.00  0.00    +0.000 HD
ENDBRANCH  23  26
ENDBRANCH  18  20
ENDBRANCH   1  18
TORSDOF 6
