REMARK  Name = 
REMARK  5 active torsions:
REMARK  status: ('A' for Active; 'I' for Inactive)
REMARK    1  A    between atoms: C_1  and  C_2
REMARK    2  A    between atoms: C_4  and  C_5
REMARK    3  A    between atoms: C_10  and  N_11
REMARK    4  A    between atoms: N_11  and  C_12
REMARK    5  A    between atoms: C_12  and  C_13
REMARK                            x       y       z     vdW  Elec       q    Type
REMARK                         _______ _______ _______ _____ _____    ______ ____
ROOT
ATOM      1  N   UNL     1      -0.921  -2.318   0.095  0.00  0.00    +0.000 N 
ATOM      2  H   UNL     1      -0.285  -3.095  -0.055  0.00  0.00    +0.000 HD
ENDROOT
BRANCH   1   9
ATOM      3  C   UNL     1       1.946  -1.968   0.637  0.00  0.00    +0.000 C 
ATOM      4  C   UNL     1       1.017  -0.833   0.313  0.00  0.00    +0.000 A 
ATOM      5  N   UNL     1       1.587   0.393   0.377  0.00  0.00    +0.000 NA
ATOM      6  C   UNL     1       0.785   1.446   0.103  0.00  0.00    +0.000 A 
ATOM      7  N   UNL     1      -0.502   1.371  -0.263  0.00  0.00    +0.000 NA
ATOM      8  C   UNL     1      -1.017   0.120  -0.312  0.00  0.00    +0.000 A 
ATOM      9  C   UNL     1      -0.325  -1.049  -0.022  0.00  0.00    +0.000 A 
BRANCH   6  10
ATOM     10  C   UNL     1       1.411   2.808   0.305  0.00  0.00    +0.000 C 
ATOM     11  N   UNL     1       2.711   2.785   0.760  0.00  0.00    +0.000 N 
ATOM     12  O   UNL     1       0.834   3.870   0.110  0.00  0.00    +0.000 OA
ATOM     13  H   UNL     1       3.158   1.895   0.958  0.00  0.00    +0.000 HD
ATOM     14  H   UNL     1       3.182   3.652   0.972  0.00  0.00    +0.000 HD
ENDBRANCH   6  10
ENDBRANCH   1   9
BRANCH   1  15
ATOM     15  C   UNL     1      -2.361  -2.604  -0.042  0.00  0.00    +0.000 C 
ATOM     16  C   UNL     1      -3.394  -1.811   0.739  0.00  0.00    +0.000 C 
ATOM     17  C   UNL     1      -3.062  -3.196   1.177  0.00  0.00    +0.000 C 
BRANCH  15  18
ATOM     18  C   UNL     1      -2.731  -3.225  -1.387  0.00  0.00    +0.000 A 
ATOM     19  C   UNL     1      -3.372  -2.484  -2.393  0.00  0.00    +0.000 A 
ATOM     20  C   UNL     1      -3.692  -3.054  -3.630  0.00  0.00    +0.000 A 
ATOM     21  C   UNL     1      -3.372  -4.387  -3.894  0.00  0.00    +0.000 A 
ATOM     22 CL   UNL     1      -3.770  -5.020  -5.451  0.00  0.00    +0.000 Cl
ATOM     23  C   UNL     1      -2.745  -5.152  -2.911  0.00  0.00    +0.000 A 
ATOM     24 CL   UNL     1      -2.324  -6.810  -3.150  0.00  0.00    +0.000 Cl
ATOM     25  C   UNL     1      -2.435  -4.575  -1.672  0.00  0.00    +0.000 A 
ENDBRANCH  15  18
ENDBRANCH   1  15
TORSDOF 4
