REMARK  Name = 
REMARK  7 active torsions:
REMARK  status: ('A' for Active; 'I' for Inactive)
REMARK    1  A    between atoms: C_1  and  C_2
REMARK    2  A    between atoms: C_2  and  N_3
REMARK    3  A    between atoms: C_2  and  C_16
REMARK    4  A    between atoms: C_4  and  C_6
REMARK    5  A    between atoms: C_19  and  C_20
REMARK    6  A    between atoms: C_20  and  N_21
REMARK    7  A    between atoms: C_22  and  C_24
REMARK                            x       y       z     vdW  Elec       q    Type
REMARK                         _______ _______ _______ _____ _____    ______ ____
ROOT
ATOM      1  C   UNL     1       3.765  -0.989  -0.309  0.00  0.00    +0.000 C 
ATOM      2  C   UNL     1       2.508  -0.144  -0.067  0.00  0.00    +0.000 C 
ENDROOT
BRANCH   2   3
ATOM      3  C   UNL     1       2.867   1.134   0.681  0.00  0.00    +0.000 A 
ATOM      4  C   UNL     1       2.678   2.389   0.087  0.00  0.00    +0.000 A 
ATOM      5  C   UNL     1       2.970   3.564   0.790  0.00  0.00    +0.000 A 
ATOM      6  C   UNL     1       3.465   3.511   2.100  0.00  0.00    +0.000 A 
ATOM      7  C   UNL     1       3.654   2.258   2.697  0.00  0.00    +0.000 A 
ATOM      8  C   UNL     1       3.364   1.086   1.995  0.00  0.00    +0.000 A 
BRANCH   6   9
ATOM      9  C   UNL     1       3.747   4.774   2.869  0.00  0.00    +0.000 C 
BRANCH   9  10
ATOM     10  N   UNL     1       2.581   5.222   3.585  0.00  0.00    +0.000 N 
ATOM     11  C   UNL     1       2.622   6.312   4.425  0.00  0.00    +0.000 C 
ATOM     12  O   UNL     1       3.647   6.964   4.602  0.00  0.00    +0.000 OA
ATOM     13  H   UNL     1       1.691   4.759   3.449  0.00  0.00    +0.000 HD
BRANCH  11  14
ATOM     14  C   UNL     1       1.361   6.612   5.071  0.00  0.00    +0.000 A 
ATOM     15  C   UNL     1       0.996   7.635   5.928  0.00  0.00    +0.000 A 
ATOM     16  C   UNL     1      -0.363   7.422   6.266  0.00  0.00    +0.000 A 
ATOM     17  C   UNL     1      -0.748   6.286   5.596  0.00  0.00    +0.000 A 
ATOM     18  O   UNL     1       0.282   5.788   4.865  0.00  0.00    +0.000 OA
ENDBRANCH  11  14
ENDBRANCH   9  10
ENDBRANCH   6   9
ENDBRANCH   2   3
BRANCH   2  19
ATOM     19  N   UNL     1       1.480  -0.857   0.679  0.00  0.00    +0.000 N 
ATOM     20  C   UNL     1       0.895  -2.016   0.236  0.00  0.00    +0.000 C 
ATOM     21  O   UNL     1       1.231  -2.575  -0.803  0.00  0.00    +0.000 OA
ATOM     22  H   UNL     1       0.962  -0.300   1.352  0.00  0.00    +0.000 HD
BRANCH  20  23
ATOM     23  C   UNL     1      -0.122  -2.606   1.114  0.00  0.00    +0.000 A 
ATOM     24  C   UNL     1      -0.321  -3.980   1.107  0.00  0.00    +0.000 A 
ATOM     25  S   UNL     1      -1.528  -4.503   2.190  0.00  0.00    +0.000 S 
ATOM     26  C   UNL     1      -1.861  -2.906   2.675  0.00  0.00    +0.000 A 
ATOM     27  N   UNL     1      -2.843  -2.638   3.576  0.00  0.00    +0.000 NA
ATOM     28  C   UNL     1      -3.011  -1.383   3.825  0.00  0.00    +0.000 A 
ATOM     29  N   UNL     1      -2.276  -0.371   3.264  0.00  0.00    +0.000 N 
ATOM     30  C   UNL     1      -1.244  -0.597   2.383  0.00  0.00    +0.000 A 
ATOM     31  O   UNL     1      -0.557   0.323   1.952  0.00  0.00    +0.000 OA
ATOM     32  C   UNL     1      -1.037  -1.991   2.045  0.00  0.00    +0.000 A 
ATOM     33  H   UNL     1      -2.445   0.592   3.517  0.00  0.00    +0.000 HD
ENDBRANCH  20  23
ENDBRANCH   2  19
TORSDOF 6
