REMARK  Name = 
REMARK  7 active torsions:
REMARK  status: ('A' for Active; 'I' for Inactive)
REMARK    1  A    between atoms: C_1  and  C_2
REMARK    2  A    between atoms: C_5  and  C_6
REMARK    3  A    between atoms: N_8  and  C_9
REMARK    4  A    between atoms: C_9  and  C_10
REMARK    5  A    between atoms: C_13  and  C_14
REMARK    6  A    between atoms: C_14  and  N_15
REMARK    7  A    between atoms: C_16  and  C_18
REMARK                            x       y       z     vdW  Elec       q    Type
REMARK                         _______ _______ _______ _____ _____    ______ ____
ROOT
ATOM      1  C   UNL     1      -6.431  -0.679   0.123  0.00  0.00    +0.000 A 
ATOM      2  C   UNL     1      -6.040  -2.013  -0.053  0.00  0.00    +0.000 A 
ATOM      3  C   UNL     1      -6.981  -3.050   0.009  0.00  0.00    +0.000 A 
ATOM      4  C   UNL     1      -8.339  -2.775   0.223  0.00  0.00    +0.000 A 
ATOM      5  C   UNL     1      -8.729  -1.440   0.392  0.00  0.00    +0.000 A 
ATOM      6  C   UNL     1      -7.789  -0.403   0.330  0.00  0.00    +0.000 A 
ENDROOT
BRANCH   1   7
ATOM      7  C   UNL     1      -5.417   0.439   0.066  0.00  0.00    +0.000 C 
BRANCH   7  10
ATOM      8  C   UNL     1      -4.448   2.006  -1.591  0.00  0.00    +0.000 C 
ATOM      9  O   UNL     1      -3.807   2.606  -0.727  0.00  0.00    +0.000 OA
ATOM     10  N   UNL     1      -5.254   0.933  -1.277  0.00  0.00    +0.000 N 
ATOM     11  H   UNL     1      -5.715   0.447  -2.037  0.00  0.00    +0.000 HD
BRANCH   8  16
ATOM     12  C   UNL     1      -5.329   2.251  -6.827  0.00  0.00    +0.000 C 
ATOM     13  C   UNL     1      -4.814   2.501  -5.451  0.00  0.00    +0.000 A 
ATOM     14  C   UNL     1      -3.900   3.440  -5.023  0.00  0.00    +0.000 A 
ATOM     15  C   UNL     1      -3.670   3.361  -3.615  0.00  0.00    +0.000 A 
ATOM     16  C   UNL     1      -4.415   2.366  -3.005  0.00  0.00    +0.000 A 
ATOM     17  S   UNL     1      -5.380   1.539  -4.160  0.00  0.00    +0.000 S 
ENDBRANCH   8  16
ENDBRANCH   7  10
ENDBRANCH   1   7
BRANCH   4  18
ATOM     18  C   UNL     1      -9.356  -3.887   0.304  0.00  0.00    +0.000 C 
BRANCH  18  19
ATOM     19  N   UNL     1      -9.511  -4.370   1.655  0.00  0.00    +0.000 N 
ATOM     20  C   UNL     1     -10.327  -5.434   1.950  0.00  0.00    +0.000 C 
ATOM     21  O   UNL     1     -10.932  -6.051   1.077  0.00  0.00    +0.000 OA
ATOM     22  H   UNL     1      -9.219  -3.746   2.402  0.00  0.00    +0.000 HD
BRANCH  20  23
ATOM     23  C   UNL     1     -10.392  -5.842   3.361  0.00  0.00    +0.000 A 
ATOM     24  C   UNL     1     -10.753  -7.143   3.688  0.00  0.00    +0.000 A 
ATOM     25  S   UNL     1     -10.728  -7.462   5.364  0.00  0.00    +0.000 S 
ATOM     26  C   UNL     1     -10.289  -5.857   5.718  0.00  0.00    +0.000 A 
ATOM     27  N   UNL     1     -10.128  -5.442   7.003  0.00  0.00    +0.000 NA
ATOM     28  C   UNL     1      -9.828  -4.193   7.128  0.00  0.00    +0.000 A 
ATOM     29  N   UNL     1      -9.667  -3.321   6.082  0.00  0.00    +0.000 N 
ATOM     30  C   UNL     1      -9.783  -3.703   4.766  0.00  0.00    +0.000 A 
ATOM     31  O   UNL     1      -9.579  -2.911   3.852  0.00  0.00    +0.000 OA
ATOM     32  C   UNL     1     -10.140  -5.095   4.571  0.00  0.00    +0.000 A 
ATOM     33  H   UNL     1      -9.420  -2.356   6.245  0.00  0.00    +0.000 HD
ENDBRANCH  20  23
ENDBRANCH  18  19
ENDBRANCH   4  18
TORSDOF 6
