REMARK  Name = 
REMARK  10 active torsions:
REMARK  status: ('A' for Active; 'I' for Inactive)
REMARK    1  A    between atoms: N_1  and  C_2
REMARK    2  A    between atoms: C_2  and  C_3
REMARK    3  A    between atoms: C_3  and  N_4
REMARK    4  A    between atoms: N_4  and  C_5
REMARK    5  A    between atoms: C_5  and  C_6
REMARK    6  A    between atoms: C_9  and  C_10
REMARK    7  A    between atoms: C_10  and  C_11
REMARK    8  A    between atoms: C_14  and  C_15
REMARK    9  A    between atoms: C_15  and  N_16
REMARK   10  A    between atoms: C_17  and  C_19
REMARK                            x       y       z     vdW  Elec       q    Type
REMARK                         _______ _______ _______ _____ _____    ______ ____
ROOT
ATOM      1  C   UNL     1      11.442   1.135   3.033  0.00  0.00    +0.000 A 
ATOM      2  C   UNL     1      11.177  -0.240   2.975  0.00  0.00    +0.000 A 
ATOM      3  C   UNL     1      11.829  -1.133   3.835  0.00  0.00    +0.000 A 
ATOM      4  C   UNL     1      12.753  -0.668   4.779  0.00  0.00    +0.000 A 
ATOM      5  C   UNL     1      13.040   0.703   4.816  0.00  0.00    +0.000 A 
ATOM      6  C   UNL     1      12.383   1.597   3.963  0.00  0.00    +0.000 A 
ENDROOT
BRANCH   1   7
ATOM      7  C   UNL     1      10.741   2.092   2.098  0.00  0.00    +0.000 C 
BRANCH   7  11
ATOM      8  C   UNL     1       7.094   3.809   3.491  0.00  0.00    +0.000 A 
ATOM      9  C   UNL     1       7.036   2.607   2.786  0.00  0.00    +0.000 A 
ATOM     10  C   UNL     1       8.220   2.023   2.352  0.00  0.00    +0.000 A 
ATOM     11  C   UNL     1       9.440   2.652   2.609  0.00  0.00    +0.000 A 
ATOM     12  C   UNL     1       9.403   3.838   3.336  0.00  0.00    +0.000 A 
ATOM     13  N   UNL     1       8.267   4.427   3.779  0.00  0.00    +0.000 NA
BRANCH   8  14
ATOM     14  C   UNL     1       5.818   4.412   4.047  0.00  0.00    +0.000 C 
BRANCH  14  15
ATOM     15  N   UNL     1       5.114   3.534   5.006  0.00  0.00    +0.000 NA
ATOM     16  H   UNL     1       4.337   4.083   5.386  0.00  0.00    +0.000 HD
BRANCH  15  17
ATOM     17  C   UNL     1       5.970   3.196   6.161  0.00  0.00    +0.000 C 
BRANCH  17  18
ATOM     18  C   UNL     1       6.355   4.417   7.018  0.00  0.00    +0.000 C 
BRANCH  18  19
ATOM     19  N   UNL     1       5.156   5.134   7.469  0.00  0.00    +0.000 NA
ATOM     20  H   UNL     1       5.445   5.932   8.032  0.00  0.00    +0.000 HD
ATOM     21  H   UNL     1       4.626   4.523   8.090  0.00  0.00    +0.000 HD
ENDBRANCH  18  19
ENDBRANCH  17  18
ENDBRANCH  15  17
ENDBRANCH  14  15
ENDBRANCH   8  14
ENDBRANCH   7  11
ENDBRANCH   1   7
BRANCH   4  22
ATOM     22  C   UNL     1      13.445  -1.619   5.722  0.00  0.00    +0.000 C 
BRANCH  22  23
ATOM     23  N   UNL     1      14.674  -2.119   5.160  0.00  0.00    +0.000 N 
ATOM     24  C   UNL     1      15.446  -3.040   5.821  0.00  0.00    +0.000 C 
ATOM     25  O   UNL     1      15.113  -3.516   6.903  0.00  0.00    +0.000 OA
ATOM     26  H   UNL     1      15.086  -1.572   4.411  0.00  0.00    +0.000 HD
BRANCH  24  27
ATOM     27  C   UNL     1      16.668  -3.473   5.133  0.00  0.00    +0.000 A 
ATOM     28  C   UNL     1      17.220  -4.717   5.419  0.00  0.00    +0.000 A 
ATOM     29  S   UNL     1      18.605  -5.079   4.491  0.00  0.00    +0.000 S 
ATOM     30  C   UNL     1      18.546  -3.568   3.711  0.00  0.00    +0.000 A 
ATOM     31  N   UNL     1      19.483  -3.219   2.789  0.00  0.00    +0.000 NA
ATOM     32  C   UNL     1      19.331  -2.035   2.294  0.00  0.00    +0.000 A 
ATOM     33  N   UNL     1      18.324  -1.174   2.632  0.00  0.00    +0.000 N 
ATOM     34  C   UNL     1      17.340  -1.491   3.539  0.00  0.00    +0.000 A 
ATOM     35  O   UNL     1      16.431  -0.710   3.786  0.00  0.00    +0.000 OA
ATOM     36  C   UNL     1      17.472  -2.806   4.135  0.00  0.00    +0.000 A 
ATOM     37  H   UNL     1      18.253  -0.261   2.203  0.00  0.00    +0.000 HD
ENDBRANCH  24  27
ENDBRANCH  22  23
ENDBRANCH   4  22
TORSDOF 10
