REMARK  Name = 
REMARK  7 active torsions:
REMARK  status: ('A' for Active; 'I' for Inactive)
REMARK    1  A    between atoms: C_2  and  C_19
REMARK    2  A    between atoms: N_3  and  C_4
REMARK    3  A    between atoms: C_4  and  C_5
REMARK    4  A    between atoms: C_8  and  O_9
REMARK    5  A    between atoms: O_9  and  C_10
REMARK    6  A    between atoms: C_10  and  C_11
REMARK    7  A    between atoms: C_11  and  N_12
REMARK                            x       y       z     vdW  Elec       q    Type
REMARK                         _______ _______ _______ _____ _____    ______ ____
ROOT
ATOM      1  O   UNL     1       0.727   3.267  -1.528  0.00  0.00    +0.000 OA
ATOM      2  C   UNL     1       1.636   2.457  -1.681  0.00  0.00    +0.000 C 
ATOM      3  N   UNL     1       2.394   1.988  -0.641  0.00  0.00    +0.000 N 
ATOM      4  H   UNL     1       3.246   1.478  -0.835  0.00  0.00    +0.000 HD
ENDROOT
BRANCH   2   5
ATOM      5  C   UNL     1       1.933   1.879  -2.998  0.00  0.00    +0.000 A 
ATOM      6  C   UNL     1       0.949   1.850  -3.979  0.00  0.00    +0.000 A 
ATOM      7  S   UNL     1       1.465   1.138  -5.441  0.00  0.00    +0.000 S 
ATOM      8  C   UNL     1       3.031   0.879  -4.826  0.00  0.00    +0.000 A 
ATOM      9  N   UNL     1       4.003   0.324  -5.599  0.00  0.00    +0.000 NA
ATOM     10  C   UNL     1       5.154   0.228  -5.020  0.00  0.00    +0.000 A 
ATOM     11  N   UNL     1       5.418   0.622  -3.732  0.00  0.00    +0.000 N 
ATOM     12  C   UNL     1       4.448   1.111  -2.892  0.00  0.00    +0.000 A 
ATOM     13  O   UNL     1       4.684   1.312  -1.701  0.00  0.00    +0.000 OA
ATOM     14  C   UNL     1       3.151   1.297  -3.512  0.00  0.00    +0.000 A 
ATOM     15  H   UNL     1       6.331   0.482  -3.330  0.00  0.00    +0.000 HD
ENDBRANCH   2   5
BRANCH   3  16
ATOM     16  C   UNL     1       2.228   2.443   0.717  0.00  0.00    +0.000 C 
BRANCH  16  17
ATOM     17  C   UNL     1       3.174   3.565   1.049  0.00  0.00    +0.000 A 
ATOM     18  C   UNL     1       2.798   4.880   0.769  0.00  0.00    +0.000 A 
ATOM     19  C   UNL     1       3.640   5.942   1.097  0.00  0.00    +0.000 A 
ATOM     20  C   UNL     1       4.886   5.713   1.692  0.00  0.00    +0.000 A 
ATOM     21  C   UNL     1       5.277   4.399   1.949  0.00  0.00    +0.000 A 
ATOM     22  C   UNL     1       4.430   3.330   1.625  0.00  0.00    +0.000 A 
BRANCH  20  23
ATOM     23  O   UNL     1       5.787   6.692   2.053  0.00  0.00    +0.000 OA
BRANCH  23  24
ATOM     24  C   UNL     1       5.360   8.012   1.709  0.00  0.00    +0.000 C 
BRANCH  24  25
ATOM     25  C   UNL     1       6.424   9.086   1.986  0.00  0.00    +0.000 C 
BRANCH  25  26
ATOM     26  N   UNL     1       5.875  10.423   1.709  0.00  0.00    +0.000 NA
ATOM     27  C   UNL     1       6.795  11.508   2.039  0.00  0.00    +0.000 C 
ATOM     28  C   UNL     1       7.422  11.928   0.726  0.00  0.00    +0.000 C 
ATOM     29  O   UNL     1       6.562  11.464  -0.311  0.00  0.00    +0.000 OA
ATOM     30  C   UNL     1       5.563  10.656   0.301  0.00  0.00    +0.000 C 
ENDBRANCH  25  26
ENDBRANCH  24  25
ENDBRANCH  23  24
ENDBRANCH  20  23
ENDBRANCH  16  17
ENDBRANCH   3  16
TORSDOF 7
