REMARK  Name = 
REMARK  7 active torsions:
REMARK  status: ('A' for Active; 'I' for Inactive)
REMARK    1  A    between atoms: C_1  and  O_2
REMARK    2  A    between atoms: O_2  and  C_3
REMARK    3  A    between atoms: C_10  and  C_11
REMARK    4  A    between atoms: N_13  and  C_14
REMARK    5  A    between atoms: C_14  and  C_15
REMARK    6  A    between atoms: C_18  and  C_19
REMARK    7  A    between atoms: C_20  and  C_21
REMARK                            x       y       z     vdW  Elec       q    Type
REMARK                         _______ _______ _______ _____ _____    ______ ____
ROOT
ATOM      1  C   UNL     1       4.456  -2.194  -0.490  0.00  0.00    +0.000 C 
ATOM      2  O   UNL     1       5.058  -3.264  -0.533  0.00  0.00    +0.000 OA
ATOM      3  N   UNL     1       3.525  -1.939   0.485  0.00  0.00    +0.000 N 
ATOM      4  H   UNL     1       3.054  -1.047   0.502  0.00  0.00    +0.000 HD
ENDROOT
BRANCH   1  12
ATOM      5  C   UNL     1       3.100   0.925  -1.006  0.00  0.00    +0.000 A 
ATOM      6  N   UNL     1       2.787   2.180  -1.382  0.00  0.00    +0.000 NA
ATOM      7  C   UNL     1       3.457   2.712  -2.406  0.00  0.00    +0.000 A 
ATOM      8  N   UNL     1       4.414   2.130  -3.125  0.00  0.00    +0.000 NA
ATOM      9  C   UNL     1       4.702   0.885  -2.708  0.00  0.00    +0.000 A 
ATOM     10  S   UNL     1       5.892  -0.016  -3.514  0.00  0.00    +0.000 S 
ATOM     11  C   UNL     1       5.677  -1.336  -2.462  0.00  0.00    +0.000 A 
ATOM     12  C   UNL     1       4.714  -1.126  -1.480  0.00  0.00    +0.000 A 
ATOM     13  C   UNL     1       4.117   0.199  -1.648  0.00  0.00    +0.000 A 
BRANCH   5  15
ATOM     14  C   UNL     1       1.114   0.936   0.222  0.00  0.00    +0.000 C 
ATOM     15  O   UNL     1       2.415   0.380   0.058  0.00  0.00    +0.000 OA
ENDBRANCH   5  15
ENDBRANCH   1  12
BRANCH   3  16
ATOM     16  C   UNL     1       3.176  -2.881   1.526  0.00  0.00    +0.000 C 
BRANCH  16  17
ATOM     17  C   UNL     1       2.098  -2.320   2.432  0.00  0.00    +0.000 A 
ATOM     18  C   UNL     1       0.740  -2.513   2.136  0.00  0.00    +0.000 A 
ATOM     19  C   UNL     1      -0.263  -1.923   2.924  0.00  0.00    +0.000 A 
ATOM     20  C   UNL     1       0.073  -1.121   4.017  0.00  0.00    +0.000 A 
ATOM     21  C   UNL     1       1.421  -0.945   4.336  0.00  0.00    +0.000 A 
ATOM     22  C   UNL     1       2.425  -1.539   3.551  0.00  0.00    +0.000 A 
BRANCH  20  23
ATOM     23  C   UNL     1      -0.950  -0.443   4.767  0.00  0.00    +0.000 C 
ATOM     24  C   UNL     1      -1.804   0.176   5.353  0.00  0.00    +0.000 C 
BRANCH  24  25
ATOM     25  C   UNL     1      -2.819   0.941   6.013  0.00  0.00    +0.000 A 
ATOM     26  C   UNL     1      -4.161   0.836   5.670  0.00  0.00    +0.000 A 
ATOM     27  N   UNL     1      -5.129   1.587   6.256  0.00  0.00    +0.000 NA
ATOM     28  C   UNL     1      -4.693   2.450   7.201  0.00  0.00    +0.000 A 
ATOM     29  C   UNL     1      -3.353   2.553   7.546  0.00  0.00    +0.000 A 
ATOM     30  N   UNL     1      -2.386   1.806   6.961  0.00  0.00    +0.000 NA
ENDBRANCH  24  25
ENDBRANCH  20  23
ENDBRANCH  16  17
ENDBRANCH   3  16
TORSDOF 6
