REMARK  Name = 
REMARK  6 active torsions:
REMARK  status: ('A' for Active; 'I' for Inactive)
REMARK    1  A    between atoms: C_1  and  C_2
REMARK    2  A    between atoms: C_2  and  C_13
REMARK    3  A    between atoms: C_3  and  C_4
REMARK    4  A    between atoms: C_7  and  C_8
REMARK    5  A    between atoms: C_16  and  C_17
REMARK    6  A    between atoms: C_17  and  N_18
REMARK                            x       y       z     vdW  Elec       q    Type
REMARK                         _______ _______ _______ _____ _____    ______ ____
ROOT
ATOM      1  C   UNL     1       1.000  -0.244   0.098  0.00  0.00    +0.000 C 
ATOM      2  C   UNL     1       2.488  -0.037   0.042  0.00  0.00    +0.000 C 
ATOM      3  C   UNL     1       3.125   1.073  -0.379  0.00  0.00    +0.000 C 
ENDROOT
BRANCH   3   4
ATOM      4  C   UNL     1       2.449   2.276  -0.871  0.00  0.00    +0.000 A 
ATOM      5  C   UNL     1       2.073   3.302  -0.003  0.00  0.00    +0.000 A 
ATOM      6  C   UNL     1       1.400   4.417  -0.504  0.00  0.00    +0.000 A 
ATOM      7  C   UNL     1       1.127   4.465  -1.865  0.00  0.00    +0.000 A 
ATOM      8  N   UNL     1       1.485   3.489  -2.747  0.00  0.00    +0.000 NA
ATOM      9  C   UNL     1       2.136   2.422  -2.222  0.00  0.00    +0.000 A 
BRANCH   7  10
ATOM     10  C   UNL     1       0.384   5.637  -2.433  0.00  0.00    +0.000 C 
ATOM     11  N   UNL     1       0.158   5.590  -3.783  0.00  0.00    +0.000 N 
ATOM     12  O   UNL     1      -0.003   6.573  -1.745  0.00  0.00    +0.000 OA
ATOM     13  H   UNL     1       0.485   4.791  -4.315  0.00  0.00    +0.000 HD
ATOM     14  H   UNL     1      -0.351   6.336  -4.232  0.00  0.00    +0.000 HD
ENDBRANCH   7  10
ENDBRANCH   3   4
BRANCH   2  15
ATOM     15  C   UNL     1       3.293  -1.194   0.476  0.00  0.00    +0.000 A 
ATOM     16  C   UNL     1       3.696  -1.325   1.809  0.00  0.00    +0.000 A 
ATOM     17  C   UNL     1       4.449  -2.434   2.218  0.00  0.00    +0.000 A 
ATOM     18  C   UNL     1       4.813  -3.429   1.300  0.00  0.00    +0.000 A 
ATOM     19  C   UNL     1       4.409  -3.289  -0.036  0.00  0.00    +0.000 A 
ATOM     20  C   UNL     1       3.657  -2.182  -0.445  0.00  0.00    +0.000 A 
BRANCH  18  21
ATOM     21  C   UNL     1       5.648  -4.610   1.728  0.00  0.00    +0.000 C 
BRANCH  21  22
ATOM     22  N   UNL     1       4.970  -5.878   1.480  0.00  0.00    +0.000 NA
ATOM     23  H   UNL     1       4.102  -5.895   2.015  0.00  0.00    +0.000 HD
ATOM     24  H   UNL     1       5.543  -6.638   1.840  0.00  0.00    +0.000 HD
ENDBRANCH  21  22
ENDBRANCH  18  21
ENDBRANCH   2  15
TORSDOF 5
