REMARK  Name = 
REMARK  4 active torsions:
REMARK  status: ('A' for Active; 'I' for Inactive)
REMARK    1  A    between atoms: C_2  and  C_4
REMARK    2  A    between atoms: N_8  and  C_9
REMARK    3  A    between atoms: C_9  and  C_10
REMARK    4  A    between atoms: C_12  and  C_13
REMARK                            x       y       z     vdW  Elec       q    Type
REMARK                         _______ _______ _______ _____ _____    ______ ____
ROOT
ATOM      1  C   UNL     1       4.716   3.324  -5.191  0.00  0.00    +0.000 C 
ENDROOT
BRANCH   1   6
ATOM      2  C   UNL     1       7.729   2.433  -1.120  0.00  0.00    +0.000 A 
ATOM      3  C   UNL     1       7.013   1.535  -1.903  0.00  0.00    +0.000 A 
ATOM      4  C   UNL     1       6.142   2.025  -2.877  0.00  0.00    +0.000 A 
ATOM      5  C   UNL     1       6.008   3.394  -3.065  0.00  0.00    +0.000 A 
ATOM      6  N   UNL     1       5.123   3.959  -3.953  0.00  0.00    +0.000 N 
ATOM      7  N   UNL     1       6.693   4.275  -2.301  0.00  0.00    +0.000 NA
ATOM      8  C   UNL     1       7.524   3.782  -1.343  0.00  0.00    +0.000 A 
ATOM      9  H   UNL     1       5.267   4.962  -3.973  0.00  0.00    +0.000 HD
BRANCH   2  11
ATOM     10  N   UNL     1       9.244   0.770  -0.212  0.00  0.00    +0.000 N 
ATOM     11  C   UNL     1       8.654   1.993  -0.055  0.00  0.00    +0.000 C 
ATOM     12  O   UNL     1       8.904   2.701   0.910  0.00  0.00    +0.000 OA
ATOM     13  H   UNL     1       9.942   0.509   0.473  0.00  0.00    +0.000 HD
ATOM     14  H   UNL     1       9.245   0.274  -1.093  0.00  0.00    +0.000 HD
ENDBRANCH   2  11
ENDBRANCH   1   6
BRANCH   1  15
ATOM     15  C   UNL     1       5.625   3.657  -6.344  0.00  0.00    +0.000 A 
ATOM     16  C   UNL     1       5.775   4.984  -6.785  0.00  0.00    +0.000 A 
ATOM     17  C   UNL     1       6.553   5.321  -7.913  0.00  0.00    +0.000 A 
ATOM     18  C   UNL     1       7.187   4.265  -8.595  0.00  0.00    +0.000 A 
ATOM     19  C   UNL     1       7.041   2.940  -8.176  0.00  0.00    +0.000 A 
ATOM     20  C   UNL     1       6.268   2.648  -7.059  0.00  0.00    +0.000 A 
ATOM     21  F   UNL     1       6.124   1.366  -6.692  0.00  0.00    +0.000 F 
BRANCH  17  22
ATOM     22  C   UNL     1       6.670   6.724  -8.368  0.00  0.00    +0.000 A 
ATOM     23  C   UNL     1       6.652   7.805  -7.473  0.00  0.00    +0.000 A 
ATOM     24  C   UNL     1       6.731   9.119  -7.936  0.00  0.00    +0.000 A 
ATOM     25  C   UNL     1       6.841   9.329  -9.298  0.00  0.00    +0.000 A 
ATOM     26  N   UNL     1       6.873   8.332 -10.203  0.00  0.00    +0.000 NA
ATOM     27  C   UNL     1       6.782   7.067  -9.719  0.00  0.00    +0.000 A 
ENDBRANCH  17  22
ENDBRANCH   1  15
TORSDOF 4
