REMARK  Name = 
REMARK  7 active torsions:
REMARK  status: ('A' for Active; 'I' for Inactive)
REMARK    1  A    between atoms: C_1  and  C_2
REMARK    2  A    between atoms: C_2  and  N_3
REMARK    3  A    between atoms: C_2  and  C_12
REMARK    4  A    between atoms: C_4  and  C_6
REMARK    5  A    between atoms: C_15  and  C_16
REMARK    6  A    between atoms: C_16  and  N_17
REMARK    7  A    between atoms: C_18  and  C_20
REMARK                            x       y       z     vdW  Elec       q    Type
REMARK                         _______ _______ _______ _____ _____    ______ ____
ROOT
ATOM      1  C   UNL     1       2.787  -0.852  -1.177  0.00  0.00    +0.000 A 
ATOM      2  C   UNL     1       3.331  -0.204  -2.300  0.00  0.00    +0.000 A 
ATOM      3  C   UNL     1       3.663  -0.927  -3.456  0.00  0.00    +0.000 A 
ATOM      4  C   UNL     1       3.446  -2.312  -3.520  0.00  0.00    +0.000 A 
ATOM      5  C   UNL     1       2.926  -2.952  -2.398  0.00  0.00    +0.000 A 
ATOM      6  F   UNL     1       2.742  -4.277  -2.405  0.00  0.00    +0.000 F 
ATOM      7  C   UNL     1       2.587  -2.238  -1.252  0.00  0.00    +0.000 A 
ENDROOT
BRANCH   1   9
ATOM      8  C   UNL     1       2.722  -0.839   1.351  0.00  0.00    +0.000 C 
ATOM      9  C   UNL     1       2.393  -0.064   0.067  0.00  0.00    +0.000 C 
BRANCH   9  10
ATOM     10  N   UNL     1       0.982   0.280  -0.018  0.00  0.00    +0.000 N 
ATOM     11  C   UNL     1       0.314   1.060   0.901  0.00  0.00    +0.000 C 
ATOM     12  O   UNL     1       0.808   1.468   1.948  0.00  0.00    +0.000 OA
ATOM     13  H   UNL     1       0.507   0.200  -0.914  0.00  0.00    +0.000 HD
BRANCH  11  14
ATOM     14  C   UNL     1      -1.165   1.329   0.528  0.00  0.00    +0.000 C 
ATOM     15  C   UNL     1      -2.055   0.222   1.106  0.00  0.00    +0.000 C 
ATOM     16  C   UNL     1      -3.505   0.356   0.645  0.00  0.00    +0.000 C 
ATOM     17  C   UNL     1      -3.578   0.496  -0.871  0.00  0.00    +0.000 C 
ATOM     18  C   UNL     1      -2.674   1.623  -1.358  0.00  0.00    +0.000 C 
ATOM     19  N   UNL     1      -1.281   1.402  -0.952  0.00  0.00    +0.000 NA
ATOM     20  H   UNL     1      -0.725   2.199  -1.273  0.00  0.00    +0.000 HD
ENDBRANCH  11  14
ENDBRANCH   9  10
ENDBRANCH   1   9
BRANCH   4  21
ATOM     21  C   UNL     1       3.771  -3.098  -4.761  0.00  0.00    +0.000 C 
BRANCH  21  22
ATOM     22  N   UNL     1       5.144  -3.533  -4.752  0.00  0.00    +0.000 N 
ATOM     23  C   UNL     1       5.851  -3.728  -5.912  0.00  0.00    +0.000 C 
ATOM     24  O   UNL     1       5.398  -3.438  -7.017  0.00  0.00    +0.000 OA
ATOM     25  H   UNL     1       5.442  -4.032  -3.920  0.00  0.00    +0.000 HD
BRANCH  23  26
ATOM     26  C   UNL     1       7.225  -4.212  -5.753  0.00  0.00    +0.000 A 
ATOM     27  C   UNL     1       8.191  -3.894  -6.699  0.00  0.00    +0.000 A 
ATOM     28  S   UNL     1       9.741  -4.490  -6.314  0.00  0.00    +0.000 S 
ATOM     29  C   UNL     1       9.166  -5.241  -4.901  0.00  0.00    +0.000 A 
ATOM     30  N   UNL     1       9.998  -5.953  -4.092  0.00  0.00    +0.000 NA
ATOM     31  C   UNL     1       9.419  -6.490  -3.071  0.00  0.00    +0.000 A 
ATOM     32  N   UNL     1       8.083  -6.377  -2.782  0.00  0.00    +0.000 N 
ATOM     33  C   UNL     1       7.213  -5.651  -3.550  0.00  0.00    +0.000 A 
ATOM     34  O   UNL     1       6.032  -5.522  -3.240  0.00  0.00    +0.000 OA
ATOM     35  C   UNL     1       7.812  -5.027  -4.717  0.00  0.00    +0.000 A 
ATOM     36  H   UNL     1       7.693  -6.815  -1.959  0.00  0.00    +0.000 HD
ENDBRANCH  23  26
ENDBRANCH  21  22
ENDBRANCH   4  21
TORSDOF 6
