REMARK  Name = 
REMARK  9 active torsions:
REMARK  status: ('A' for Active; 'I' for Inactive)
REMARK    1  A    between atoms: C_1  and  C_2
REMARK    2  A    between atoms: C_4  and  O_5
REMARK    3  A    between atoms: O_5  and  C_6
REMARK    4  A    between atoms: C_6  and  C_7
REMARK    5  A    between atoms: C_7  and  C_8
REMARK    6  A    between atoms: C_7  and  C_9
REMARK    7  A    between atoms: C_13  and  N_14
REMARK    8  A    between atoms: N_14  and  C_15
REMARK    9  A    between atoms: C_22  and  C_23
REMARK                            x       y       z     vdW  Elec       q    Type
REMARK                         _______ _______ _______ _____ _____    ______ ____
ROOT
ATOM      1  C   UNL     1      -1.099   3.596   0.043  0.00  0.00    +0.000 C 
ENDROOT
BRANCH   1   2
ATOM      2  C   UNL     1      -2.054   4.807  -0.007  0.00  0.00    +0.000 C 
ATOM      3  C   UNL     1      -2.987   4.750  -1.221  0.00  0.00    +0.000 C 
BRANCH   2   4
ATOM      4  C   UNL     1      -1.266   6.111   0.018  0.00  0.00    +0.000 A 
ATOM      5  C   UNL     1      -0.336   6.425  -0.983  0.00  0.00    +0.000 A 
ATOM      6  C   UNL     1       0.414   7.600  -0.915  0.00  0.00    +0.000 A 
ATOM      7  C   UNL     1       0.251   8.474   0.160  0.00  0.00    +0.000 A 
ATOM      8  C   UNL     1      -0.675   8.193   1.165  0.00  0.00    +0.000 A 
ATOM      9  C   UNL     1      -1.437   7.018   1.077  0.00  0.00    +0.000 A 
BRANCH   8  10
ATOM     10  N   UNL     1      -0.870   9.035   2.282  0.00  0.00    +0.000 N 
ATOM     11  H   UNL     1      -1.830   9.378   2.280  0.00  0.00    +0.000 HD
BRANCH  10  12
ATOM     12  C   UNL     1       0.074  10.015   2.754  0.00  0.00    +0.000 C 
ATOM     13  C   UNL     1       1.328   9.405   3.401  0.00  0.00    +0.000 C 
ATOM     14  O   UNL     1       1.118  10.172   4.617  0.00  0.00    +0.000 OA
ATOM     15  C   UNL     1      -0.225  10.504   4.180  0.00  0.00    +0.000 C 
ENDBRANCH  10  12
ENDBRANCH   8  10
ENDBRANCH   2   4
ENDBRANCH   1   2
BRANCH   1  16
ATOM     16  O   UNL     1      -1.828   2.367   0.143  0.00  0.00    +0.000 OA
BRANCH  16  20
ATOM     17  C   UNL     1       2.524  -0.016   0.125  0.00  0.00    +0.000 C 
ATOM     18  C   UNL     1       1.019  -0.059   0.160  0.00  0.00    +0.000 A 
ATOM     19  C   UNL     1       0.324   1.170   0.132  0.00  0.00    +0.000 A 
ATOM     20  C   UNL     1      -1.072   1.220   0.165  0.00  0.00    +0.000 A 
ATOM     21  C   UNL     1      -1.787   0.024   0.226  0.00  0.00    +0.000 A 
ATOM     22  C   UNL     1      -1.118  -1.205   0.253  0.00  0.00    +0.000 A 
ATOM     23  C   UNL     1       0.288  -1.258   0.232  0.00  0.00    +0.000 A 
BRANCH  23  24
ATOM     24  C   UNL     1       0.976  -2.587   0.256  0.00  0.00    +0.000 C 
ATOM     25  N   UNL     1       0.342  -3.608   0.910  0.00  0.00    +0.000 N 
ATOM     26  O   UNL     1       2.068  -2.779  -0.257  0.00  0.00    +0.000 OA
ATOM     27  H   UNL     1      -0.448  -3.464   1.523  0.00  0.00    +0.000 HD
ATOM     28  H   UNL     1       0.861  -4.469   1.001  0.00  0.00    +0.000 HD
ENDBRANCH  23  24
ENDBRANCH  16  20
ENDBRANCH   1  16
TORSDOF 7
