REMARK  Name = 
REMARK  4 active torsions:
REMARK  status: ('A' for Active; 'I' for Inactive)
REMARK    1  A    between atoms: N_1  and  C_2
REMARK    2  A    between atoms: C_2  and  C_3
REMARK    3  A    between atoms: C_6  and  C_7
REMARK    4  A    between atoms: C_7  and  N_8
REMARK                            x       y       z     vdW  Elec       q    Type
REMARK                         _______ _______ _______ _____ _____    ______ ____
ROOT
ATOM      1  C   UNL     1       2.815   1.383  -0.265  0.00  0.00    +0.000 C 
ATOM      2  C   UNL     1       3.671   1.544   1.004  0.00  0.00    +0.000 C 
ATOM      3  C   UNL     1       4.357   2.909   1.075  0.00  0.00    +0.000 C 
ATOM      4  C   UNL     1       3.362   4.079   0.991  0.00  0.00    +0.000 C 
ATOM      5  C   UNL     1       2.483   3.925  -0.267  0.00  0.00    +0.000 C 
ATOM      6  C   UNL     1       1.816   2.549  -0.374  0.00  0.00    +0.000 C 
ENDROOT
BRANCH   1   7
ATOM      7  C   UNL     1       3.661   1.254  -1.548  0.00  0.00    +0.000 C 
BRANCH   7   8
ATOM      8  N   UNL     1       4.546   0.094  -1.491  0.00  0.00    +0.000 NA
ATOM      9  H   UNL     1       5.057   0.009  -2.367  0.00  0.00    +0.000 HD
ATOM     10  H   UNL     1       3.994  -0.757  -1.397  0.00  0.00    +0.000 HD
ENDBRANCH   7   8
ENDBRANCH   1   7
BRANCH   4  11
ATOM     11  C   UNL     1       2.487   4.230   2.252  0.00  0.00    +0.000 C 
BRANCH  11  12
ATOM     12  N   UNL     1       3.224   4.511   3.478  0.00  0.00    +0.000 N 
ATOM     13  C   UNL     1       3.618   3.549   4.376  0.00  0.00    +0.000 A 
ATOM     14  C   UNL     1       4.147   4.182   5.476  0.00  0.00    +0.000 A 
ATOM     15  C   UNL     1       4.111   5.580   5.226  0.00  0.00    +0.000 A 
ATOM     16  C   UNL     1       4.517   6.707   5.969  0.00  0.00    +0.000 A 
ATOM     17  C   UNL     1       4.361   7.984   5.420  0.00  0.00    +0.000 A 
ATOM     18  C   UNL     1       3.798   8.147   4.158  0.00  0.00    +0.000 A 
ATOM     19  C   UNL     1       3.371   7.045   3.409  0.00  0.00    +0.000 A 
ATOM     20  C   UNL     1       3.541   5.765   3.963  0.00  0.00    +0.000 A 
ENDBRANCH  11  12
ENDBRANCH   4  11
TORSDOF 4
