REMARK  Name = 
REMARK  5 active torsions:
REMARK  status: ('A' for Active; 'I' for Inactive)
REMARK    1  A    between atoms: C_3  and  C_4
REMARK    2  A    between atoms: C_4  and  C_5
REMARK    3  A    between atoms: C_5  and  N_6
REMARK    4  A    between atoms: N_6  and  C_7
REMARK    5  A    between atoms: C_14  and  N_15
REMARK                            x       y       z     vdW  Elec       q    Type
REMARK                         _______ _______ _______ _____ _____    ______ ____
ROOT
ATOM      1  C   UNL     1       1.429  -0.123  -0.084  0.00  0.00    +0.000 A 
ATOM      2  C   UNL     1       0.601  -1.238  -0.085  0.00  0.00    +0.000 A 
ATOM      3  C   UNL     1      -0.789  -1.098   0.045  0.00  0.00    +0.000 A 
ATOM      4  C   UNL     1      -1.321   0.201   0.181  0.00  0.00    +0.000 A 
ATOM      5  C   UNL     1      -0.503   1.342   0.209  0.00  0.00    +0.000 A 
ATOM      6  C   UNL     1       0.879   1.144   0.059  0.00  0.00    +0.000 A 
ENDROOT
BRANCH   5   7
ATOM      7  N   UNL     1      -0.989   2.636   0.333  0.00  0.00    +0.000 N 
ATOM      8  C   UNL     1      -2.368   2.979  -0.012  0.00  0.00    +0.000 C 
ATOM      9  C   UNL     1      -2.381   4.413  -0.552  0.00  0.00    +0.000 C 
ATOM     10  C   UNL     1      -1.714   5.399   0.410  0.00  0.00    +0.000 C 
ATOM     11  C   UNL     1      -0.331   4.915   0.844  0.00  0.00    +0.000 C 
ATOM     12  C   UNL     1      -0.393   3.484   1.372  0.00  0.00    +0.000 C 
ENDBRANCH   5   7
BRANCH   3  13
ATOM     13  C   UNL     1      -1.738  -2.285   0.052  0.00  0.00    +0.000 C 
BRANCH  13  14
ATOM     14  C   UNL     1      -1.037  -3.648  -0.008  0.00  0.00    +0.000 C 
BRANCH  14  15
ATOM     15  N   UNL     1      -1.976  -4.772   0.027  0.00  0.00    +0.000 N 
ATOM     16  H   UNL     1      -2.726  -4.667  -0.654  0.00  0.00    +0.000 HD
BRANCH  15  17
ATOM     17  C   UNL     1      -1.386  -6.051  -0.068  0.00  0.00    +0.000 A 
ATOM     18  C   UNL     1      -0.124  -6.355   0.453  0.00  0.00    +0.000 A 
ATOM     19  C   UNL     1       0.364  -7.649   0.352  0.00  0.00    +0.000 A 
ATOM     20  N   UNL     1      -0.323  -8.666  -0.201  0.00  0.00    +0.000 NA
ATOM     21  C   UNL     1      -1.563  -8.374  -0.646  0.00  0.00    +0.000 A 
ATOM     22  C   UNL     1      -2.133  -7.109  -0.587  0.00  0.00    +0.000 A 
ENDBRANCH  15  17
ENDBRANCH  14  15
ENDBRANCH  13  14
ENDBRANCH   3  13
TORSDOF 5
