REMARK  Name = 
REMARK  8 active torsions:
REMARK  status: ('A' for Active; 'I' for Inactive)
REMARK    1  A    between atoms: N_1  and  C_2
REMARK    2  A    between atoms: C_2  and  C_3
REMARK    3  A    between atoms: C_3  and  C_4
REMARK    4  A    between atoms: C_7  and  C_8
REMARK    5  A    between atoms: C_8  and  N_9
REMARK    6  A    between atoms: C_15  and  C_16
REMARK    7  A    between atoms: N_18  and  C_19
REMARK    8  A    between atoms: C_19  and  C_20
REMARK                            x       y       z     vdW  Elec       q    Type
REMARK                         _______ _______ _______ _____ _____    ______ ____
ROOT
ATOM      1  N   UNL     1       9.327   2.087   2.030  0.00  0.00    +0.000 N 
ATOM      2  C   UNL     1       9.982   3.082   1.338  0.00  0.00    +0.000 A 
ATOM      3  C   UNL     1      10.221   4.124   2.210  0.00  0.00    +0.000 A 
ATOM      4  C   UNL     1       9.693   3.752   3.476  0.00  0.00    +0.000 A 
ATOM      5  C   UNL     1       9.601   4.376   4.729  0.00  0.00    +0.000 A 
ATOM      6  C   UNL     1       8.987   3.670   5.761  0.00  0.00    +0.000 A 
ATOM      7  C   UNL     1       8.507   2.388   5.509  0.00  0.00    +0.000 A 
ATOM      8  N   UNL     1       8.562   1.733   4.309  0.00  0.00    +0.000 NA
ATOM      9  C   UNL     1       9.158   2.469   3.342  0.00  0.00    +0.000 A 
ENDROOT
BRANCH   7  10
ATOM     10  C   UNL     1       7.871   1.631   6.642  0.00  0.00    +0.000 C 
ATOM     11  O   UNL     1       7.683   2.144   7.741  0.00  0.00    +0.000 OA
ATOM     12  N   UNL     1       7.524   0.326   6.362  0.00  0.00    +0.000 N 
ATOM     13  H   UNL     1       7.602   0.035   5.391  0.00  0.00    +0.000 HD
BRANCH  12  14
ATOM     14  C   UNL     1       6.803  -0.492   7.336  0.00  0.00    +0.000 C 
BRANCH  14  15
ATOM     15  C   UNL     1       5.278  -0.330   7.361  0.00  0.00    +0.000 C 
ATOM     16  F   UNL     1       4.832   0.549   6.436  0.00  0.00    +0.000 F 
ATOM     17  F   UNL     1       4.680  -1.519   7.095  0.00  0.00    +0.000 F 
ATOM     18  F   UNL     1       4.833   0.076   8.570  0.00  0.00    +0.000 F 
ENDBRANCH  14  15
ENDBRANCH  12  14
ENDBRANCH   7  10
BRANCH   1  19
ATOM     19  C   UNL     1       8.768   0.885   1.421  0.00  0.00    +0.000 C 
BRANCH  19  23
ATOM     20  C   UNL     1      11.684  -2.292   0.967  0.00  0.00    +0.000 A 
ATOM     21  C   UNL     1      11.304  -1.850   2.240  0.00  0.00    +0.000 A 
ATOM     22  C   UNL     1      10.363  -0.827   2.388  0.00  0.00    +0.000 A 
ATOM     23  C   UNL     1       9.781  -0.223   1.265  0.00  0.00    +0.000 A 
ATOM     24  C   UNL     1      10.132  -0.695  -0.007  0.00  0.00    +0.000 A 
ATOM     25  C   UNL     1      11.072  -1.722  -0.155  0.00  0.00    +0.000 A 
BRANCH  20  26
ATOM     26  C   UNL     1      12.762  -3.338   0.812  0.00  0.00    +0.000 C 
BRANCH  26  27
ATOM     27  C   UNL     1      12.230  -4.773   0.858  0.00  0.00    +0.000 C 
BRANCH  27  28
ATOM     28  N   UNL     1      13.332  -5.732   0.763  0.00  0.00    +0.000 NA
ATOM     29  H   UNL     1      12.962  -6.681   0.826  0.00  0.00    +0.000 HD
ATOM     30  H   UNL     1      13.956  -5.618   1.560  0.00  0.00    +0.000 HD
ENDBRANCH  27  28
ENDBRANCH  26  27
ENDBRANCH  20  26
ENDBRANCH  19  23
ENDBRANCH   1  19
TORSDOF 8
