REMARK  Name = 
REMARK  4 active torsions:
REMARK  status: ('A' for Active; 'I' for Inactive)
REMARK    1  A    between atoms: C_2  and  C_4
REMARK    2  A    between atoms: N_8  and  C_9
REMARK    3  A    between atoms: C_9  and  C_10
REMARK    4  A    between atoms: C_13  and  C_14
REMARK                            x       y       z     vdW  Elec       q    Type
REMARK                         _______ _______ _______ _____ _____    ______ ____
ROOT
ATOM      1  C   UNL     1       3.697   3.486   0.821  0.00  0.00    +0.000 A 
ATOM      2  C   UNL     1       2.936   3.331   1.976  0.00  0.00    +0.000 A 
ATOM      3  C   UNL     1       3.529   2.781   3.116  0.00  0.00    +0.000 A 
ATOM      4  C   UNL     1       4.861   2.389   3.082  0.00  0.00    +0.000 A 
ATOM      5  N   UNL     1       5.501   1.737   4.137  0.00  0.00    +0.000 N 
ATOM      6  N   UNL     1       5.607   2.534   1.964  0.00  0.00    +0.000 NA
ATOM      7  C   UNL     1       5.017   3.070   0.863  0.00  0.00    +0.000 A 
ATOM      8  H   UNL     1       6.476   1.632   3.862  0.00  0.00    +0.000 HD
ENDROOT
BRANCH   1  10
ATOM      9  N   UNL     1       2.055   4.844  -0.350  0.00  0.00    +0.000 N 
ATOM     10  C   UNL     1       3.147   4.027  -0.442  0.00  0.00    +0.000 C 
ATOM     11  O   UNL     1       3.659   3.769  -1.522  0.00  0.00    +0.000 OA
ATOM     12  H   UNL     1       1.731   5.262  -1.214  0.00  0.00    +0.000 HD
ATOM     13  H   UNL     1       1.752   5.264   0.514  0.00  0.00    +0.000 HD
ENDBRANCH   1  10
BRANCH   5  14
ATOM     14  C   UNL     1       5.228   1.933   5.567  0.00  0.00    +0.000 C 
ATOM     15  C   UNL     1       5.103   0.638   6.366  0.00  0.00    +0.000 C 
ATOM     16  C   UNL     1       3.923   1.539   6.239  0.00  0.00    +0.000 C 
BRANCH  14  17
ATOM     17  C   UNL     1       5.996   3.091   6.203  0.00  0.00    +0.000 A 
ATOM     18  C   UNL     1       5.466   4.392   6.221  0.00  0.00    +0.000 A 
ATOM     19  C   UNL     1       6.103   5.433   6.904  0.00  0.00    +0.000 A 
ATOM     20  C   UNL     1       7.303   5.204   7.589  0.00  0.00    +0.000 A 
ATOM     21  C   UNL     1       7.874   3.926   7.532  0.00  0.00    +0.000 A 
ATOM     22  C   UNL     1       7.233   2.892   6.840  0.00  0.00    +0.000 A 
BRANCH  20  23
ATOM     23  C   UNL     1       7.967   6.291   8.397  0.00  0.00    +0.000 C 
ATOM     24  F   UNL     1       7.297   7.477   8.371  0.00  0.00    +0.000 F 
ATOM     25  F   UNL     1       8.081   5.960   9.713  0.00  0.00    +0.000 F 
ATOM     26  F   UNL     1       9.230   6.565   7.971  0.00  0.00    +0.000 F 
ENDBRANCH  20  23
ENDBRANCH  14  17
ENDBRANCH   5  14
TORSDOF 4
