REMARK  Name = 
REMARK  7 active torsions:
REMARK  status: ('A' for Active; 'I' for Inactive)
REMARK    1  A    between atoms: C_1  and  C_2
REMARK    2  A    between atoms: C_2  and  N_3
REMARK    3  A    between atoms: C_2  and  C_16
REMARK    4  A    between atoms: C_4  and  C_6
REMARK    5  A    between atoms: C_19  and  C_20
REMARK    6  A    between atoms: C_20  and  O_21
REMARK    7  A    between atoms: O_21  and  C_22
REMARK                            x       y       z     vdW  Elec       q    Type
REMARK                         _______ _______ _______ _____ _____    ______ ____
ROOT
ATOM      1  C   UNL     1       0.962  -0.047   0.096  0.00  0.00    +0.000 C 
ATOM      2  C   UNL     1       2.487  -0.037  -0.060  0.00  0.00    +0.000 C 
ENDROOT
BRANCH   2   3
ATOM      3  C   UNL     1       3.057   1.260   0.498  0.00  0.00    +0.000 A 
ATOM      4  C   UNL     1       2.711   2.493  -0.052  0.00  0.00    +0.000 A 
ATOM      5  N   UNL     1       3.220   3.672   0.381  0.00  0.00    +0.000 NA
ATOM      6  C   UNL     1       4.110   3.593   1.403  0.00  0.00    +0.000 A 
ATOM      7  C   UNL     1       4.442   2.366   1.967  0.00  0.00    +0.000 A 
ATOM      8  N   UNL     1       3.935   1.186   1.531  0.00  0.00    +0.000 NA
BRANCH   6   9
ATOM      9  C   UNL     1       4.789   4.858   1.866  0.00  0.00    +0.000 C 
BRANCH   9  10
ATOM     10  O   UNL     1       4.076   5.455   2.954  0.00  0.00    +0.000 OA
BRANCH  10  11
ATOM     11  C   UNL     1       4.712   6.593   3.422  0.00  0.00    +0.000 A 
ATOM     12  C   UNL     1       4.075   7.297   4.419  0.00  0.00    +0.000 A 
ATOM     13  C   UNL     1       4.747   8.401   4.884  0.00  0.00    +0.000 A 
ATOM     14  N   UNL     1       5.946   8.794   4.415  0.00  0.00    +0.000 NA
ATOM     15  C   UNL     1       6.467   8.033   3.443  0.00  0.00    +0.000 A 
ATOM     16  N   UNL     1       5.911   6.936   2.917  0.00  0.00    +0.000 NA
ENDBRANCH  10  11
ENDBRANCH   9  10
ENDBRANCH   6   9
ENDBRANCH   2   3
BRANCH   2  17
ATOM     17  N   UNL     1       2.912  -0.229  -1.445  0.00  0.00    +0.000 N 
ATOM     18  C   UNL     1       2.628  -1.373  -2.152  0.00  0.00    +0.000 C 
ATOM     19  O   UNL     1       1.919  -2.270  -1.709  0.00  0.00    +0.000 OA
ATOM     20  H   UNL     1       3.755   0.272  -1.718  0.00  0.00    +0.000 HD
BRANCH  18  21
ATOM     21  C   UNL     1       3.164  -1.439  -3.517  0.00  0.00    +0.000 A 
ATOM     22  C   UNL     1       2.479  -2.152  -4.491  0.00  0.00    +0.000 A 
ATOM     23  S   UNL     1       3.234  -2.115  -6.020  0.00  0.00    +0.000 S 
ATOM     24  C   UNL     1       4.528  -1.191  -5.418  0.00  0.00    +0.000 A 
ATOM     25  N   UNL     1       5.572  -0.839  -6.218  0.00  0.00    +0.000 NA
ATOM     26  C   UNL     1       6.502  -0.174  -5.617  0.00  0.00    +0.000 A 
ATOM     27  N   UNL     1       6.477   0.186  -4.294  0.00  0.00    +0.000 N 
ATOM     28  C   UNL     1       5.415  -0.090  -3.468  0.00  0.00    +0.000 A 
ATOM     29  O   UNL     1       5.364   0.334  -2.317  0.00  0.00    +0.000 OA
ATOM     30  C   UNL     1       4.365  -0.878  -4.080  0.00  0.00    +0.000 A 
ATOM     31  H   UNL     1       7.225   0.732  -3.893  0.00  0.00    +0.000 HD
ENDBRANCH  18  21
ENDBRANCH   2  17
TORSDOF 6
