REMARK  Name = 
REMARK  10 active torsions:
REMARK  status: ('A' for Active; 'I' for Inactive)
REMARK    1  A    between atoms: N_1  and  C_2
REMARK    2  A    between atoms: C_2  and  C_3
REMARK    3  A    between atoms: C_3  and  N_4
REMARK    4  A    between atoms: N_4  and  C_5
REMARK    5  A    between atoms: C_5  and  C_6
REMARK    6  A    between atoms: C_9  and  C_10
REMARK    7  A    between atoms: C_10  and  C_11
REMARK    8  A    between atoms: C_14  and  C_15
REMARK    9  A    between atoms: C_15  and  N_16
REMARK   10  A    between atoms: C_17  and  C_19
REMARK                            x       y       z     vdW  Elec       q    Type
REMARK                         _______ _______ _______ _____ _____    ______ ____
ROOT
ATOM      1  C   UNL     1      11.292   1.212   2.928  0.00  0.00    +0.000 A 
ATOM      2  C   UNL     1      11.027  -0.155   2.895  0.00  0.00    +0.000 A 
ATOM      3  C   UNL     1      11.632  -0.986   3.839  0.00  0.00    +0.000 A 
ATOM      4  C   UNL     1      12.490  -0.443   4.798  0.00  0.00    +0.000 A 
ATOM      5  C   UNL     1      12.719   0.927   4.732  0.00  0.00    +0.000 A 
ATOM      6  N   UNL     1      12.142   1.760   3.832  0.00  0.00    +0.000 NA
ENDROOT
BRANCH   1   7
ATOM      7  C   UNL     1      10.600   2.148   1.962  0.00  0.00    +0.000 C 
BRANCH   7  11
ATOM      8  C   UNL     1       6.982   3.896   3.386  0.00  0.00    +0.000 A 
ATOM      9  C   UNL     1       6.931   3.116   2.235  0.00  0.00    +0.000 A 
ATOM     10  C   UNL     1       8.097   2.512   1.776  0.00  0.00    +0.000 A 
ATOM     11  C   UNL     1       9.295   2.709   2.466  0.00  0.00    +0.000 A 
ATOM     12  C   UNL     1       9.249   3.496   3.614  0.00  0.00    +0.000 A 
ATOM     13  N   UNL     1       8.126   4.083   4.091  0.00  0.00    +0.000 NA
BRANCH   8  14
ATOM     14  C   UNL     1       5.700   4.486   3.940  0.00  0.00    +0.000 C 
BRANCH  14  15
ATOM     15  N   UNL     1       4.684   3.464   4.277  0.00  0.00    +0.000 NA
ATOM     16  H   UNL     1       3.903   3.960   4.713  0.00  0.00    +0.000 HD
BRANCH  15  17
ATOM     17  C   UNL     1       5.197   2.527   5.298  0.00  0.00    +0.000 C 
BRANCH  17  18
ATOM     18  C   UNL     1       5.530   3.210   6.638  0.00  0.00    +0.000 C 
BRANCH  18  19
ATOM     19  N   UNL     1       4.355   3.913   7.166  0.00  0.00    +0.000 NA
ATOM     20  H   UNL     1       4.606   4.347   8.053  0.00  0.00    +0.000 HD
ATOM     21  H   UNL     1       3.633   3.225   7.378  0.00  0.00    +0.000 HD
ENDBRANCH  18  19
ENDBRANCH  17  18
ENDBRANCH  15  17
ENDBRANCH  14  15
ENDBRANCH   8  14
ENDBRANCH   7  11
ENDBRANCH   1   7
BRANCH   4  22
ATOM     22  C   UNL     1      13.165  -1.284   5.844  0.00  0.00    +0.000 C 
BRANCH  22  23
ATOM     23  N   UNL     1      14.451  -1.760   5.400  0.00  0.00    +0.000 N 
ATOM     24  C   UNL     1      15.228  -2.579   6.182  0.00  0.00    +0.000 C 
ATOM     25  O   UNL     1      14.855  -2.988   7.278  0.00  0.00    +0.000 OA
ATOM     26  H   UNL     1      14.898  -1.239   4.654  0.00  0.00    +0.000 HD
BRANCH  24  27
ATOM     27  C   UNL     1      16.511  -2.994   5.594  0.00  0.00    +0.000 A 
ATOM     28  C   UNL     1      17.099  -4.190   5.983  0.00  0.00    +0.000 A 
ATOM     29  S   UNL     1      18.554  -4.535   5.159  0.00  0.00    +0.000 S 
ATOM     30  C   UNL     1      18.477  -3.073   4.292  0.00  0.00    +0.000 A 
ATOM     31  N   UNL     1      19.456  -2.725   3.412  0.00  0.00    +0.000 NA
ATOM     32  C   UNL     1      19.284  -1.576   2.838  0.00  0.00    +0.000 A 
ATOM     33  N   UNL     1      18.209  -0.754   3.064  0.00  0.00    +0.000 N 
ATOM     34  C   UNL     1      17.183  -1.080   3.921  0.00  0.00    +0.000 A 
ATOM     35  O   UNL     1      16.205  -0.345   4.059  0.00  0.00    +0.000 OA
ATOM     36  C   UNL     1      17.343  -2.347   4.605  0.00  0.00    +0.000 A 
ATOM     37  H   UNL     1      18.112   0.125   2.574  0.00  0.00    +0.000 HD
ENDBRANCH  24  27
ENDBRANCH  22  23
ENDBRANCH   4  22
TORSDOF 10
