REMARK  Name = 
REMARK  10 active torsions:
REMARK  status: ('A' for Active; 'I' for Inactive)
REMARK    1  A    between atoms: C_2  and  C_4
REMARK    2  A    between atoms: C_4  and  C_5
REMARK    3  A    between atoms: C_5  and  C_6
REMARK    4  A    between atoms: C_6  and  N_7
REMARK    5  A    between atoms: C_6  and  C_29
REMARK    6  A    between atoms: N_7  and  C_8
REMARK    7  A    between atoms: C_8  and  C_9
REMARK    8  A    between atoms: C_12  and  C_13
REMARK    9  A    between atoms: C_13  and  N_14
REMARK   10  A    between atoms: C_15  and  C_17
REMARK                            x       y       z     vdW  Elec       q    Type
REMARK                         _______ _______ _______ _____ _____    ______ ____
ROOT
ATOM      1  C   UNL     1       3.432   4.955  -0.445  0.00  0.00    +0.000 A 
ATOM      2  C   UNL     1       2.664   5.006   0.717  0.00  0.00    +0.000 A 
ATOM      3  C   UNL     1       2.411   6.241   1.307  0.00  0.00    +0.000 A 
ATOM      4  C   UNL     1       2.939   7.402   0.740  0.00  0.00    +0.000 A 
ATOM      5  C   UNL     1       3.669   7.260  -0.436  0.00  0.00    +0.000 A 
ATOM      6  N   UNL     1       3.927   6.075  -1.040  0.00  0.00    +0.000 NA
ENDROOT
BRANCH   1   7
ATOM      7  C   UNL     1       3.734   3.614  -1.097  0.00  0.00    +0.000 C 
BRANCH   7   8
ATOM      8  N   UNL     1       5.183   3.375  -1.178  0.00  0.00    +0.000 NA
ATOM      9  H   UNL     1       5.583   4.164  -1.685  0.00  0.00    +0.000 HD
BRANCH   8  10
ATOM     10  C   UNL     1       5.536   2.098  -1.827  0.00  0.00    +0.000 C 
BRANCH  10  11
ATOM     11  C   UNL     1       5.062   0.886  -1.014  0.00  0.00    +0.000 A 
ATOM     12  C   UNL     1       5.772   0.472   0.114  0.00  0.00    +0.000 A 
ATOM     13  C   UNL     1       5.297  -0.612   0.853  0.00  0.00    +0.000 A 
ATOM     14  C   UNL     1       4.128  -1.247   0.457  0.00  0.00    +0.000 A 
ATOM     15  C   UNL     1       3.471  -0.766  -0.660  0.00  0.00    +0.000 A 
ATOM     16  N   UNL     1       3.903   0.283  -1.389  0.00  0.00    +0.000 NA
ENDBRANCH  10  11
BRANCH  10  17
ATOM     17  C   UNL     1       5.111   1.969  -3.311  0.00  0.00    +0.000 C 
BRANCH  17  18
ATOM     18  C   UNL     1       5.633   3.088  -4.210  0.00  0.00    +0.000 C 
BRANCH  18  20
ATOM     19  N   UNL     1       5.659   3.881  -6.489  0.00  0.00    +0.000 N 
ATOM     20  C   UNL     1       5.203   2.901  -5.653  0.00  0.00    +0.000 C 
ATOM     21  O   UNL     1       4.517   1.984  -6.074  0.00  0.00    +0.000 OA
ATOM     22  H   UNL     1       5.370   3.841  -7.458  0.00  0.00    +0.000 HD
ATOM     23  H   UNL     1       6.161   4.694  -6.164  0.00  0.00    +0.000 HD
ENDBRANCH  18  20
ENDBRANCH  17  18
ENDBRANCH  10  17
ENDBRANCH   8  10
ENDBRANCH   7   8
ENDBRANCH   1   7
BRANCH   4  24
ATOM     24  C   UNL     1       2.709   8.746   1.361  0.00  0.00    +0.000 C 
BRANCH  24  25
ATOM     25  N   UNL     1       1.511   9.367   0.857  0.00  0.00    +0.000 N 
ATOM     26  C   UNL     1       1.191  10.656   1.201  0.00  0.00    +0.000 C 
ATOM     27  O   UNL     1       1.923  11.337   1.915  0.00  0.00    +0.000 OA
ATOM     28  H   UNL     1       0.790   8.758   0.480  0.00  0.00    +0.000 HD
BRANCH  26  29
ATOM     29  C   UNL     1      -0.038  11.207   0.619  0.00  0.00    +0.000 A 
ATOM     30  C   UNL     1      -0.179  12.583   0.495  0.00  0.00    +0.000 A 
ATOM     31  S   UNL     1      -1.642  13.057  -0.240  0.00  0.00    +0.000 S 
ATOM     32  C   UNL     1      -2.162  11.443  -0.373  0.00  0.00    +0.000 A 
ATOM     33  N   UNL     1      -3.378  11.141  -0.901  0.00  0.00    +0.000 NA
ATOM     34  C   UNL     1      -3.657   9.881  -0.914  0.00  0.00    +0.000 A 
ATOM     35  N   UNL     1      -2.826   8.893  -0.453  0.00  0.00    +0.000 N 
ATOM     36  C   UNL     1      -1.575   9.146   0.057  0.00  0.00    +0.000 A 
ATOM     37  O   UNL     1      -0.833   8.237   0.415  0.00  0.00    +0.000 OA
ATOM     38  C   UNL     1      -1.221  10.552   0.113  0.00  0.00    +0.000 A 
ATOM     39  H   UNL     1      -3.100   7.922  -0.504  0.00  0.00    +0.000 HD
ENDBRANCH  26  29
ENDBRANCH  24  25
ENDBRANCH   4  24
TORSDOF 10
