REMARK  Name = 
REMARK  7 active torsions:
REMARK  status: ('A' for Active; 'I' for Inactive)
REMARK    1  A    between atoms: N_1  and  C_2
REMARK    2  A    between atoms: C_2  and  C_3
REMARK    3  A    between atoms: C_6  and  O_7
REMARK    4  A    between atoms: O_7  and  C_8
REMARK    5  A    between atoms: C_8  and  C_9
REMARK    6  A    between atoms: C_11  and  C_12
REMARK    7  A    between atoms: C_17  and  C_18
REMARK                            x       y       z     vdW  Elec       q    Type
REMARK                         _______ _______ _______ _____ _____    ______ ____
ROOT
ATOM      1  C   UNL     1       4.167   3.674   6.717  0.00  0.00    +0.000 A 
ATOM      2  C   UNL     1       4.872   4.845   7.036  0.00  0.00    +0.000 A 
ATOM      3  C   UNL     1       5.078   5.231   8.367  0.00  0.00    +0.000 A 
ATOM      4  C   UNL     1       4.557   4.425   9.392  0.00  0.00    +0.000 A 
ATOM      5  C   UNL     1       3.832   3.258   9.097  0.00  0.00    +0.000 A 
ATOM      6  C   UNL     1       3.647   2.890   7.754  0.00  0.00    +0.000 A 
ENDROOT
BRANCH   3   7
ATOM      7  C   UNL     1       5.829   6.499   8.697  0.00  0.00    +0.000 C 
ATOM      8  F   UNL     1       6.225   7.198   7.595  0.00  0.00    +0.000 F 
ATOM      9  F   UNL     1       5.081   7.365   9.435  0.00  0.00    +0.000 F 
ATOM     10  F   UNL     1       6.958   6.265   9.418  0.00  0.00    +0.000 F 
ENDBRANCH   3   7
BRANCH   5  11
ATOM     11  C   UNL     1       3.231   2.410  10.193  0.00  0.00    +0.000 C 
ATOM     12  F   UNL     1       3.435   2.916  11.441  0.00  0.00    +0.000 F 
ATOM     13  F   UNL     1       1.882   2.277  10.062  0.00  0.00    +0.000 F 
ATOM     14  F   UNL     1       3.734   1.146  10.215  0.00  0.00    +0.000 F 
ENDBRANCH   5  11
BRANCH   1  15
ATOM     15  C   UNL     1       3.911   3.350   5.264  0.00  0.00    +0.000 C 
BRANCH  15  16
ATOM     16  O   UNL     1       3.948   1.942   5.018  0.00  0.00    +0.000 OA
BRANCH  16  20
ATOM     17  C   UNL     1       4.893   0.836   1.099  0.00  0.00    +0.000 A 
ATOM     18  C   UNL     1       5.093  -0.030   2.185  0.00  0.00    +0.000 A 
ATOM     19  C   UNL     1       4.731   0.354   3.480  0.00  0.00    +0.000 A 
ATOM     20  C   UNL     1       4.178   1.614   3.706  0.00  0.00    +0.000 A 
ATOM     21  C   UNL     1       3.914   2.453   2.620  0.00  0.00    +0.000 A 
ATOM     22  C   UNL     1       4.284   2.073   1.329  0.00  0.00    +0.000 A 
BRANCH  17  23
ATOM     23  C   UNL     1       5.352   0.461  -0.286  0.00  0.00    +0.000 C 
BRANCH  23  24
ATOM     24  N   UNL     1       4.690  -0.743  -0.765  0.00  0.00    +0.000 NA
ATOM     25  H   UNL     1       4.917  -0.876  -1.748  0.00  0.00    +0.000 HD
ATOM     26  H   UNL     1       3.682  -0.604  -0.716  0.00  0.00    +0.000 HD
ENDBRANCH  23  24
ENDBRANCH  17  23
ENDBRANCH  16  20
ENDBRANCH  15  16
ENDBRANCH   1  15
TORSDOF 7
