REMARK  Name = 
REMARK  5 active torsions:
REMARK  status: ('A' for Active; 'I' for Inactive)
REMARK    1  A    between atoms: C_2  and  C_4
REMARK    2  A    between atoms: C_7  and  N_8
REMARK    3  A    between atoms: N_8  and  C_9
REMARK    4  A    between atoms: C_9  and  C_10
REMARK    5  A    between atoms: C_14  and  N_15
REMARK                            x       y       z     vdW  Elec       q    Type
REMARK                         _______ _______ _______ _____ _____    ______ ____
ROOT
ATOM      1  N   UNL     1       5.610   4.234   2.360  0.00  0.00    +0.000 N 
ATOM      2  H   UNL     1       6.121   4.672   1.597  0.00  0.00    +0.000 HD
ENDROOT
BRANCH   1   6
ATOM      3  C   UNL     1       3.630   0.646   1.315  0.00  0.00    +0.000 A 
ATOM      4  C   UNL     1       2.957   1.611   2.066  0.00  0.00    +0.000 A 
ATOM      5  C   UNL     1       3.599   2.806   2.401  0.00  0.00    +0.000 A 
ATOM      6  C   UNL     1       4.905   3.089   1.971  0.00  0.00    +0.000 A 
ATOM      7  C   UNL     1       5.565   2.107   1.218  0.00  0.00    +0.000 A 
ATOM      8  C   UNL     1       4.939   0.895   0.897  0.00  0.00    +0.000 A 
BRANCH   3  10
ATOM      9  N   UNL     1       1.640  -0.695   0.915  0.00  0.00    +0.000 N 
ATOM     10  C   UNL     1       3.001  -0.661   1.014  0.00  0.00    +0.000 C 
ATOM     11  O   UNL     1       3.675  -1.675   0.840  0.00  0.00    +0.000 OA
ATOM     12  H   UNL     1       1.226  -1.574   0.635  0.00  0.00    +0.000 HD
ATOM     13  H   UNL     1       1.086   0.144   0.807  0.00  0.00    +0.000 HD
ENDBRANCH   3  10
ENDBRANCH   1   6
BRANCH   1  14
ATOM     14  C   UNL     1       4.962   5.178   3.255  0.00  0.00    +0.000 C 
BRANCH  14  15
ATOM     15  C   UNL     1       5.850   6.351   3.586  0.00  0.00    +0.000 A 
ATOM     16  C   UNL     1       5.434   7.650   3.268  0.00  0.00    +0.000 A 
ATOM     17  C   UNL     1       6.166   8.747   3.716  0.00  0.00    +0.000 A 
ATOM     18  C   UNL     1       7.286   8.551   4.512  0.00  0.00    +0.000 A 
ATOM     19  C   UNL     1       7.731   7.268   4.854  0.00  0.00    +0.000 A 
ATOM     20  C   UNL     1       7.020   6.175   4.331  0.00  0.00    +0.000 A 
BRANCH  19  21
ATOM     21  N   UNL     1       8.790   7.091   5.705  0.00  0.00    +0.000 N 
ATOM     22  C   UNL     1       9.674   5.927   5.611  0.00  0.00    +0.000 C 
ATOM     23  C   UNL     1       9.706   5.175   6.944  0.00  0.00    +0.000 C 
ATOM     24  O   UNL     1      10.043   6.050   8.036  0.00  0.00    +0.000 OA
ATOM     25  C   UNL     1       9.082   7.116   8.141  0.00  0.00    +0.000 C 
ATOM     26  C   UNL     1       9.029   7.967   6.858  0.00  0.00    +0.000 C 
ENDBRANCH  19  21
ENDBRANCH  14  15
ENDBRANCH   1  14
TORSDOF 5
