REMARK  Name = 
REMARK  7 active torsions:
REMARK  status: ('A' for Active; 'I' for Inactive)
REMARK    1  A    between atoms: C_2  and  C_4
REMARK    2  A    between atoms: C_7  and  N_8
REMARK    3  A    between atoms: N_8  and  C_9
REMARK    4  A    between atoms: C_9  and  C_10
REMARK    5  A    between atoms: C_10  and  C_13
REMARK    6  A    between atoms: C_17  and  O_18
REMARK    7  A    between atoms: O_18  and  C_19
REMARK                            x       y       z     vdW  Elec       q    Type
REMARK                         _______ _______ _______ _____ _____    ______ ____
ROOT
ATOM      1  C   UNL     1       5.177  -3.842   4.597  0.00  0.00    +0.000 C 
ENDROOT
BRANCH   1   2
ATOM      2  C   UNL     1       6.225  -4.262   5.659  0.00  0.00    +0.000 C 
ATOM      3  F   UNL     1       7.471  -4.188   5.100  0.00  0.00    +0.000 F 
ATOM      4  F   UNL     1       6.224  -3.317   6.649  0.00  0.00    +0.000 F 
BRANCH   2   5
ATOM      5  C   UNL     1       5.935  -5.649   6.195  0.00  0.00    +0.000 A 
ATOM      6  C   UNL     1       6.472  -6.782   5.567  0.00  0.00    +0.000 A 
ATOM      7  C   UNL     1       6.237  -8.055   6.088  0.00  0.00    +0.000 A 
ATOM      8  C   UNL     1       5.454  -8.216   7.235  0.00  0.00    +0.000 A 
ATOM      9  C   UNL     1       4.888  -7.101   7.847  0.00  0.00    +0.000 A 
ATOM     10  C   UNL     1       5.134  -5.825   7.332  0.00  0.00    +0.000 A 
BRANCH   9  11
ATOM     11  O   UNL     1       4.116  -7.127   8.982  0.00  0.00    +0.000 OA
BRANCH  11  12
ATOM     12  C   UNL     1       3.427  -8.346   9.338  0.00  0.00    +0.000 C 
ATOM     13  C   UNL     1       2.257  -8.801   8.455  0.00  0.00    +0.000 C 
ATOM     14  O   UNL     1       1.324  -8.741   9.557  0.00  0.00    +0.000 OA
ATOM     15  C   UNL     1       2.344  -8.187  10.418  0.00  0.00    +0.000 C 
ENDBRANCH  11  12
ENDBRANCH   9  11
ENDBRANCH   2   5
ENDBRANCH   1   2
BRANCH   1  16
ATOM     16  N   UNL     1       5.425  -2.494   4.058  0.00  0.00    +0.000 N 
ATOM     17  H   UNL     1       5.823  -1.833   4.721  0.00  0.00    +0.000 HD
BRANCH  16  21
ATOM     18  C   UNL     1       3.145  -0.773   0.963  0.00  0.00    +0.000 A 
ATOM     19  C   UNL     1       2.775  -2.018   1.478  0.00  0.00    +0.000 A 
ATOM     20  C   UNL     1       3.509  -2.589   2.524  0.00  0.00    +0.000 A 
ATOM     21  C   UNL     1       4.601  -1.928   3.094  0.00  0.00    +0.000 A 
ATOM     22  C   UNL     1       4.963  -0.684   2.560  0.00  0.00    +0.000 A 
ATOM     23  C   UNL     1       4.247  -0.110   1.501  0.00  0.00    +0.000 A 
BRANCH  18  25
ATOM     24  N   UNL     1       1.112  -0.488  -0.346  0.00  0.00    +0.000 N 
ATOM     25  C   UNL     1       2.430  -0.161  -0.185  0.00  0.00    +0.000 C 
ATOM     26  O   UNL     1       2.982   0.626  -0.943  0.00  0.00    +0.000 OA
ATOM     27  H   UNL     1       0.615   0.011  -1.073  0.00  0.00    +0.000 HD
ATOM     28  H   UNL     1       0.567  -0.912   0.391  0.00  0.00    +0.000 HD
ENDBRANCH  18  25
ENDBRANCH  16  21
ENDBRANCH   1  16
TORSDOF 7
