REMARK  Name = 
REMARK  7 active torsions:
REMARK  status: ('A' for Active; 'I' for Inactive)
REMARK    1  A    between atoms: N_1  and  C_2
REMARK    2  A    between atoms: C_2  and  C_3
REMARK    3  A    between atoms: C_3  and  N_4
REMARK    4  A    between atoms: C_3  and  C_17
REMARK    5  A    between atoms: C_5  and  C_7
REMARK    6  A    between atoms: C_20  and  C_21
REMARK    7  A    between atoms: C_21  and  C_22
REMARK                            x       y       z     vdW  Elec       q    Type
REMARK                         _______ _______ _______ _____ _____    ______ ____
ROOT
ATOM      1  C   UNL     1       2.812   1.303   0.017  0.00  0.00    +0.000 C 
ENDROOT
BRANCH   1   2
ATOM      2  C   UNL     1       4.337   1.350   0.017  0.00  0.00    +0.000 A 
ATOM      3  C   UNL     1       5.005   2.063  -0.990  0.00  0.00    +0.000 A 
ATOM      4  C   UNL     1       6.400   2.139  -1.014  0.00  0.00    +0.000 A 
ATOM      5  C   UNL     1       7.170   1.526  -0.017  0.00  0.00    +0.000 A 
ATOM      6  C   UNL     1       6.510   0.813   0.993  0.00  0.00    +0.000 A 
ATOM      7  C   UNL     1       5.111   0.721   1.007  0.00  0.00    +0.000 A 
BRANCH   5   8
ATOM      8  C   UNL     1       8.680   1.624  -0.039  0.00  0.00    +0.000 C 
BRANCH   8   9
ATOM      9  C   UNL     1       9.290   2.811   0.679  0.00  0.00    +0.000 A 
ATOM     10  C   UNL     1       8.978   4.117   0.302  0.00  0.00    +0.000 A 
ATOM     11  C   UNL     1       9.678   5.178   0.874  0.00  0.00    +0.000 A 
ATOM     12  C   UNL     1      10.666   4.914   1.813  0.00  0.00    +0.000 A 
ATOM     13  C   UNL     1      10.901   3.594   2.153  0.00  0.00    +0.000 A 
ATOM     14  N   UNL     1      10.243   2.544   1.610  0.00  0.00    +0.000 NA
ENDBRANCH   8   9
ENDBRANCH   5   8
ENDBRANCH   1   2
BRANCH   1  15
ATOM     15  N   UNL     1       2.302   2.002   1.189  0.00  0.00    +0.000 N 
ATOM     16  C   UNL     1       1.102   2.664   1.192  0.00  0.00    +0.000 C 
ATOM     17  O   UNL     1       0.348   2.665   0.224  0.00  0.00    +0.000 OA
ATOM     18  H   UNL     1       2.929   2.096   1.980  0.00  0.00    +0.000 HD
BRANCH  16  19
ATOM     19  C   UNL     1       0.743   3.362   2.433  0.00  0.00    +0.000 A 
ATOM     20  C   UNL     1      -0.589   3.594   2.745  0.00  0.00    +0.000 A 
ATOM     21  S   UNL     1      -0.807   4.489   4.182  0.00  0.00    +0.000 S 
ATOM     22  C   UNL     1       0.876   4.636   4.413  0.00  0.00    +0.000 A 
ATOM     23  N   UNL     1       1.384   5.363   5.437  0.00  0.00    +0.000 NA
ATOM     24  C   UNL     1       2.677   5.423   5.457  0.00  0.00    +0.000 A 
ATOM     25  N   UNL     1       3.500   4.793   4.564  0.00  0.00    +0.000 N 
ATOM     26  C   UNL     1       3.028   3.966   3.573  0.00  0.00    +0.000 A 
ATOM     27  O   UNL     1       3.791   3.271   2.913  0.00  0.00    +0.000 OA
ATOM     28  C   UNL     1       1.587   3.943   3.447  0.00  0.00    +0.000 A 
ATOM     29  H   UNL     1       4.505   4.825   4.670  0.00  0.00    +0.000 HD
ENDBRANCH  16  19
ENDBRANCH   1  15
BRANCH   1  30
ATOM     30  C   UNL     1       2.243  -0.145  -0.055  0.00  0.00    +0.000 C 
BRANCH  30  31
ATOM     31  N   UNL     1       2.673  -0.919  -1.228  0.00  0.00    +0.000 NA
ATOM     32  H   UNL     1       2.474  -1.906  -1.063  0.00  0.00    +0.000 HD
ATOM     33  H   UNL     1       3.685  -0.846  -1.335  0.00  0.00    +0.000 HD
ENDBRANCH  30  31
ENDBRANCH   1  30
TORSDOF 7
