REMARK  Name = 
REMARK  3 active torsions:
REMARK  status: ('A' for Active; 'I' for Inactive)
REMARK    1  A    between atoms: C_2  and  C_4
REMARK    2  A    between atoms: N_8  and  C_9
REMARK    3  A    between atoms: C_9  and  C_10
REMARK                            x       y       z     vdW  Elec       q    Type
REMARK                         _______ _______ _______ _____ _____    ______ ____
ROOT
ATOM      1  C   UNL     1       3.149   1.035   0.648  0.00  0.00    +0.000 A 
ATOM      2  C   UNL     1       2.490   1.774   1.622  0.00  0.00    +0.000 A 
ATOM      3  C   UNL     1       3.169   2.810   2.257  0.00  0.00    +0.000 A 
ATOM      4  C   UNL     1       4.494   3.087   1.923  0.00  0.00    +0.000 A 
ATOM      5  N   UNL     1       5.184   4.142   2.468  0.00  0.00    +0.000 N 
ATOM      6  N   UNL     1       5.142   2.372   0.987  0.00  0.00    +0.000 NA
ATOM      7  C   UNL     1       4.470   1.356   0.378  0.00  0.00    +0.000 A 
ATOM      8  H   UNL     1       6.138   4.179   2.126  0.00  0.00    +0.000 HD
ENDROOT
BRANCH   1  10
ATOM      9  N   UNL     1       1.133   0.009  -0.231  0.00  0.00    +0.000 N 
ATOM     10  C   UNL     1       2.495  -0.067  -0.080  0.00  0.00    +0.000 C 
ATOM     11  O   UNL     1       3.138  -0.995  -0.550  0.00  0.00    +0.000 OA
ATOM     12  H   UNL     1       0.703  -0.709  -0.797  0.00  0.00    +0.000 HD
ATOM     13  H   UNL     1       0.616   0.862  -0.081  0.00  0.00    +0.000 HD
ENDBRANCH   1  10
BRANCH   5  14
ATOM     14  C   UNL     1       4.964   4.594   3.827  0.00  0.00    +0.000 C 
BRANCH  14  15
ATOM     15  C   UNL     1       4.591   6.057   3.833  0.00  0.00    +0.000 A 
ATOM     16  C   UNL     1       3.883   6.641   2.775  0.00  0.00    +0.000 A 
ATOM     17  C   UNL     1       3.587   7.992   2.829  0.00  0.00    +0.000 A 
ATOM     18  N   UNL     1       3.918   8.788   3.866  0.00  0.00    +0.000 NA
ATOM     19  C   UNL     1       4.570   8.203   4.893  0.00  0.00    +0.000 A 
ATOM     20  C   UNL     1       4.914   6.860   4.930  0.00  0.00    +0.000 A 
ENDBRANCH  14  15
ENDBRANCH   5  14
TORSDOF 3
