REMARK  Name = 
REMARK  7 active torsions:
REMARK  status: ('A' for Active; 'I' for Inactive)
REMARK    1  A    between atoms: C_1  and  C_2
REMARK    2  A    between atoms: N_9  and  C_10
REMARK    3  A    between atoms: C_10  and  C_11
REMARK    4  A    between atoms: C_14  and  O_15
REMARK    5  A    between atoms: O_15  and  C_16
REMARK    6  A    between atoms: C_16  and  C_17
REMARK    7  A    between atoms: C_17  and  N_18
REMARK                            x       y       z     vdW  Elec       q    Type
REMARK                         _______ _______ _______ _____ _____    ______ ____
ROOT
ATOM      1  C   UNL     1       7.309   1.961   0.153  0.00  0.00    +0.000 A 
ATOM      2  C   UNL     1       7.082   2.593   1.382  0.00  0.00    +0.000 A 
ATOM      3  C   UNL     1       6.645   3.921   1.435  0.00  0.00    +0.000 A 
ATOM      4  C   UNL     1       6.418   4.634   0.260  0.00  0.00    +0.000 A 
ATOM      5  C   UNL     1       6.647   4.012  -0.969  0.00  0.00    +0.000 A 
ATOM      6  C   UNL     1       7.098   2.689  -1.025  0.00  0.00    +0.000 A 
ENDROOT
BRANCH   1   7
ATOM      7  C   UNL     1       7.738   0.514   0.116  0.00  0.00    +0.000 C 
BRANCH   7  16
ATOM      8  C   UNL     1       3.711  -3.427   3.642  0.00  0.00    +0.000 C 
ATOM      9  C   UNL     1       4.488  -2.584   2.679  0.00  0.00    +0.000 A 
ATOM     10  C   UNL     1       5.455  -1.676   3.110  0.00  0.00    +0.000 A 
ATOM     11  N   UNL     1       6.227  -0.887   2.320  0.00  0.00    +0.000 NA
ATOM     12  C   UNL     1       5.969  -1.042   1.003  0.00  0.00    +0.000 A 
ATOM     13  C   UNL     1       5.026  -1.897   0.438  0.00  0.00    +0.000 A 
ATOM     14  C   UNL     1       5.099  -1.734  -0.972  0.00  0.00    +0.000 A 
ATOM     15  C   UNL     1       6.083  -0.808  -1.231  0.00  0.00    +0.000 A 
ATOM     16  N   UNL     1       6.606  -0.390  -0.027  0.00  0.00    +0.000 N 
ATOM     17  C   UNL     1       4.260  -2.695   1.304  0.00  0.00    +0.000 A 
ENDBRANCH   7  16
ENDBRANCH   1   7
BRANCH   4  18
ATOM     18  O   UNL     1       5.924   5.909   0.185  0.00  0.00    +0.000 OA
BRANCH  18  19
ATOM     19  C   UNL     1       6.152   6.742   1.325  0.00  0.00    +0.000 C 
BRANCH  19  20
ATOM     20  C   UNL     1       5.483   8.099   1.079  0.00  0.00    +0.000 C 
BRANCH  20  21
ATOM     21  N   UNL     1       5.706   9.033   2.185  0.00  0.00    +0.000 NA
ATOM     22  H   UNL     1       5.295   8.657   3.039  0.00  0.00    +0.000 HD
ATOM     23  H   UNL     1       5.211   9.902   1.992  0.00  0.00    +0.000 HD
ENDBRANCH  20  21
ENDBRANCH  19  20
ENDBRANCH  18  19
ENDBRANCH   4  18
TORSDOF 6
