REMARK  Name = 
REMARK  4 active torsions:
REMARK  status: ('A' for Active; 'I' for Inactive)
REMARK    1  A    between atoms: C_1  and  C_2
REMARK    2  A    between atoms: C_4  and  C_5
REMARK    3  A    between atoms: C_10  and  C_11
REMARK    4  A    between atoms: C_11  and  C_12
REMARK                            x       y       z     vdW  Elec       q    Type
REMARK                         _______ _______ _______ _____ _____    ______ ____
ROOT
ATOM      1  C   UNL     1       2.442  -0.137  -0.233  0.00  0.00    +0.000 C 
ATOM      2  C   UNL     1       0.939  -0.177  -0.164  0.00  0.00    +0.000 A 
ATOM      3  C   UNL     1       0.259   1.050  -0.251  0.00  0.00    +0.000 A 
ATOM      4  C   UNL     1      -1.135   1.122  -0.195  0.00  0.00    +0.000 A 
ATOM      5  C   UNL     1      -1.857  -0.069  -0.119  0.00  0.00    +0.000 A 
ATOM      6  C   UNL     1      -1.184  -1.301  -0.032  0.00  0.00    +0.000 A 
ATOM      7  C   UNL     1       0.224  -1.391  -0.004  0.00  0.00    +0.000 A 
ENDROOT
BRANCH   4   8
ATOM      8  C   UNL     1      -1.750   2.484  -0.185  0.00  0.00    +0.000 C 
ATOM      9  N   UNL     1      -3.107   2.598  -0.126  0.00  0.00    +0.000 N 
ATOM     10  O   UNL     1      -1.059   3.498  -0.199  0.00  0.00    +0.000 OA
ATOM     11  H   UNL     1      -3.754   1.828  -0.091  0.00  0.00    +0.000 HD
ATOM     12  H   UNL     1      -3.475   3.539  -0.086  0.00  0.00    +0.000 HD
ENDBRANCH   4   8
BRANCH   7  13
ATOM     13  C   UNL     1       0.934  -2.728   0.335  0.00  0.00    +0.000 C 
ATOM     14  C   UNL     1       0.363  -3.692   1.386  0.00  0.00    +0.000 C 
ATOM     15  C   UNL     1       1.436  -2.746   1.787  0.00  0.00    +0.000 C 
BRANCH  13  16
ATOM     16  C   UNL     1       1.715  -3.450  -0.772  0.00  0.00    +0.000 A 
ATOM     17  C   UNL     1       3.115  -3.370  -0.874  0.00  0.00    +0.000 A 
ATOM     18  C   UNL     1       3.828  -4.062  -1.858  0.00  0.00    +0.000 A 
ATOM     19  C   UNL     1       3.154  -4.879  -2.757  0.00  0.00    +0.000 A 
ATOM     20  C   UNL     1       1.771  -4.999  -2.673  0.00  0.00    +0.000 A 
ATOM     21  C   UNL     1       1.062  -4.287  -1.698  0.00  0.00    +0.000 A 
ENDBRANCH  13  16
ENDBRANCH   7  13
TORSDOF 3
