REMARK  Name = 
REMARK  7 active torsions:
REMARK  status: ('A' for Active; 'I' for Inactive)
REMARK    1  A    between atoms: C_2  and  C_21
REMARK    2  A    between atoms: N_3  and  C_4
REMARK    3  A    between atoms: C_4  and  C_5
REMARK    4  A    between atoms: C_8  and  C_9
REMARK    5  A    between atoms: C_9  and  N_10
REMARK    6  A    between atoms: C_11  and  C_13
REMARK    7  A    between atoms: C_15  and  O_16
REMARK                            x       y       z     vdW  Elec       q    Type
REMARK                         _______ _______ _______ _____ _____    ______ ____
ROOT
ATOM      1  C   UNL     1       7.395   6.826  -8.515  0.00  0.00    +0.000 A 
ATOM      2  C   UNL     1       7.355   6.720  -7.118  0.00  0.00    +0.000 A 
ATOM      3  C   UNL     1       6.858   7.768  -6.333  0.00  0.00    +0.000 A 
ATOM      4  C   UNL     1       6.367   8.936  -6.930  0.00  0.00    +0.000 A 
ATOM      5  C   UNL     1       6.397   9.038  -8.328  0.00  0.00    +0.000 A 
ATOM      6  C   UNL     1       6.897   7.990  -9.112  0.00  0.00    +0.000 A 
ENDROOT
BRANCH   1   7
ATOM      7  C   UNL     1       7.926   5.689  -9.354  0.00  0.00    +0.000 C 
BRANCH   7  10
ATOM      8  O   UNL     1       8.236   3.450 -10.984  0.00  0.00    +0.000 OA
ATOM      9  C   UNL     1       7.130   3.667 -10.495  0.00  0.00    +0.000 C 
ATOM     10  N   UNL     1       6.873   4.784  -9.737  0.00  0.00    +0.000 N 
ATOM     11  H   UNL     1       6.022   4.819  -9.186  0.00  0.00    +0.000 HD
BRANCH   9  12
ATOM     12  C   UNL     1       5.997   2.764 -10.731  0.00  0.00    +0.000 A 
ATOM     13  C   UNL     1       5.985   1.936 -11.845  0.00  0.00    +0.000 A 
ATOM     14  S   UNL     1       4.573   0.985 -11.973  0.00  0.00    +0.000 S 
ATOM     15  C   UNL     1       3.954   1.610 -10.517  0.00  0.00    +0.000 A 
ATOM     16  N   UNL     1       2.757   1.188 -10.026  0.00  0.00    +0.000 NA
ATOM     17  C   UNL     1       2.429   1.716  -8.895  0.00  0.00    +0.000 A 
ATOM     18  N   UNL     1       3.186   2.632  -8.212  0.00  0.00    +0.000 N 
ATOM     19  C   UNL     1       4.382   3.117  -8.685  0.00  0.00    +0.000 A 
ATOM     20  O   UNL     1       5.002   3.979  -8.078  0.00  0.00    +0.000 OA
ATOM     21  C   UNL     1       4.803   2.541  -9.950  0.00  0.00    +0.000 A 
ATOM     22  H   UNL     1       2.866   3.020  -7.336  0.00  0.00    +0.000 HD
ENDBRANCH   9  12
ENDBRANCH   7  10
ENDBRANCH   1   7
BRANCH   4  23
ATOM     23  C   UNL     1       5.795  10.050  -6.090  0.00  0.00    +0.000 C 
BRANCH  23  24
ATOM     24  N   UNL     1       6.781  11.046  -5.729  0.00  0.00    +0.000 N 
ATOM     25  C   UNL     1       6.403  12.112  -4.937  0.00  0.00    +0.000 C 
ATOM     26  O   UNL     1       5.291  12.189  -4.414  0.00  0.00    +0.000 OA
ATOM     27  H   UNL     1       7.619  11.115  -6.291  0.00  0.00    +0.000 HD
BRANCH  25  28
ATOM     28  C   UNL     1       7.449  13.236  -4.799  0.00  0.00    +0.000 C 
ATOM     29  C   UNL     1       8.742  12.799  -4.112  0.00  0.00    +0.000 C 
ATOM     30  C   UNL     1       9.018  13.924  -3.126  0.00  0.00    +0.000 C 
ATOM     31  C   UNL     1       7.615  14.311  -2.687  0.00  0.00    +0.000 C 
ATOM     32  N   UNL     1       6.900  14.356  -3.975  0.00  0.00    +0.000 NA
ATOM     33  H   UNL     1       5.901  14.174  -3.814  0.00  0.00    +0.000 HD
BRANCH  30  34
ATOM     34  O   UNL     1       9.633  15.018  -3.817  0.00  0.00    +0.000 OA
ATOM     35  H   UNL     1       8.903  15.468  -4.291  0.00  0.00    +0.000 HD
ENDBRANCH  30  34
ENDBRANCH  25  28
ENDBRANCH  23  24
ENDBRANCH   4  23
TORSDOF 7
