REMARK  Name = 
REMARK  6 active torsions:
REMARK  status: ('A' for Active; 'I' for Inactive)
REMARK    1  A    between atoms: C_2  and  C_19
REMARK    2  A    between atoms: N_3  and  C_4
REMARK    3  A    between atoms: C_4  and  C_5
REMARK    4  A    between atoms: C_8  and  C_9
REMARK    5  A    between atoms: C_9  and  O_10
REMARK    6  A    between atoms: O_10  and  C_11
REMARK                            x       y       z     vdW  Elec       q    Type
REMARK                         _______ _______ _______ _____ _____    ______ ____
ROOT
ATOM      1  O   UNL     1       3.672   0.529   1.145  0.00  0.00    +0.000 OA
ATOM      2  C   UNL     1       3.523  -0.280   0.235  0.00  0.00    +0.000 C 
ATOM      3  N   UNL     1       2.820  -1.446   0.392  0.00  0.00    +0.000 N 
ATOM      4  H   UNL     1       2.847  -2.151  -0.337  0.00  0.00    +0.000 HD
ENDROOT
BRANCH   2   5
ATOM      5  C   UNL     1       4.058  -0.021  -1.107  0.00  0.00    +0.000 A 
ATOM      6  C   UNL     1       4.295   1.283  -1.521  0.00  0.00    +0.000 A 
ATOM      7  S   UNL     1       4.970   1.389  -3.085  0.00  0.00    +0.000 S 
ATOM      8  C   UNL     1       4.987  -0.306  -3.251  0.00  0.00    +0.000 A 
ATOM      9  N   UNL     1       5.501  -0.899  -4.364  0.00  0.00    +0.000 NA
ATOM     10  C   UNL     1       5.484  -2.187  -4.334  0.00  0.00    +0.000 A 
ATOM     11  N   UNL     1       4.982  -2.941  -3.306  0.00  0.00    +0.000 N 
ATOM     12  C   UNL     1       4.374  -2.389  -2.207  0.00  0.00    +0.000 A 
ATOM     13  O   UNL     1       3.787  -3.087  -1.389  0.00  0.00    +0.000 OA
ATOM     14  C   UNL     1       4.438  -0.940  -2.152  0.00  0.00    +0.000 A 
ATOM     15  H   UNL     1       4.954  -3.950  -3.364  0.00  0.00    +0.000 HD
ENDBRANCH   2   5
BRANCH   3  16
ATOM     16  C   UNL     1       2.256  -1.850   1.654  0.00  0.00    +0.000 C 
BRANCH  16  17
ATOM     17  C   UNL     1       3.171  -2.762   2.428  0.00  0.00    +0.000 A 
ATOM     18  C   UNL     1       4.157  -2.229   3.268  0.00  0.00    +0.000 A 
ATOM     19  C   UNL     1       4.970  -3.067   4.038  0.00  0.00    +0.000 A 
ATOM     20  C   UNL     1       4.829  -4.459   3.966  0.00  0.00    +0.000 A 
ATOM     21  C   UNL     1       3.852  -4.994   3.116  0.00  0.00    +0.000 A 
ATOM     22  C   UNL     1       3.041  -4.155   2.343  0.00  0.00    +0.000 A 
BRANCH  20  23
ATOM     23  C   UNL     1       5.708  -5.369   4.791  0.00  0.00    +0.000 C 
BRANCH  23  24
ATOM     24  O   UNL     1       5.092  -5.611   6.055  0.00  0.00    +0.000 OA
BRANCH  24  25
ATOM     25  C   UNL     1       5.790  -6.390   6.935  0.00  0.00    +0.000 A 
ATOM     26  C   UNL     1       7.003  -7.032   6.696  0.00  0.00    +0.000 A 
ATOM     27  C   UNL     1       7.599  -7.785   7.708  0.00  0.00    +0.000 A 
ATOM     28  C   UNL     1       6.957  -7.877   8.932  0.00  0.00    +0.000 A 
ATOM     29  N   UNL     1       5.778  -7.281   9.201  0.00  0.00    +0.000 NA
ATOM     30  C   UNL     1       5.225  -6.555   8.196  0.00  0.00    +0.000 A 
ENDBRANCH  24  25
ENDBRANCH  23  24
ENDBRANCH  20  23
ENDBRANCH  16  17
ENDBRANCH   3  16
TORSDOF 6
