REMARK  Name = 
REMARK  9 active torsions:
REMARK  status: ('A' for Active; 'I' for Inactive)
REMARK    1  A    between atoms: N_1  and  C_2
REMARK    2  A    between atoms: C_2  and  C_3
REMARK    3  A    between atoms: C_3  and  O_4
REMARK    4  A    between atoms: C_3  and  C_5
REMARK    5  A    between atoms: C_8  and  C_9
REMARK    6  A    between atoms: C_9  and  N_10
REMARK    7  A    between atoms: C_12  and  C_13
REMARK    8  A    between atoms: C_13  and  N_14
REMARK    9  A    between atoms: C_15  and  C_17
REMARK                            x       y       z     vdW  Elec       q    Type
REMARK                         _______ _______ _______ _____ _____    ______ ____
ROOT
ATOM      1  N   UNL     1       9.434  -0.011   2.802  0.00  0.00    +0.000 N 
ATOM      2  C   UNL     1       9.250  -1.153   3.542  0.00  0.00    +0.000 A 
ATOM      3  C   UNL     1       9.778  -0.899   4.796  0.00  0.00    +0.000 A 
ATOM      4  C   UNL     1      10.378   0.376   4.647  0.00  0.00    +0.000 A 
ATOM      5  N   UNL     1      10.207   0.899   3.430  0.00  0.00    +0.000 NA
ENDROOT
BRANCH   1   6
ATOM      6  C   UNL     1       8.885   0.282   1.480  0.00  0.00    +0.000 C 
BRANCH   6  10
ATOM      7  C   UNL     1       4.968   2.192   1.640  0.00  0.00    +0.000 A 
ATOM      8  C   UNL     1       6.090   2.819   2.202  0.00  0.00    +0.000 A 
ATOM      9  C   UNL     1       7.358   2.231   2.139  0.00  0.00    +0.000 A 
ATOM     10  C   UNL     1       7.539   0.977   1.537  0.00  0.00    +0.000 A 
ATOM     11  C   UNL     1       6.427   0.372   0.933  0.00  0.00    +0.000 A 
ATOM     12  C   UNL     1       5.164   0.973   0.976  0.00  0.00    +0.000 A 
BRANCH   7  13
ATOM     13  C   UNL     1       3.600   2.836   1.769  0.00  0.00    +0.000 C 
BRANCH  13  14
ATOM     14  O   UNL     1       2.764   1.968   2.540  0.00  0.00    +0.000 OA
ATOM     15  H   UNL     1       2.505   1.237   1.957  0.00  0.00    +0.000 HD
ENDBRANCH  13  14
BRANCH  13  16
ATOM     16  C   UNL     1       2.942   3.154   0.401  0.00  0.00    +0.000 C 
BRANCH  16  17
ATOM     17  N   UNL     1       1.636   3.816   0.514  0.00  0.00    +0.000 NA
ATOM     18  H   UNL     1       1.320   4.109  -0.409  0.00  0.00    +0.000 HD
ATOM     19  H   UNL     1       1.728   4.663   1.073  0.00  0.00    +0.000 HD
ENDBRANCH  16  17
ENDBRANCH  13  16
ENDBRANCH   7  13
ENDBRANCH   6  10
ENDBRANCH   1   6
BRANCH   3  20
ATOM     20  C   UNL     1       9.689  -1.697   6.054  0.00  0.00    +0.000 C 
BRANCH  20  21
ATOM     21  N   UNL     1      10.816  -2.577   6.185  0.00  0.00    +0.000 N 
ATOM     22  C   UNL     1      10.989  -3.407   7.256  0.00  0.00    +0.000 C 
ATOM     23  O   UNL     1      10.189  -3.464   8.199  0.00  0.00    +0.000 OA
ATOM     24  H   UNL     1      11.464  -2.633   5.403  0.00  0.00    +0.000 HD
BRANCH  22  25
ATOM     25  C   UNL     1      12.204  -4.222   7.234  0.00  0.00    +0.000 A 
ATOM     26  C   UNL     1      12.838  -4.624   8.401  0.00  0.00    +0.000 A 
ATOM     27  S   UNL     1      14.167  -5.661   8.128  0.00  0.00    +0.000 S 
ATOM     28  C   UNL     1      13.843  -5.707   6.458  0.00  0.00    +0.000 A 
ATOM     29  N   UNL     1      14.469  -6.598   5.641  0.00  0.00    +0.000 NA
ATOM     30  C   UNL     1      14.178  -6.459   4.390  0.00  0.00    +0.000 A 
ATOM     31  N   UNL     1      13.375  -5.479   3.870  0.00  0.00    +0.000 N 
ATOM     32  C   UNL     1      12.641  -4.618   4.669  0.00  0.00    +0.000 A 
ATOM     33  O   UNL     1      11.883  -3.798   4.163  0.00  0.00    +0.000 OA
ATOM     34  C   UNL     1      12.885  -4.785   6.085  0.00  0.00    +0.000 A 
ATOM     35  H   UNL     1      13.247  -5.377   2.879  0.00  0.00    +0.000 HD
ENDBRANCH  22  25
ENDBRANCH  20  21
ENDBRANCH   3  20
TORSDOF 9
