REMARK  Name = 
REMARK  7 active torsions:
REMARK  status: ('A' for Active; 'I' for Inactive)
REMARK    1  A    between atoms: N_1  and  C_2
REMARK    2  A    between atoms: C_2  and  C_3
REMARK    3  A    between atoms: C_2  and  C_10
REMARK    4  A    between atoms: C_3  and  C_4
REMARK    5  A    between atoms: C_13  and  C_14
REMARK    6  A    between atoms: C_14  and  N_15
REMARK    7  A    between atoms: C_16  and  C_18
REMARK                            x       y       z     vdW  Elec       q    Type
REMARK                         _______ _______ _______ _____ _____    ______ ____
ROOT
ATOM      1  C   UNL     1       2.979   0.182   1.491  0.00  0.00    +0.000 C 
ATOM      2  C   UNL     1       2.488  -0.972   2.393  0.00  0.00    +0.000 C 
ATOM      3  C   UNL     1       2.859  -0.791   3.860  0.00  0.00    +0.000 C 
ATOM      4  C   UNL     1       2.364   0.549   4.411  0.00  0.00    +0.000 C 
ATOM      5  C   UNL     1       2.898   1.696   3.545  0.00  0.00    +0.000 C 
ATOM      6  C   UNL     1       2.514   1.532   2.075  0.00  0.00    +0.000 C 
ENDROOT
BRANCH   1   7
ATOM      7  C   UNL     1       2.508  -0.024   0.014  0.00  0.00    +0.000 C 
BRANCH   7   8
ATOM      8  N   UNL     1       3.021  -1.297  -0.515  0.00  0.00    +0.000 NA
ATOM      9  H   UNL     1       2.766  -2.074   0.090  0.00  0.00    +0.000 HD
ATOM     10  H   UNL     1       4.038  -1.281  -0.558  0.00  0.00    +0.000 HD
ENDBRANCH   7   8
BRANCH   7  11
ATOM     11  C   UNL     1       2.947   1.133  -0.921  0.00  0.00    +0.000 C 
BRANCH  11  12
ATOM     12  C   UNL     1       2.570   0.976  -2.375  0.00  0.00    +0.000 A 
ATOM     13  C   UNL     1       1.242   0.886  -2.798  0.00  0.00    +0.000 A 
ATOM     14  C   UNL     1       0.957   0.772  -4.157  0.00  0.00    +0.000 A 
ATOM     15  C   UNL     1       2.013   0.758  -5.052  0.00  0.00    +0.000 A 
ATOM     16  N   UNL     1       3.308   0.849  -4.687  0.00  0.00    +0.000 NA
ATOM     17  C   UNL     1       3.554   0.952  -3.361  0.00  0.00    +0.000 A 
ENDBRANCH  11  12
ENDBRANCH   7  11
ENDBRANCH   1   7
BRANCH   4  18
ATOM     18  C   UNL     1       2.789   0.754   5.873  0.00  0.00    +0.000 C 
BRANCH  18  19
ATOM     19  N   UNL     1       2.260  -0.255   6.765  0.00  0.00    +0.000 N 
ATOM     20  C   UNL     1       1.007  -0.161   7.315  0.00  0.00    +0.000 C 
ATOM     21  O   UNL     1       0.254   0.781   7.072  0.00  0.00    +0.000 OA
ATOM     22  H   UNL     1       2.916  -0.935   7.139  0.00  0.00    +0.000 HD
BRANCH  20  23
ATOM     23  C   UNL     1       0.579  -1.277   8.164  0.00  0.00    +0.000 A 
ATOM     24  C   UNL     1      -0.774  -1.554   8.302  0.00  0.00    +0.000 A 
ATOM     25  S   UNL     1      -1.095  -2.889   9.314  0.00  0.00    +0.000 S 
ATOM     26  C   UNL     1       0.562  -3.121   9.627  0.00  0.00    +0.000 A 
ATOM     27  N   UNL     1       0.986  -4.108  10.462  0.00  0.00    +0.000 NA
ATOM     28  C   UNL     1       2.267  -4.160  10.618  0.00  0.00    +0.000 A 
ATOM     29  N   UNL     1       3.165  -3.317  10.012  0.00  0.00    +0.000 N 
ATOM     30  C   UNL     1       2.787  -2.314   9.151  0.00  0.00    +0.000 A 
ATOM     31  O   UNL     1       3.615  -1.604   8.595  0.00  0.00    +0.000 OA
ATOM     32  C   UNL     1       1.351  -2.207   8.948  0.00  0.00    +0.000 A 
ATOM     33  H   UNL     1       4.155  -3.422  10.166  0.00  0.00    +0.000 HD
ENDBRANCH  20  23
ENDBRANCH  18  19
ENDBRANCH   4  18
TORSDOF 7
