REMARK  Name = 
REMARK  10 active torsions:
REMARK  status: ('A' for Active; 'I' for Inactive)
REMARK    1  A    between atoms: N_1  and  C_2
REMARK    2  A    between atoms: C_2  and  C_3
REMARK    3  A    between atoms: C_3  and  N_4
REMARK    4  A    between atoms: C_3  and  C_20
REMARK    5  A    between atoms: N_4  and  C_5
REMARK    6  A    between atoms: C_5  and  C_6
REMARK    7  A    between atoms: C_9  and  C_10
REMARK    8  A    between atoms: C_10  and  N_11
REMARK    9  A    between atoms: N_11  and  C_12
REMARK   10  A    between atoms: C_12  and  C_13
REMARK                            x       y       z     vdW  Elec       q    Type
REMARK                         _______ _______ _______ _____ _____    ______ ____
ROOT
ATOM      1  N   UNL     1       2.476  -0.010  -0.089  0.00  0.00    +0.000 NA
ATOM      2  H   UNL     1       3.052   0.472   0.602  0.00  0.00    +0.000 HD
ENDROOT
BRANCH   1   3
ATOM      3  C   UNL     1       2.953   0.387  -1.438  0.00  0.00    +0.000 C 
BRANCH   3   4
ATOM      4  C   UNL     1       2.773   1.905  -1.519  0.00  0.00    +0.000 A 
ATOM      5  C   UNL     1       1.556   2.540  -1.331  0.00  0.00    +0.000 A 
ATOM      6  S   UNL     1       1.640   4.238  -1.451  0.00  0.00    +0.000 S 
ATOM      7  C   UNL     1       3.315   4.191  -1.744  0.00  0.00    +0.000 A 
ATOM      8  N   UNL     1       4.024   5.343  -1.908  0.00  0.00    +0.000 NA
ATOM      9  C   UNL     1       5.288   5.165  -2.095  0.00  0.00    +0.000 A 
ATOM     10  N   UNL     1       5.906   3.940  -2.149  0.00  0.00    +0.000 N 
ATOM     11  C   UNL     1       5.224   2.744  -2.036  0.00  0.00    +0.000 A 
ATOM     12  O   UNL     1       5.800   1.667  -2.151  0.00  0.00    +0.000 OA
ATOM     13  C   UNL     1       3.803   2.896  -1.775  0.00  0.00    +0.000 A 
ATOM     14  H   UNL     1       6.899   3.876  -2.316  0.00  0.00    +0.000 HD
ENDBRANCH   3   4
BRANCH   3  15
ATOM     15  C   UNL     1       2.177  -0.357  -2.581  0.00  0.00    +0.000 C 
BRANCH  15  16
ATOM     16  N   UNL     1       2.667  -0.114  -3.941  0.00  0.00    +0.000 NA
ATOM     17  H   UNL     1       2.223  -0.787  -4.568  0.00  0.00    +0.000 HD
ATOM     18  H   UNL     1       3.667  -0.309  -3.981  0.00  0.00    +0.000 HD
ENDBRANCH  15  16
ENDBRANCH   3  15
ENDBRANCH   1   3
BRANCH   1  19
ATOM     19  C   UNL     1       2.556  -1.451   0.155  0.00  0.00    +0.000 C 
BRANCH  19  20
ATOM     20  C   UNL     1       2.102  -1.828   1.538  0.00  0.00    +0.000 A 
ATOM     21  C   UNL     1       0.824  -1.508   2.002  0.00  0.00    +0.000 A 
ATOM     22  C   UNL     1       0.414  -1.942   3.260  0.00  0.00    +0.000 A 
ATOM     23  C   UNL     1       1.295  -2.699   4.027  0.00  0.00    +0.000 A 
ATOM     24  N   UNL     1       2.536  -3.036   3.593  0.00  0.00    +0.000 NA
ATOM     25  C   UNL     1       2.907  -2.596   2.371  0.00  0.00    +0.000 A 
BRANCH  23  26
ATOM     26  C   UNL     1       0.912  -3.134   5.429  0.00  0.00    +0.000 C 
BRANCH  26  27
ATOM     27  N   UNL     1       1.819  -2.646   6.476  0.00  0.00    +0.000 NA
ATOM     28  H   UNL     1       2.766  -2.936   6.214  0.00  0.00    +0.000 HD
BRANCH  27  29
ATOM     29  C   UNL     1       1.838  -1.181   6.539  0.00  0.00    +0.000 C 
BRANCH  29  30
ATOM     30  C   UNL     1       2.769  -0.771   7.631  0.00  0.00    +0.000 A 
ATOM     31  C   UNL     1       2.495  -0.556   8.966  0.00  0.00    +0.000 A 
ATOM     32  N   UNL     1       3.694  -0.222   9.531  0.00  0.00    +0.000 N 
ATOM     33  C   UNL     1       4.634  -0.235   8.542  0.00  0.00    +0.000 A 
ATOM     34  N   UNL     1       4.110  -0.559   7.383  0.00  0.00    +0.000 NA
ATOM     35  H   UNL     1       3.860  -0.010  10.504  0.00  0.00    +0.000 HD
ENDBRANCH  29  30
ENDBRANCH  27  29
ENDBRANCH  26  27
ENDBRANCH  23  26
ENDBRANCH  19  20
ENDBRANCH   1  19
TORSDOF 10
