REMARK  Name = 
REMARK  9 active torsions:
REMARK  status: ('A' for Active; 'I' for Inactive)
REMARK    1  A    between atoms: C_1  and  O_2
REMARK    2  A    between atoms: O_2  and  C_3
REMARK    3  A    between atoms: C_10  and  C_11
REMARK    4  A    between atoms: N_13  and  C_14
REMARK    5  A    between atoms: C_14  and  C_15
REMARK    6  A    between atoms: C_18  and  C_19
REMARK    7  A    between atoms: C_19  and  O_20
REMARK    8  A    between atoms: O_20  and  C_21
REMARK    9  A    between atoms: C_21  and  C_22
REMARK                            x       y       z     vdW  Elec       q    Type
REMARK                         _______ _______ _______ _____ _____    ______ ____
ROOT
ATOM      1  C   UNL     1       2.828   1.914   2.862  0.00  0.00    +0.000 C 
ENDROOT
BRANCH   1   2
ATOM      2  C   UNL     1       1.738   2.702   2.187  0.00  0.00    +0.000 A 
ATOM      3  C   UNL     1       0.556   2.074   1.774  0.00  0.00    +0.000 A 
ATOM      4  C   UNL     1      -0.428   2.793   1.093  0.00  0.00    +0.000 A 
ATOM      5  C   UNL     1      -0.247   4.153   0.809  0.00  0.00    +0.000 A 
ATOM      6  C   UNL     1       0.933   4.783   1.224  0.00  0.00    +0.000 A 
ATOM      7  C   UNL     1       1.917   4.063   1.904  0.00  0.00    +0.000 A 
BRANCH   5   8
ATOM      8  C   UNL     1      -1.320   4.930   0.087  0.00  0.00    +0.000 C 
BRANCH   8   9
ATOM      9  O   UNL     1      -2.574   4.874   0.767  0.00  0.00    +0.000 OA
BRANCH   9  10
ATOM     10  C   UNL     1      -2.548   5.568   2.013  0.00  0.00    +0.000 C 
BRANCH  10  11
ATOM     11  C   UNL     1      -3.925   5.550   2.618  0.00  0.00    +0.000 A 
ATOM     12  C   UNL     1      -4.163   4.883   3.831  0.00  0.00    +0.000 A 
ATOM     13  C   UNL     1      -5.432   4.893   4.414  0.00  0.00    +0.000 A 
ATOM     14  C   UNL     1      -6.477   5.570   3.789  0.00  0.00    +0.000 A 
ATOM     15  C   UNL     1      -6.246   6.221   2.582  0.00  0.00    +0.000 A 
ATOM     16  F   UNL     1      -7.253   6.870   1.982  0.00  0.00    +0.000 F 
ATOM     17  C   UNL     1      -4.987   6.216   1.992  0.00  0.00    +0.000 A 
ENDBRANCH  10  11
ENDBRANCH   9  10
ENDBRANCH   8   9
ENDBRANCH   5   8
ENDBRANCH   1   2
BRANCH   1  20
ATOM     18  C   UNL     1       4.789   0.570   2.264  0.00  0.00    +0.000 C 
ATOM     19  O   UNL     1       5.009   0.335   3.451  0.00  0.00    +0.000 OA
ATOM     20  N   UNL     1       3.731   1.350   1.888  0.00  0.00    +0.000 N 
ATOM     21  H   UNL     1       3.559   1.546   0.911  0.00  0.00    +0.000 HD
BRANCH  18  29
ATOM     22  C   UNL     1       4.717   0.703  -1.188  0.00  0.00    +0.000 A 
ATOM     23  N   UNL     1       4.925   0.565  -2.514  0.00  0.00    +0.000 NA
ATOM     24  C   UNL     1       5.976  -0.149  -2.919  0.00  0.00    +0.000 A 
ATOM     25  N   UNL     1       6.873  -0.759  -2.149  0.00  0.00    +0.000 NA
ATOM     26  C   UNL     1       6.630  -0.603  -0.837  0.00  0.00    +0.000 A 
ATOM     27  S   UNL     1       7.680  -1.315   0.292  0.00  0.00    +0.000 S 
ATOM     28  C   UNL     1       6.763  -0.720   1.590  0.00  0.00    +0.000 A 
ATOM     29  C   UNL     1       5.654   0.026   1.206  0.00  0.00    +0.000 A 
ATOM     30  C   UNL     1       5.581   0.102  -0.253  0.00  0.00    +0.000 A 
BRANCH  22  32
ATOM     31  C   UNL     1       2.882   2.018  -1.840  0.00  0.00    +0.000 C 
ATOM     32  O   UNL     1       3.641   1.460  -0.768  0.00  0.00    +0.000 OA
ENDBRANCH  22  32
ENDBRANCH  18  29
ENDBRANCH   1  20
TORSDOF 8
