REMARK  Name = 
REMARK  6 active torsions:
REMARK  status: ('A' for Active; 'I' for Inactive)
REMARK    1  A    between atoms: N_1  and  C_2
REMARK    2  A    between atoms: C_2  and  C_3
REMARK    3  A    between atoms: C_6  and  O_7
REMARK    4  A    between atoms: O_7  and  C_8
REMARK    5  A    between atoms: C_8  and  C_9
REMARK    6  A    between atoms: C_12  and  C_13
REMARK                            x       y       z     vdW  Elec       q    Type
REMARK                         _______ _______ _______ _____ _____    ______ ____
ROOT
ATOM      1  O   UNL     1       3.898  -3.878   3.712  0.00  0.00    +0.000 OA
ENDROOT
BRANCH   1   5
ATOM      2  C   UNL     1       2.900  -0.989   0.946  0.00  0.00    +0.000 A 
ATOM      3  C   UNL     1       3.576  -0.567   2.090  0.00  0.00    +0.000 A 
ATOM      4  C   UNL     1       3.943  -1.506   3.057  0.00  0.00    +0.000 A 
ATOM      5  C   UNL     1       3.626  -2.846   2.864  0.00  0.00    +0.000 A 
ATOM      6  C   UNL     1       2.965  -3.178   1.687  0.00  0.00    +0.000 A 
ATOM      7  N   UNL     1       2.595  -2.291   0.730  0.00  0.00    +0.000 NA
BRANCH   2   8
ATOM      8  C   UNL     1       2.457   0.013  -0.098  0.00  0.00    +0.000 C 
BRANCH   8   9
ATOM      9  N   UNL     1       3.571   0.785  -0.665  0.00  0.00    +0.000 NA
ATOM     10  H   UNL     1       3.212   1.345  -1.436  0.00  0.00    +0.000 HD
ATOM     11  H   UNL     1       4.223   0.120  -1.084  0.00  0.00    +0.000 HD
ENDBRANCH   8   9
ENDBRANCH   2   8
ENDBRANCH   1   5
BRANCH   1  12
ATOM     12  C   UNL     1       4.536  -3.556   4.947  0.00  0.00    +0.000 C 
BRANCH  12  13
ATOM     13  C   UNL     1       4.696  -4.826   5.738  0.00  0.00    +0.000 A 
ATOM     14  C   UNL     1       3.592  -5.588   6.126  0.00  0.00    +0.000 A 
ATOM     15  C   UNL     1       3.781  -6.774   6.836  0.00  0.00    +0.000 A 
ATOM     16  C   UNL     1       5.078  -7.181   7.152  0.00  0.00    +0.000 A 
ATOM     17  N   UNL     1       6.164  -6.432   6.801  0.00  0.00    +0.000 NA
ATOM     18  C   UNL     1       5.951  -5.290   6.109  0.00  0.00    +0.000 A 
BRANCH  16  19
ATOM     19  C   UNL     1       5.301  -8.497   7.887  0.00  0.00    +0.000 C 
ATOM     20  F   UNL     1       4.141  -9.170   8.153  0.00  0.00    +0.000 F 
ATOM     21  F   UNL     1       6.074  -9.377   7.187  0.00  0.00    +0.000 F 
ATOM     22  F   UNL     1       5.910  -8.339   9.098  0.00  0.00    +0.000 F 
ENDBRANCH  16  19
ENDBRANCH  12  13
ENDBRANCH   1  12
TORSDOF 6
