REMARK  Name = 
REMARK  7 active torsions:
REMARK  status: ('A' for Active; 'I' for Inactive)
REMARK    1  A    between atoms: C_1  and  S_2
REMARK    2  A    between atoms: S_2  and  C_5
REMARK    3  A    between atoms: C_7  and  N_8
REMARK    4  A    between atoms: N_8  and  C_9
REMARK    5  A    between atoms: C_9  and  C_10
REMARK    6  A    between atoms: C_10  and  C_13
REMARK    7  A    between atoms: C_21  and  C_22
REMARK                            x       y       z     vdW  Elec       q    Type
REMARK                         _______ _______ _______ _____ _____    ______ ____
ROOT
ATOM      1  C   UNL     1       3.340   0.120   1.572  0.00  0.00    +0.000 A 
ATOM      2  C   UNL     1       3.440   1.392   2.178  0.00  0.00    +0.000 A 
ATOM      3  C   UNL     1       3.887   1.536   3.498  0.00  0.00    +0.000 A 
ATOM      4  C   UNL     1       4.272   0.373   4.174  0.00  0.00    +0.000 A 
ATOM      5  C   UNL     1       4.182  -0.889   3.581  0.00  0.00    +0.000 A 
ATOM      6  C   UNL     1       3.708  -1.032   2.275  0.00  0.00    +0.000 A 
ENDROOT
BRANCH   1   8
ATOM      7  C   UNL     1       1.313  -0.908  -0.114  0.00  0.00    +0.000 C 
ATOM      8  S   UNL     1       2.813   0.037  -0.127  0.00  0.00    +0.000 S 
ATOM      9  O   UNL     1       3.833  -0.701  -0.842  0.00  0.00    +0.000 OA
ATOM     10  O   UNL     1       2.456   1.384  -0.536  0.00  0.00    +0.000 OA
ENDBRANCH   1   8
BRANCH   3  11
ATOM     11  N   UNL     1       3.997   2.794   4.065  0.00  0.00    +0.000 N 
ATOM     12  H   UNL     1       3.606   3.598   3.576  0.00  0.00    +0.000 HD
BRANCH  11  13
ATOM     13  C   UNL     1       4.437   2.991   5.461  0.00  0.00    +0.000 C 
BRANCH  13  14
ATOM     14  C   UNL     1       4.453   4.466   5.946  0.00  0.00    +0.000 C 
ATOM     15  F   UNL     1       5.295   5.178   5.141  0.00  0.00    +0.000 F 
ATOM     16  F   UNL     1       3.211   4.996   5.718  0.00  0.00    +0.000 F 
BRANCH  14  17
ATOM     17  C   UNL     1       4.836   4.566   7.405  0.00  0.00    +0.000 A 
ATOM     18  C   UNL     1       3.869   4.522   8.416  0.00  0.00    +0.000 A 
ATOM     19  C   UNL     1       4.247   4.619   9.754  0.00  0.00    +0.000 A 
ATOM     20  C   UNL     1       5.592   4.752  10.046  0.00  0.00    +0.000 A 
ATOM     21  N   UNL     1       6.557   4.791   9.102  0.00  0.00    +0.000 NA
ATOM     22  C   UNL     1       6.161   4.706   7.808  0.00  0.00    +0.000 A 
ENDBRANCH  14  17
ENDBRANCH  13  14
ENDBRANCH  11  13
ENDBRANCH   3  11
BRANCH   6  23
ATOM     23  C   UNL     1       3.589  -2.372   1.769  0.00  0.00    +0.000 C 
ATOM     24  N   UNL     1       3.428  -3.466   1.436  0.00  0.00    +0.000 NA
ENDBRANCH   6  23
TORSDOF 6
