REMARK  Name = 
REMARK  7 active torsions:
REMARK  status: ('A' for Active; 'I' for Inactive)
REMARK    1  A    between atoms: C_2  and  C_3
REMARK    2  A    between atoms: N_7  and  C_8
REMARK    3  A    between atoms: C_8  and  C_9
REMARK    4  A    between atoms: C_9  and  O_10
REMARK    5  A    between atoms: C_9  and  C_11
REMARK    6  A    between atoms: C_15  and  O_16
REMARK    7  A    between atoms: O_16  and  C_17
REMARK                            x       y       z     vdW  Elec       q    Type
REMARK                         _______ _______ _______ _____ _____    ______ ____
ROOT
ATOM      1  C   UNL     1      -5.806   1.169  -0.258  0.00  0.00    +0.000 C 
ENDROOT
BRANCH   1   2
ATOM      2  C   UNL     1      -6.606   2.457  -0.325  0.00  0.00    +0.000 A 
ATOM      3  C   UNL     1      -8.003   2.436  -0.216  0.00  0.00    +0.000 A 
ATOM      4  C   UNL     1      -8.726   3.630  -0.135  0.00  0.00    +0.000 A 
ATOM      5  C   UNL     1      -8.068   4.862  -0.165  0.00  0.00    +0.000 A 
ATOM      6  C   UNL     1      -6.684   4.898  -0.305  0.00  0.00    +0.000 A 
ATOM      7  C   UNL     1      -5.966   3.703  -0.398  0.00  0.00    +0.000 A 
BRANCH   6   8
ATOM      8  O   UNL     1      -5.910   6.027  -0.308  0.00  0.00    +0.000 OA
BRANCH   8   9
ATOM      9  C   UNL     1      -6.518   7.306  -0.587  0.00  0.00    +0.000 C 
ATOM     10  C   UNL     1      -6.974   7.591  -2.033  0.00  0.00    +0.000 C 
ATOM     11  N   UNL     1      -6.316   8.911  -1.978  0.00  0.00    +0.000 NA
ATOM     12  C   UNL     1      -5.509   8.449  -0.835  0.00  0.00    +0.000 C 
ATOM     13  H   UNL     1      -6.946   9.678  -1.748  0.00  0.00    +0.000 HD
ENDBRANCH   8   9
ENDBRANCH   6   8
ENDBRANCH   1   2
BRANCH   1  14
ATOM     14  O   UNL     1      -5.061   0.986  -1.465  0.00  0.00    +0.000 OA
ATOM     15  H   UNL     1      -4.389   1.685  -1.513  0.00  0.00    +0.000 HD
ENDBRANCH   1  14
BRANCH   1  16
ATOM     16  C   UNL     1      -4.875   1.184   0.981  0.00  0.00    +0.000 C 
BRANCH  16  21
ATOM     17  C   UNL     1      -1.479  -0.806   4.212  0.00  0.00    +0.000 A 
ATOM     18  C   UNL     1      -2.515   0.091   4.445  0.00  0.00    +0.000 A 
ATOM     19  C   UNL     1      -3.417   0.371   3.419  0.00  0.00    +0.000 A 
ATOM     20  C   UNL     1      -3.263  -0.233   2.173  0.00  0.00    +0.000 A 
ATOM     21  N   UNL     1      -4.170  -0.081   1.141  0.00  0.00    +0.000 N 
ATOM     22  N   UNL     1      -2.244  -1.081   1.931  0.00  0.00    +0.000 NA
ATOM     23  C   UNL     1      -1.383  -1.354   2.945  0.00  0.00    +0.000 A 
ATOM     24  H   UNL     1      -3.779  -0.479   0.288  0.00  0.00    +0.000 HD
BRANCH  17  26
ATOM     25  N   UNL     1       0.180  -1.454   6.090  0.00  0.00    +0.000 NA
ATOM     26  C   UNL     1      -0.558  -1.162   5.245  0.00  0.00    +0.000 C 
ENDBRANCH  17  26
ENDBRANCH  16  21
ENDBRANCH   1  16
TORSDOF 7
