REMARK  Name = 
REMARK  7 active torsions:
REMARK  status: ('A' for Active; 'I' for Inactive)
REMARK    1  A    between atoms: C_1  and  C_2
REMARK    2  A    between atoms: C_2  and  C_3
REMARK    3  A    between atoms: C_2  and  C_4
REMARK    4  A    between atoms: C_2  and  C_5
REMARK    5  A    between atoms: C_9  and  C_10
REMARK    6  A    between atoms: N_16  and  C_17
REMARK    7  A    between atoms: C_17  and  C_18
REMARK                            x       y       z     vdW  Elec       q    Type
REMARK                         _______ _______ _______ _____ _____    ______ ____
ROOT
ATOM      1  C   UNL     1       3.098   0.258   1.333  0.00  0.00    +0.000 A 
ATOM      2  N   UNL     1       3.159   1.466   1.877  0.00  0.00    +0.000 NA
ATOM      3  C   UNL     1       3.651   1.311   3.144  0.00  0.00    +0.000 A 
ATOM      4  C   UNL     1       3.888   2.249   4.157  0.00  0.00    +0.000 A 
ATOM      5  C   UNL     1       4.390   1.763   5.370  0.00  0.00    +0.000 A 
ATOM      6  C   UNL     1       4.643   0.392   5.486  0.00  0.00    +0.000 A 
ATOM      7  N   UNL     1       4.430  -0.547   4.522  0.00  0.00    +0.000 NA
ATOM      8  C   UNL     1       3.931  -0.021   3.391  0.00  0.00    +0.000 A 
ATOM      9  N   UNL     1       3.526  -0.692   2.254  0.00  0.00    +0.000 N 
ENDROOT
BRANCH   5  10
ATOM     10  C   UNL     1       4.658   2.619   6.556  0.00  0.00    +0.000 C 
ATOM     11  N   UNL     1       4.404   3.959   6.473  0.00  0.00    +0.000 N 
ATOM     12  O   UNL     1       5.094   2.134   7.597  0.00  0.00    +0.000 OA
ATOM     13  H   UNL     1       4.032   4.439   5.669  0.00  0.00    +0.000 HD
ATOM     14  H   UNL     1       4.585   4.510   7.308  0.00  0.00    +0.000 HD
ENDBRANCH   5  10
BRANCH   1  16
ATOM     15  C   UNL     1       2.194   1.365  -0.714  0.00  0.00    +0.000 C 
ATOM     16  C   UNL     1       2.644   0.012  -0.106  0.00  0.00    +0.000 C 
ATOM     17  C   UNL     1       1.440  -0.935  -0.207  0.00  0.00    +0.000 C 
ATOM     18  C   UNL     1       3.799  -0.517  -0.975  0.00  0.00    +0.000 C 
ENDBRANCH   1  16
BRANCH   9  19
ATOM     19  C   UNL     1       3.604  -2.139   2.126  0.00  0.00    +0.000 C 
BRANCH  19  20
ATOM     20  C   UNL     1       2.357  -2.877   2.558  0.00  0.00    +0.000 A 
ATOM     21  C   UNL     1       1.984  -4.056   1.884  0.00  0.00    +0.000 A 
ATOM     22  C   UNL     1       0.944  -4.856   2.360  0.00  0.00    +0.000 A 
ATOM     23  C   UNL     1       0.265  -4.492   3.521  0.00  0.00    +0.000 A 
ATOM     24  C   UNL     1       0.597  -3.309   4.173  0.00  0.00    +0.000 A 
ATOM     25 CL   UNL     1      -0.232  -2.860   5.612  0.00  0.00    +0.000 Cl
ATOM     26  C   UNL     1       1.625  -2.502   3.694  0.00  0.00    +0.000 A 
ENDBRANCH  19  20
ENDBRANCH   9  19
TORSDOF 4
