REMARK  Name = 
REMARK  5 active torsions:
REMARK  status: ('A' for Active; 'I' for Inactive)
REMARK    1  A    between atoms: C_2  and  C_3
REMARK    2  A    between atoms: C_6  and  N_7
REMARK    3  A    between atoms: N_7  and  C_8
REMARK    4  A    between atoms: C_8  and  C_9
REMARK    5  A    between atoms: C_13  and  C_14
REMARK                            x       y       z     vdW  Elec       q    Type
REMARK                         _______ _______ _______ _____ _____    ______ ____
ROOT
ATOM      1  C   UNL     1       8.670  -0.855   0.104  0.00  0.00    +0.000 C 
ATOM      2  C   UNL     1       8.866  -1.465  -1.277  0.00  0.00    +0.000 C 
ATOM      3  C   UNL     1       8.935  -2.332  -0.064  0.00  0.00    +0.000 C 
ENDROOT
BRANCH   1   4
ATOM      4  C   UNL     1       9.752   0.026   0.707  0.00  0.00    +0.000 A 
ATOM      5  C   UNL     1      10.317  -0.241   1.963  0.00  0.00    +0.000 A 
ATOM      6  C   UNL     1      11.129   0.696   2.599  0.00  0.00    +0.000 A 
ATOM      7  C   UNL     1      11.377   1.929   1.992  0.00  0.00    +0.000 A 
ATOM      8  C   UNL     1      10.847   2.238   0.730  0.00  0.00    +0.000 A 
ATOM      9  C   UNL     1      10.078   1.250   0.092  0.00  0.00    +0.000 A 
BRANCH   8  10
ATOM     10  C   UNL     1      10.995   3.577   0.132  0.00  0.00    +0.000 A 
ATOM     11  C   UNL     1      10.931   4.741   0.914  0.00  0.00    +0.000 A 
ATOM     12  C   UNL     1      11.031   6.000   0.326  0.00  0.00    +0.000 A 
ATOM     13  C   UNL     1      11.182   6.072  -1.047  0.00  0.00    +0.000 A 
ATOM     14  N   UNL     1      11.236   4.989  -1.848  0.00  0.00    +0.000 NA
ATOM     15  C   UNL     1      11.146   3.779  -1.242  0.00  0.00    +0.000 A 
ENDBRANCH   8  10
ENDBRANCH   1   4
BRANCH   1  16
ATOM     16  N   UNL     1       7.330  -0.256   0.252  0.00  0.00    +0.000 N 
ATOM     17  H   UNL     1       7.263   0.669  -0.173  0.00  0.00    +0.000 HD
BRANCH  16  21
ATOM     18  C   UNL     1       4.708  -0.570   3.411  0.00  0.00    +0.000 A 
ATOM     19  N   UNL     1       5.821  -1.319   3.490  0.00  0.00    +0.000 NA
ATOM     20  C   UNL     1       6.698  -1.186   2.468  0.00  0.00    +0.000 A 
ATOM     21  C   UNL     1       6.525  -0.337   1.396  0.00  0.00    +0.000 A 
ATOM     22  C   UNL     1       5.334   0.374   1.439  0.00  0.00    +0.000 A 
ATOM     23  N   UNL     1       4.410   0.298   2.421  0.00  0.00    +0.000 NA
BRANCH  18  25
ATOM     24  N   UNL     1       2.907  -0.861   5.272  0.00  0.00    +0.000 NA
ATOM     25  C   UNL     1       3.716  -0.731   4.445  0.00  0.00    +0.000 C 
ENDBRANCH  18  25
ENDBRANCH  16  21
ENDBRANCH   1  16
TORSDOF 5
