REMARK  Name = 
REMARK  7 active torsions:
REMARK  status: ('A' for Active; 'I' for Inactive)
REMARK    1  A    between atoms: C_1  and  N_2
REMARK    2  A    between atoms: N_2  and  C_3
REMARK    3  A    between atoms: C_3  and  C_4
REMARK    4  A    between atoms: C_7  and  C_8
REMARK    5  A    between atoms: C_8  and  N_9
REMARK    6  A    between atoms: C_10  and  C_12
REMARK    7  A    between atoms: C_19  and  C_21
REMARK                            x       y       z     vdW  Elec       q    Type
REMARK                         _______ _______ _______ _____ _____    ______ ____
ROOT
ATOM      1  C   UNL     1       2.128  -1.636  -1.887  0.00  0.00    +0.000 A 
ATOM      2  C   UNL     1       2.241  -3.027  -2.030  0.00  0.00    +0.000 A 
ATOM      3  C   UNL     1       1.406  -3.721  -2.908  0.00  0.00    +0.000 A 
ATOM      4  C   UNL     1       0.449  -3.035  -3.664  0.00  0.00    +0.000 A 
ATOM      5  C   UNL     1       0.345  -1.643  -3.529  0.00  0.00    +0.000 A 
ATOM      6  C   UNL     1       1.184  -0.947  -2.656  0.00  0.00    +0.000 A 
ENDROOT
BRANCH   1   7
ATOM      7  C   UNL     1       2.978  -0.902  -0.883  0.00  0.00    +0.000 C 
BRANCH   7   9
ATOM      8  C   UNL     1       4.767  -0.584  -2.660  0.00  0.00    +0.000 C 
ATOM      9  N   UNL     1       4.248  -0.320  -1.323  0.00  0.00    +0.000 N 
ATOM     10  C   UNL     1       4.986   0.603  -0.556  0.00  0.00    +0.000 C 
ATOM     11  O   UNL     1       5.997   1.135  -1.010  0.00  0.00    +0.000 OA
BRANCH  10  12
ATOM     12  C   UNL     1       4.570   0.907   0.823  0.00  0.00    +0.000 A 
ATOM     13  C   UNL     1       4.215  -0.042   1.768  0.00  0.00    +0.000 A 
ATOM     14  S   UNL     1       3.847   0.615   3.300  0.00  0.00    +0.000 S 
ATOM     15  C   UNL     1       4.302   2.173   2.796  0.00  0.00    +0.000 A 
ATOM     16  N   UNL     1       4.332   3.210   3.674  0.00  0.00    +0.000 NA
ATOM     17  C   UNL     1       4.769   4.315   3.170  0.00  0.00    +0.000 A 
ATOM     18  N   UNL     1       5.138   4.486   1.859  0.00  0.00    +0.000 N 
ATOM     19  C   UNL     1       4.988   3.503   0.905  0.00  0.00    +0.000 A 
ATOM     20  O   UNL     1       5.089   3.760  -0.291  0.00  0.00    +0.000 OA
ATOM     21  C   UNL     1       4.625   2.206   1.452  0.00  0.00    +0.000 A 
ATOM     22  H   UNL     1       5.404   5.397   1.515  0.00  0.00    +0.000 HD
ENDBRANCH  10  12
ENDBRANCH   7   9
ENDBRANCH   1   7
BRANCH   4  23
ATOM     23  C   UNL     1      -0.492  -3.788  -4.567  0.00  0.00    +0.000 C 
BRANCH  23  24
ATOM     24  N   UNL     1      -1.663  -4.218  -3.843  0.00  0.00    +0.000 N 
ATOM     25  C   UNL     1      -2.698  -4.856  -4.479  0.00  0.00    +0.000 C 
ATOM     26  O   UNL     1      -2.695  -5.075  -5.686  0.00  0.00    +0.000 OA
ATOM     27  H   UNL     1      -1.672  -4.125  -2.839  0.00  0.00    +0.000 HD
BRANCH  25  28
ATOM     28  C   UNL     1      -3.792  -5.262  -3.622  0.00  0.00    +0.000 A 
ATOM     29  C   UNL     1      -4.030  -5.094  -2.267  0.00  0.00    +0.000 A 
ATOM     30  C   UNL     1      -5.274  -5.699  -1.957  0.00  0.00    +0.000 A 
ATOM     31  C   UNL     1      -5.776  -6.220  -3.125  0.00  0.00    +0.000 A 
ATOM     32  N   UNL     1      -4.880  -5.949  -4.125  0.00  0.00    +0.000 N 
ATOM     33  H   UNL     1      -4.979  -6.204  -5.100  0.00  0.00    +0.000 HD
ENDBRANCH  25  28
ENDBRANCH  23  24
ENDBRANCH   4  23
TORSDOF 6
