REMARK  Name = 
REMARK  5 active torsions:
REMARK  status: ('A' for Active; 'I' for Inactive)
REMARK    1  A    between atoms: C_2  and  C_20
REMARK    2  A    between atoms: N_3  and  C_4
REMARK    3  A    between atoms: C_4  and  C_5
REMARK    4  A    between atoms: C_8  and  C_9
REMARK    5  A    between atoms: C_9  and  N_10
REMARK                            x       y       z     vdW  Elec       q    Type
REMARK                         _______ _______ _______ _____ _____    ______ ____
ROOT
ATOM      1  C   UNL     1       2.364   1.325  -1.933  0.00  0.00    +0.000 C 
ENDROOT
BRANCH   1   2
ATOM      2  C   UNL     1       3.306   2.095  -2.825  0.00  0.00    +0.000 A 
ATOM      3  C   UNL     1       3.164   3.481  -2.984  0.00  0.00    +0.000 A 
ATOM      4  C   UNL     1       4.017   4.196  -3.834  0.00  0.00    +0.000 A 
ATOM      5  C   UNL     1       5.018   3.538  -4.562  0.00  0.00    +0.000 A 
ATOM      6  C   UNL     1       5.161   2.153  -4.400  0.00  0.00    +0.000 A 
ATOM      7  C   UNL     1       4.308   1.438  -3.551  0.00  0.00    +0.000 A 
BRANCH   5   8
ATOM      8  C   UNL     1       5.903   4.295  -5.521  0.00  0.00    +0.000 C 
BRANCH   8   9
ATOM      9  N   UNL     1       7.088   4.828  -4.887  0.00  0.00    +0.000 N 
ATOM     10  C   UNL     1       8.027   5.457  -5.666  0.00  0.00    +0.000 C 
ATOM     11  O   UNL     1       7.934   5.513  -6.889  0.00  0.00    +0.000 OA
ATOM     12  N   UNL     1       9.082   6.014  -4.985  0.00  0.00    +0.000 N 
ATOM     13  C   UNL     1       9.407   5.910  -3.576  0.00  0.00    +0.000 C 
ATOM     14  C   UNL     1      10.343   7.084  -3.344  0.00  0.00    +0.000 C 
ATOM     15  C   UNL     1      11.131   7.170  -4.646  0.00  0.00    +0.000 C 
ATOM     16  C   UNL     1      10.160   6.668  -5.712  0.00  0.00    +0.000 C 
ATOM     17  H   UNL     1       6.959   5.207  -3.965  0.00  0.00    +0.000 HD
ENDBRANCH   8   9
ENDBRANCH   5   8
ENDBRANCH   1   2
BRANCH   1  20
ATOM     18  O   UNL     1       0.322  -0.277  -0.904  0.00  0.00    +0.000 OA
ATOM     19  C   UNL     1       0.230   0.118  -2.065  0.00  0.00    +0.000 C 
ATOM     20  N   UNL     1       1.218   0.854  -2.668  0.00  0.00    +0.000 N 
ATOM     21  H   UNL     1       1.013   1.334  -3.537  0.00  0.00    +0.000 HD
BRANCH  19  22
ATOM     22  C   UNL     1      -0.928  -0.222  -2.901  0.00  0.00    +0.000 A 
ATOM     23  C   UNL     1      -1.689  -1.346  -2.617  0.00  0.00    +0.000 A 
ATOM     24  S   UNL     1      -2.963  -1.606  -3.723  0.00  0.00    +0.000 S 
ATOM     25  C   UNL     1      -2.575  -0.193  -4.588  0.00  0.00    +0.000 A 
ATOM     26  N   UNL     1      -3.304   0.189  -5.671  0.00  0.00    +0.000 NA
ATOM     27  C   UNL     1      -2.916   1.297  -6.210  0.00  0.00    +0.000 A 
ATOM     28  N   UNL     1      -1.867   2.057  -5.763  0.00  0.00    +0.000 N 
ATOM     29  C   UNL     1      -1.085   1.697  -4.694  0.00  0.00    +0.000 A 
ATOM     30  O   UNL     1      -0.123   2.377  -4.351  0.00  0.00    +0.000 OA
ATOM     31  C   UNL     1      -1.480   0.460  -4.048  0.00  0.00    +0.000 A 
ATOM     32  H   UNL     1      -1.607   2.911  -6.236  0.00  0.00    +0.000 HD
ENDBRANCH  19  22
ENDBRANCH   1  20
TORSDOF 5
