REMARK  Name = 
REMARK  7 active torsions:
REMARK  status: ('A' for Active; 'I' for Inactive)
REMARK    1  A    between atoms: C_1  and  O_2
REMARK    2  A    between atoms: O_2  and  C_3
REMARK    3  A    between atoms: C_7  and  C_8
REMARK    4  A    between atoms: C_8  and  C_9
REMARK    5  A    between atoms: C_12  and  C_13
REMARK    6  A    between atoms: C_13  and  N_14
REMARK    7  A    between atoms: C_15  and  C_17
REMARK                            x       y       z     vdW  Elec       q    Type
REMARK                         _______ _______ _______ _____ _____    ______ ____
ROOT
ATOM      1  C   UNL     1       8.952  -1.364  -7.362  0.00  0.00    +0.000 C 
ENDROOT
BRANCH   1   5
ATOM      2  C   UNL     1       7.126  -1.732  -3.522  0.00  0.00    +0.000 A 
ATOM      3  C   UNL     1       7.384  -0.456  -4.016  0.00  0.00    +0.000 A 
ATOM      4  C   UNL     1       7.998  -0.323  -5.261  0.00  0.00    +0.000 A 
ATOM      5  C   UNL     1       8.350  -1.461  -5.990  0.00  0.00    +0.000 A 
ATOM      6  C   UNL     1       8.062  -2.693  -5.415  0.00  0.00    +0.000 A 
ATOM      7  N   UNL     1       7.473  -2.853  -4.206  0.00  0.00    +0.000 NA
BRANCH   2   8
ATOM      8  C   UNL     1       6.333  -1.912  -2.241  0.00  0.00    +0.000 C 
BRANCH   8  13
ATOM      9  C   UNL     1       2.633  -0.921  -2.303  0.00  0.00    +0.000 A 
ATOM     10  C   UNL     1       2.107  -1.912  -3.132  0.00  0.00    +0.000 A 
ATOM     11  C   UNL     1       2.926  -2.936  -3.608  0.00  0.00    +0.000 A 
ATOM     12  C   UNL     1       4.279  -2.958  -3.280  0.00  0.00    +0.000 A 
ATOM     13  C   UNL     1       4.838  -1.945  -2.488  0.00  0.00    +0.000 A 
ATOM     14  C   UNL     1       3.995  -0.946  -1.978  0.00  0.00    +0.000 A 
BRANCH   9  16
ATOM     15  C   UNL     1       0.559   0.222  -2.132  0.00  0.00    +0.000 C 
ATOM     16  O   UNL     1       1.930   0.122  -1.762  0.00  0.00    +0.000 OA
ENDBRANCH   9  16
ENDBRANCH   8  13
ENDBRANCH   2   8
ENDBRANCH   1   5
BRANCH   1  17
ATOM     17  N   UNL     1       7.926  -1.323  -8.377  0.00  0.00    +0.000 N 
ATOM     18  C   UNL     1       8.228  -1.372  -9.714  0.00  0.00    +0.000 C 
ATOM     19  O   UNL     1       9.383  -1.496 -10.115  0.00  0.00    +0.000 OA
ATOM     20  H   UNL     1       7.014  -0.982  -8.092  0.00  0.00    +0.000 HD
BRANCH  18  21
ATOM     21  C   UNL     1       7.091  -1.330 -10.642  0.00  0.00    +0.000 A 
ATOM     22  C   UNL     1       7.223  -1.851 -11.922  0.00  0.00    +0.000 A 
ATOM     23  S   UNL     1       5.789  -1.782 -12.843  0.00  0.00    +0.000 S 
ATOM     24  C   UNL     1       4.952  -1.004 -11.583  0.00  0.00    +0.000 A 
ATOM     25  N   UNL     1       3.651  -0.633 -11.729  0.00  0.00    +0.000 NA
ATOM     26  C   UNL     1       3.151  -0.025 -10.707  0.00  0.00    +0.000 A 
ATOM     27  N   UNL     1       3.834   0.248  -9.549  0.00  0.00    +0.000 N 
ATOM     28  C   UNL     1       5.139  -0.129  -9.352  0.00  0.00    +0.000 A 
ATOM     29  O   UNL     1       5.712   0.099  -8.289  0.00  0.00    +0.000 OA
ATOM     30  C   UNL     1       5.753  -0.813 -10.471  0.00  0.00    +0.000 A 
ATOM     31  H   UNL     1       3.385   0.724  -8.782  0.00  0.00    +0.000 HD
ENDBRANCH  18  21
ENDBRANCH   1  17
TORSDOF 6
