REMARK  Name = 
REMARK  9 active torsions:
REMARK  status: ('A' for Active; 'I' for Inactive)
REMARK    1  A    between atoms: C_1  and  O_2
REMARK    2  A    between atoms: O_2  and  C_3
REMARK    3  A    between atoms: C_10  and  C_11
REMARK    4  A    between atoms: N_13  and  C_14
REMARK    5  A    between atoms: C_14  and  C_15
REMARK    6  A    between atoms: C_18  and  C_19
REMARK    7  A    between atoms: C_19  and  N_20
REMARK    8  A    between atoms: N_20  and  C_21
REMARK    9  A    between atoms: C_21  and  C_22
REMARK                            x       y       z     vdW  Elec       q    Type
REMARK                         _______ _______ _______ _____ _____    ______ ____
ROOT
ATOM      1  C   UNL     1       3.378  -3.071   1.173  0.00  0.00    +0.000 C 
ENDROOT
BRANCH   1   2
ATOM      2  C   UNL     1       2.393  -2.598   2.214  0.00  0.00    +0.000 A 
ATOM      3  C   UNL     1       1.506  -3.498   2.821  0.00  0.00    +0.000 A 
ATOM      4  C   UNL     1       0.573  -3.057   3.768  0.00  0.00    +0.000 A 
ATOM      5  C   UNL     1       0.494  -1.703   4.124  0.00  0.00    +0.000 A 
ATOM      6  C   UNL     1       1.373  -0.802   3.509  0.00  0.00    +0.000 A 
ATOM      7  C   UNL     1       2.309  -1.243   2.563  0.00  0.00    +0.000 A 
BRANCH   5   8
ATOM      8  C   UNL     1      -0.517  -1.226   5.146  0.00  0.00    +0.000 C 
BRANCH   8   9
ATOM      9  N   UNL     1      -0.297  -1.871   6.438  0.00  0.00    +0.000 NA
ATOM     10  H   UNL     1       0.653  -1.673   6.752  0.00  0.00    +0.000 HD
BRANCH   9  11
ATOM     11  C   UNL     1      -1.236  -1.405   7.456  0.00  0.00    +0.000 C 
BRANCH  11  12
ATOM     12  C   UNL     1      -1.001  -2.119   8.769  0.00  0.00    +0.000 A 
ATOM     13  C   UNL     1      -0.678  -1.410   9.934  0.00  0.00    +0.000 A 
ATOM     14  C   UNL     1      -0.501  -2.082  11.148  0.00  0.00    +0.000 A 
ATOM     15  C   UNL     1      -0.639  -3.468  11.207  0.00  0.00    +0.000 A 
ATOM     16  C   UNL     1      -0.943  -4.186  10.053  0.00  0.00    +0.000 A 
ATOM     17  C   UNL     1      -1.124  -3.516   8.843  0.00  0.00    +0.000 A 
ENDBRANCH  11  12
ENDBRANCH   9  11
ENDBRANCH   8   9
ENDBRANCH   5   8
ENDBRANCH   1   2
BRANCH   1  20
ATOM     18  C   UNL     1       3.472  -3.423  -1.276  0.00  0.00    +0.000 C 
ATOM     19  O   UNL     1       4.627  -3.842  -1.216  0.00  0.00    +0.000 OA
ATOM     20  N   UNL     1       2.799  -3.032  -0.149  0.00  0.00    +0.000 N 
ATOM     21  H   UNL     1       1.850  -2.690  -0.221  0.00  0.00    +0.000 HD
BRANCH  18  29
ATOM     22  C   UNL     1       0.294  -2.421  -2.137  0.00  0.00    +0.000 A 
ATOM     23  N   UNL     1      -0.843  -2.022  -2.739  0.00  0.00    +0.000 NA
ATOM     24  C   UNL     1      -0.891  -2.067  -4.074  0.00  0.00    +0.000 A 
ATOM     25  N   UNL     1       0.067  -2.484  -4.898  0.00  0.00    +0.000 NA
ATOM     26  C   UNL     1       1.184  -2.862  -4.255  0.00  0.00    +0.000 A 
ATOM     27  S   UNL     1       2.513  -3.435  -5.145  0.00  0.00    +0.000 S 
ATOM     28  C   UNL     1       3.428  -3.659  -3.729  0.00  0.00    +0.000 A 
ATOM     29  C   UNL     1       2.762  -3.300  -2.563  0.00  0.00    +0.000 A 
ATOM     30  C   UNL     1       1.407  -2.852  -2.881  0.00  0.00    +0.000 A 
BRANCH  22  32
ATOM     31  C   UNL     1      -0.926  -2.451  -0.139  0.00  0.00    +0.000 C 
ATOM     32  O   UNL     1       0.352  -2.357  -0.762  0.00  0.00    +0.000 OA
ENDBRANCH  22  32
ENDBRANCH  18  29
ENDBRANCH   1  20
TORSDOF 8
