REMARK  Name = 
REMARK  10 active torsions:
REMARK  status: ('A' for Active; 'I' for Inactive)
REMARK    1  A    between atoms: C_1  and  C_2
REMARK    2  A    between atoms: C_2  and  N_3
REMARK    3  A    between atoms: N_3  and  C_4
REMARK    4  A    between atoms: N_3  and  C_25
REMARK    5  A    between atoms: C_4  and  C_5
REMARK    6  A    between atoms: C_8  and  C_9
REMARK    7  A    between atoms: C_9  and  N_10
REMARK    8  A    between atoms: C_11  and  C_13
REMARK    9  A    between atoms: C_25  and  C_26
REMARK   10  A    between atoms: C_25  and  C_27
REMARK                            x       y       z     vdW  Elec       q    Type
REMARK                         _______ _______ _______ _____ _____    ______ ____
ROOT
ATOM      1  C   UNL     1       6.855   0.463   0.146  0.00  0.00    +0.000 A 
ATOM      2  C   UNL     1       7.083   0.456  -1.230  0.00  0.00    +0.000 A 
ATOM      3  C   UNL     1       7.246   1.671  -1.897  0.00  0.00    +0.000 A 
ATOM      4  C   UNL     1       7.163   2.870  -1.187  0.00  0.00    +0.000 A 
ATOM      5  C   UNL     1       7.020   2.778   0.192  0.00  0.00    +0.000 A 
ATOM      6  N   UNL     1       6.862   1.614   0.867  0.00  0.00    +0.000 NA
ENDROOT
BRANCH   1   7
ATOM      7  C   UNL     1       6.414  -0.811   0.867  0.00  0.00    +0.000 C 
BRANCH   7   8
ATOM      8  N   UNL     1       7.282  -1.999   0.669  0.00  0.00    +0.000 NA
BRANCH   8  10
ATOM      9  C   UNL     1       9.586  -2.916   1.254  0.00  0.00    +0.000 C 
ATOM     10  C   UNL     1       8.579  -1.771   1.339  0.00  0.00    +0.000 C 
ENDBRANCH   8  10
BRANCH   8  11
ATOM     11  C   UNL     1       6.611  -3.280   1.043  0.00  0.00    +0.000 C 
ATOM     12  C   UNL     1       5.287  -3.520   0.289  0.00  0.00    +0.000 C 
BRANCH  11  13
ATOM     13  C   UNL     1       6.367  -3.545   2.533  0.00  0.00    +0.000 A 
ATOM     14  C   UNL     1       7.045  -4.585   3.173  0.00  0.00    +0.000 A 
ATOM     15  C   UNL     1       6.766  -4.864   4.507  0.00  0.00    +0.000 A 
ATOM     16  C   UNL     1       5.803  -4.116   5.168  0.00  0.00    +0.000 A 
ATOM     17  C   UNL     1       5.166  -3.107   4.465  0.00  0.00    +0.000 A 
ATOM     18  N   UNL     1       5.428  -2.803   3.174  0.00  0.00    +0.000 NA
ENDBRANCH  11  13
ENDBRANCH   8  11
ENDBRANCH   7   8
ENDBRANCH   1   7
BRANCH   4  19
ATOM     19  C   UNL     1       7.198   4.201  -1.876  0.00  0.00    +0.000 C 
BRANCH  19  20
ATOM     20  N   UNL     1       8.538   4.703  -2.022  0.00  0.00    +0.000 N 
ATOM     21  C   UNL     1       8.769   5.961  -2.517  0.00  0.00    +0.000 C 
ATOM     22  O   UNL     1       7.851   6.727  -2.800  0.00  0.00    +0.000 OA
ATOM     23  H   UNL     1       9.291   4.019  -2.030  0.00  0.00    +0.000 HD
BRANCH  21  24
ATOM     24  C   UNL     1      10.172   6.373  -2.634  0.00  0.00    +0.000 A 
ATOM     25  C   UNL     1      10.494   7.724  -2.647  0.00  0.00    +0.000 A 
ATOM     26  S   UNL     1      12.170   8.025  -2.732  0.00  0.00    +0.000 S 
ATOM     27  C   UNL     1      12.521   6.363  -2.809  0.00  0.00    +0.000 A 
ATOM     28  N   UNL     1      13.802   5.922  -2.928  0.00  0.00    +0.000 NA
ATOM     29  C   UNL     1      13.921   4.639  -3.006  0.00  0.00    +0.000 A 
ATOM     30  N   UNL     1      12.874   3.753  -2.974  0.00  0.00    +0.000 N 
ATOM     31  C   UNL     1      11.568   4.150  -2.832  0.00  0.00    +0.000 A 
ATOM     32  O   UNL     1      10.653   3.332  -2.770  0.00  0.00    +0.000 OA
ATOM     33  C   UNL     1      11.377   5.587  -2.751  0.00  0.00    +0.000 A 
ATOM     34  H   UNL     1      13.037   2.759  -3.037  0.00  0.00    +0.000 HD
ENDBRANCH  21  24
ENDBRANCH  19  20
ENDBRANCH   4  19
TORSDOF 8
