REMARK  Name = 
REMARK  6 active torsions:
REMARK  status: ('A' for Active; 'I' for Inactive)
REMARK    1  A    between atoms: N_1  and  C_2
REMARK    2  A    between atoms: C_2  and  C_3
REMARK    3  A    between atoms: C_6  and  O_7
REMARK    4  A    between atoms: O_7  and  C_8
REMARK    5  A    between atoms: C_8  and  C_9
REMARK    6  A    between atoms: C_14  and  C_15
REMARK                            x       y       z     vdW  Elec       q    Type
REMARK                         _______ _______ _______ _____ _____    ______ ____
ROOT
ATOM      1  C   UNL     1       4.889  -0.906  -6.074  0.00  0.00    +0.000 C 
ENDROOT
BRANCH   1   2
ATOM      2  C   UNL     1       5.160  -1.648  -7.360  0.00  0.00    +0.000 A 
ATOM      3  C   UNL     1       4.133  -2.373  -7.981  0.00  0.00    +0.000 A 
ATOM      4  C   UNL     1       4.353  -3.004  -9.202  0.00  0.00    +0.000 A 
ATOM      5  C   UNL     1       5.598  -2.902  -9.819  0.00  0.00    +0.000 A 
ATOM      6  F   UNL     1       5.760  -3.514 -11.002  0.00  0.00    +0.000 F 
ATOM      7  C   UNL     1       6.634  -2.177  -9.232  0.00  0.00    +0.000 A 
ATOM      8  C   UNL     1       6.410  -1.553  -7.993  0.00  0.00    +0.000 A 
BRANCH   7   9
ATOM      9  C   UNL     1       7.966  -2.011  -9.873  0.00  0.00    +0.000 C 
ATOM     10  N   UNL     1       8.165  -2.574 -11.100  0.00  0.00    +0.000 N 
ATOM     11  O   UNL     1       8.862  -1.376  -9.327  0.00  0.00    +0.000 OA
ATOM     12  H   UNL     1       7.452  -3.106 -11.584  0.00  0.00    +0.000 HD
ATOM     13  H   UNL     1       9.065  -2.451 -11.542  0.00  0.00    +0.000 HD
ENDBRANCH   7   9
ENDBRANCH   1   2
BRANCH   1  14
ATOM     14  O   UNL     1       4.333  -1.803  -5.109  0.00  0.00    +0.000 OA
BRANCH  14  18
ATOM     15  C   UNL     1       1.977  -0.130  -2.090  0.00  0.00    +0.000 A 
ATOM     16  C   UNL     1       1.879  -1.483  -2.446  0.00  0.00    +0.000 A 
ATOM     17  C   UNL     1       2.700  -2.016  -3.444  0.00  0.00    +0.000 A 
ATOM     18  C   UNL     1       3.620  -1.202  -4.107  0.00  0.00    +0.000 A 
ATOM     19  C   UNL     1       3.754   0.133  -3.723  0.00  0.00    +0.000 A 
ATOM     20  C   UNL     1       2.931   0.668  -2.732  0.00  0.00    +0.000 A 
BRANCH  15  21
ATOM     21  C   UNL     1       1.069   0.464  -1.044  0.00  0.00    +0.000 C 
BRANCH  21  22
ATOM     22  N   UNL     1       1.272  -0.158   0.257  0.00  0.00    +0.000 NA
ATOM     23  H   UNL     1       0.737   0.352   0.956  0.00  0.00    +0.000 HD
ATOM     24  H   UNL     1       2.253  -0.059   0.516  0.00  0.00    +0.000 HD
ENDBRANCH  21  22
ENDBRANCH  15  21
ENDBRANCH  14  18
ENDBRANCH   1  14
TORSDOF 6
