REMARK  Name = 
REMARK  6 active torsions:
REMARK  status: ('A' for Active; 'I' for Inactive)
REMARK    1  A    between atoms: C_2  and  C_4
REMARK    2  A    between atoms: C_7  and  O_8
REMARK    3  A    between atoms: O_8  and  C_9
REMARK    4  A    between atoms: C_9  and  C_10
REMARK    5  A    between atoms: C_12  and  C_13
REMARK    6  A    between atoms: C_20  and  N_21
REMARK                            x       y       z     vdW  Elec       q    Type
REMARK                         _______ _______ _______ _____ _____    ______ ____
ROOT
ATOM      1  C   UNL     1       5.283   5.354  -5.173  0.00  0.00    +0.000 A 
ATOM      2  C   UNL     1       5.062   6.730  -5.346  0.00  0.00    +0.000 A 
ATOM      3  C   UNL     1       5.768   7.493  -6.297  0.00  0.00    +0.000 A 
ATOM      4  C   UNL     1       6.691   6.820  -7.117  0.00  0.00    +0.000 A 
ATOM      5  C   UNL     1       6.921   5.446  -6.952  0.00  0.00    +0.000 A 
ATOM      6  C   UNL     1       6.222   4.712  -5.984  0.00  0.00    +0.000 A 
ENDROOT
BRANCH   3   7
ATOM      7  C   UNL     1       5.566   8.951  -6.411  0.00  0.00    +0.000 A 
ATOM      8  C   UNL     1       5.268   9.751  -5.306  0.00  0.00    +0.000 A 
ATOM      9  C   UNL     1       5.093  11.121  -5.479  0.00  0.00    +0.000 A 
ATOM     10  C   UNL     1       5.226  11.664  -6.748  0.00  0.00    +0.000 A 
ATOM     11  C   UNL     1       5.532  10.811  -7.793  0.00  0.00    +0.000 A 
ATOM     12  N   UNL     1       5.706   9.476  -7.654  0.00  0.00    +0.000 NA
ENDBRANCH   3   7
BRANCH   5  13
ATOM     13  N   UNL     1       7.924   4.769  -7.785  0.00  0.00    +0.000 N 
ATOM     14  O   UNL     1       8.576   5.455  -8.584  0.00  0.00    +0.000 OA
ATOM     15  O   UNL     1       8.066   3.546  -7.633  0.00  0.00    +0.000 OA
ENDBRANCH   5  13
BRANCH   1  16
ATOM     16  C   UNL     1       4.497   4.596  -4.132  0.00  0.00    +0.000 C 
BRANCH  16  17
ATOM     17  O   UNL     1       4.755   5.167  -2.848  0.00  0.00    +0.000 OA
BRANCH  17  21
ATOM     18  C   UNL     1       2.944   3.548   0.545  0.00  0.00    +0.000 A 
ATOM     19  C   UNL     1       2.635   3.001  -0.704  0.00  0.00    +0.000 A 
ATOM     20  C   UNL     1       3.219   3.520  -1.863  0.00  0.00    +0.000 A 
ATOM     21  C   UNL     1       4.113   4.590  -1.786  0.00  0.00    +0.000 A 
ATOM     22  C   UNL     1       4.400   5.152  -0.539  0.00  0.00    +0.000 A 
ATOM     23  C   UNL     1       3.814   4.639   0.625  0.00  0.00    +0.000 A 
BRANCH  18  25
ATOM     24  N   UNL     1       2.017   1.677   1.790  0.00  0.00    +0.000 N 
ATOM     25  C   UNL     1       2.353   3.003   1.793  0.00  0.00    +0.000 C 
ATOM     26  O   UNL     1       2.207   3.693   2.792  0.00  0.00    +0.000 OA
ATOM     27  H   UNL     1       1.721   1.288   2.676  0.00  0.00    +0.000 HD
ATOM     28  H   UNL     1       2.361   1.034   1.091  0.00  0.00    +0.000 HD
ENDBRANCH  18  25
ENDBRANCH  17  21
ENDBRANCH  16  17
ENDBRANCH   1  16
TORSDOF 6
