REMARK  Name = 
REMARK  5 active torsions:
REMARK  status: ('A' for Active; 'I' for Inactive)
REMARK    1  A    between atoms: N_1  and  C_2
REMARK    2  A    between atoms: C_2  and  C_3
REMARK    3  A    between atoms: C_3  and  C_4
REMARK    4  A    between atoms: C_8  and  C_9
REMARK    5  A    between atoms: C_9  and  N_10
REMARK                            x       y       z     vdW  Elec       q    Type
REMARK                         _______ _______ _______ _____ _____    ______ ____
ROOT
ATOM      1  C   UNL     1       4.604  -1.208   0.678  0.00  0.00    +0.000 A 
ATOM      2  C   UNL     1       5.260   0.017   0.615  0.00  0.00    +0.000 A 
ATOM      3  C   UNL     1       6.647   0.029   0.523  0.00  0.00    +0.000 A 
ATOM      4  C   UNL     1       7.341  -1.176   0.511  0.00  0.00    +0.000 A 
ATOM      5  C   UNL     1       6.627  -2.367   0.623  0.00  0.00    +0.000 A 
ATOM      6  N   UNL     1       5.271  -2.390   0.708  0.00  0.00    +0.000 NA
ENDROOT
BRANCH   1   7
ATOM      7  C   UNL     1       3.097  -1.265   0.707  0.00  0.00    +0.000 C 
BRANCH   7   8
ATOM      8  C   UNL     1       2.552  -1.311   2.135  0.00  0.00    +0.000 C 
BRANCH   8   9
ATOM      9  N   UNL     1       1.088  -1.352   2.135  0.00  0.00    +0.000 NA
ATOM     10  H   UNL     1       0.754  -1.426   3.097  0.00  0.00    +0.000 HD
ATOM     11  H   UNL     1       0.774  -2.201   1.665  0.00  0.00    +0.000 HD
ENDBRANCH   8   9
ENDBRANCH   7   8
ENDBRANCH   1   7
BRANCH   5  12
ATOM     12  C   UNL     1       7.355  -3.683   0.745  0.00  0.00    +0.000 C 
BRANCH  12  13
ATOM     13  N   UNL     1       7.597  -4.333  -0.538  0.00  0.00    +0.000 N 
ATOM     14  C   UNL     1       8.738  -4.159  -1.287  0.00  0.00    +0.000 A 
ATOM     15  C   UNL     1       8.725  -5.083  -2.307  0.00  0.00    +0.000 A 
ATOM     16  C   UNL     1       7.541  -5.858  -2.176  0.00  0.00    +0.000 A 
ATOM     17  C   UNL     1       7.011  -6.950  -2.890  0.00  0.00    +0.000 A 
ATOM     18  C   UNL     1       5.794  -7.512  -2.489  0.00  0.00    +0.000 A 
ATOM     19  C   UNL     1       5.104  -6.986  -1.401  0.00  0.00    +0.000 A 
ATOM     20 CL   UNL     1       3.609  -7.699  -0.923  0.00  0.00    +0.000 Cl
ATOM     21  C   UNL     1       5.603  -5.899  -0.677  0.00  0.00    +0.000 A 
ATOM     22  C   UNL     1       6.837  -5.356  -1.075  0.00  0.00    +0.000 A 
ENDBRANCH  12  13
ENDBRANCH   5  12
TORSDOF 5
