REMARK  Name = 
REMARK  8 active torsions:
REMARK  status: ('A' for Active; 'I' for Inactive)
REMARK    1  A    between atoms: C_1  and  C_2
REMARK    2  A    between atoms: C_2  and  C_3
REMARK    3  A    between atoms: C_2  and  C_4
REMARK    4  A    between atoms: C_2  and  C_5
REMARK    5  A    between atoms: C_8  and  C_9
REMARK    6  A    between atoms: C_9  and  O_10
REMARK    7  A    between atoms: O_10  and  C_11
REMARK    8  A    between atoms: C_14  and  C_15
REMARK                            x       y       z     vdW  Elec       q    Type
REMARK                         _______ _______ _______ _____ _____    ______ ____
ROOT
ATOM      1  O   UNL     1       3.246   3.346   5.528  0.00  0.00    +0.000 OA
ENDROOT
BRANCH   1   2
ATOM      2  C   UNL     1       3.470   3.963   6.721  0.00  0.00    +0.000 A 
ATOM      3  C   UNL     1       4.270   3.492   7.757  0.00  0.00    +0.000 A 
ATOM      4  C   UNL     1       4.404   4.250   8.920  0.00  0.00    +0.000 A 
ATOM      5  C   UNL     1       3.727   5.458   9.005  0.00  0.00    +0.000 A 
ATOM      6  N   UNL     1       2.928   5.952   8.021  0.00  0.00    +0.000 NA
ATOM      7  C   UNL     1       2.827   5.185   6.909  0.00  0.00    +0.000 A 
BRANCH   5   8
ATOM      8  C   UNL     1       3.871   6.301  10.241  0.00  0.00    +0.000 C 
ATOM      9  N   UNL     1       3.176   7.473  10.237  0.00  0.00    +0.000 N 
ATOM     10  O   UNL     1       4.575   5.957  11.185  0.00  0.00    +0.000 OA
ATOM     11  H   UNL     1       2.614   7.722   9.429  0.00  0.00    +0.000 HD
ATOM     12  H   UNL     1       3.240   8.089  11.031  0.00  0.00    +0.000 HD
ENDBRANCH   5   8
ENDBRANCH   1   2
BRANCH   1  13
ATOM     13  C   UNL     1       3.936   2.117   5.287  0.00  0.00    +0.000 C 
BRANCH  13  17
ATOM     14  C   UNL     1       2.975   0.574   1.324  0.00  0.00    +0.000 A 
ATOM     15  C   UNL     1       2.964   1.949   1.606  0.00  0.00    +0.000 A 
ATOM     16  C   UNL     1       3.282   2.457   2.865  0.00  0.00    +0.000 A 
ATOM     17  C   UNL     1       3.594   1.595   3.917  0.00  0.00    +0.000 A 
ATOM     18  C   UNL     1       3.629   0.220   3.653  0.00  0.00    +0.000 A 
ATOM     19  C   UNL     1       3.324  -0.283   2.381  0.00  0.00    +0.000 A 
BRANCH  14  21
ATOM     20  C   UNL     1       2.925   1.108  -1.155  0.00  0.00    +0.000 C 
ATOM     21  C   UNL     1       2.601   0.046  -0.076  0.00  0.00    +0.000 C 
ATOM     22  C   UNL     1       1.091  -0.264  -0.142  0.00  0.00    +0.000 C 
ATOM     23  C   UNL     1       3.350  -1.250  -0.460  0.00  0.00    +0.000 C 
ENDBRANCH  14  21
ENDBRANCH  13  17
ENDBRANCH   1  13
TORSDOF 5
