REMARK  Name = 
REMARK  6 active torsions:
REMARK  status: ('A' for Active; 'I' for Inactive)
REMARK    1  A    between atoms: C_1  and  N_2
REMARK    2  A    between atoms: C_5  and  C_6
REMARK    3  A    between atoms: C_6  and  N_7
REMARK    4  A    between atoms: N_7  and  C_8
REMARK    5  A    between atoms: C_11  and  C_12
REMARK    6  A    between atoms: C_15  and  N_16
REMARK                            x       y       z     vdW  Elec       q    Type
REMARK                         _______ _______ _______ _____ _____    ______ ____
ROOT
ATOM      1  C   UNL     1       1.986  -2.045  -3.280  0.00  0.00    +0.000 A 
ATOM      2  N   UNL     1       0.643  -2.189  -3.234  0.00  0.00    +0.000 NA
ATOM      3  C   UNL     1       0.108  -3.104  -4.080  0.00  0.00    +0.000 A 
ATOM      4  C   UNL     1       0.881  -3.861  -4.945  0.00  0.00    +0.000 A 
ATOM      5  N   UNL     1       2.232  -3.747  -5.003  0.00  0.00    +0.000 NA
ATOM      6  C   UNL     1       2.768  -2.851  -4.153  0.00  0.00    +0.000 A 
ENDROOT
BRANCH   6   7
ATOM      7  N   UNL     1       4.161  -2.663  -4.210  0.00  0.00    +0.000 N 
ATOM      8  H   UNL     1       4.547  -3.385  -4.813  0.00  0.00    +0.000 HD
ATOM      9  H   UNL     1       4.551  -2.691  -3.273  0.00  0.00    +0.000 HD
ENDBRANCH   6   7
BRANCH   1  10
ATOM     10  N   UNL     1       2.668  -1.187  -2.383  0.00  0.00    +0.000 N 
ATOM     11  H   UNL     1       3.525  -0.889  -2.848  0.00  0.00    +0.000 HD
BRANCH  10  12
ATOM     12  C   UNL     1       1.907  -0.037  -1.904  0.00  0.00    +0.000 C 
BRANCH  12  17
ATOM     13  C   UNL     1      -2.432   0.026  -0.074  0.00  0.00    +0.000 C 
ATOM     14  N   UNL     1      -1.024   0.021   0.331  0.00  0.00    +0.000 NA
ATOM     15  C   UNL     1      -0.381  -1.215  -0.143  0.00  0.00    +0.000 C 
ATOM     16  C   UNL     1       1.106  -1.249   0.203  0.00  0.00    +0.000 C 
ATOM     17  C   UNL     1       1.847  -0.033  -0.366  0.00  0.00    +0.000 C 
ATOM     18  C   UNL     1       1.147   1.232   0.154  0.00  0.00    +0.000 C 
ATOM     19  C   UNL     1      -0.353   1.232  -0.160  0.00  0.00    +0.000 C 
ENDBRANCH  12  17
ENDBRANCH  10  12
ENDBRANCH   1  10
BRANCH   4  20
ATOM     20  C   UNL     1       0.277  -4.807  -5.827  0.00  0.00    +0.000 C 
ATOM     21  N   UNL     1      -0.264  -5.564  -6.531  0.00  0.00    +0.000 NA
ENDBRANCH   4  20
TORSDOF 5
