REMARK  Name = 
REMARK  5 active torsions:
REMARK  status: ('A' for Active; 'I' for Inactive)
REMARK    1  A    between atoms: C_2  and  C_3
REMARK    2  A    between atoms: C_6  and  N_7
REMARK    3  A    between atoms: N_7  and  C_8
REMARK    4  A    between atoms: C_8  and  C_9
REMARK    5  A    between atoms: C_13  and  C_14
REMARK                            x       y       z     vdW  Elec       q    Type
REMARK                         _______ _______ _______ _____ _____    ______ ____
ROOT
ATOM      1  C   UNL     1       4.570  -1.116   0.116  0.00  0.00    +0.000 C 
ATOM      2  C   UNL     1       4.814  -2.240  -0.879  0.00  0.00    +0.000 C 
ATOM      3  C   UNL     1       4.402  -2.589   0.504  0.00  0.00    +0.000 C 
ENDROOT
BRANCH   1   4
ATOM      4  C   UNL     1       5.676  -0.493   0.961  0.00  0.00    +0.000 A 
ATOM      5  C   UNL     1       5.493  -0.299   2.343  0.00  0.00    +0.000 A 
ATOM      6  C   UNL     1       6.581  -0.104   3.188  0.00  0.00    +0.000 A 
ATOM      7  C   UNL     1       7.868  -0.070   2.655  0.00  0.00    +0.000 A 
ATOM      8  C   UNL     1       8.086  -0.157   1.269  0.00  0.00    +0.000 A 
ATOM      9  C   UNL     1       6.964  -0.317   0.441  0.00  0.00    +0.000 A 
BRANCH   8  10
ATOM     10  C   UNL     1       9.444  -0.198   0.699  0.00  0.00    +0.000 A 
ATOM     11  C   UNL     1       9.747   0.387  -0.538  0.00  0.00    +0.000 A 
ATOM     12  C   UNL     1      11.036   0.287  -1.037  0.00  0.00    +0.000 A 
ATOM     13  N   UNL     1      12.041  -0.345  -0.401  0.00  0.00    +0.000 NA
ATOM     14  C   UNL     1      11.734  -0.909   0.782  0.00  0.00    +0.000 A 
ATOM     15  F   UNL     1      12.712  -1.550   1.438  0.00  0.00    +0.000 F 
ATOM     16  C   UNL     1      10.479  -0.872   1.357  0.00  0.00    +0.000 A 
ENDBRANCH   8  10
ENDBRANCH   1   4
BRANCH   1  17
ATOM     17  N   UNL     1       3.428  -0.237  -0.150  0.00  0.00    +0.000 N 
ATOM     18  H   UNL     1       2.523  -0.500   0.217  0.00  0.00    +0.000 HD
BRANCH  17  22
ATOM     19  C   UNL     1       3.174   2.481  -3.401  0.00  0.00    +0.000 A 
ATOM     20  C   UNL     1       4.206   1.544  -3.374  0.00  0.00    +0.000 A 
ATOM     21  C   UNL     1       4.303   0.638  -2.300  0.00  0.00    +0.000 A 
ATOM     22  C   UNL     1       3.357   0.617  -1.274  0.00  0.00    +0.000 A 
ATOM     23  C   UNL     1       2.337   1.582  -1.307  0.00  0.00    +0.000 A 
ATOM     24  C   UNL     1       2.246   2.511  -2.362  0.00  0.00    +0.000 A 
BRANCH  19  26
ATOM     25  N   UNL     1       3.015   4.186  -5.340  0.00  0.00    +0.000 NA
ATOM     26  C   UNL     1       3.085   3.428  -4.479  0.00  0.00    +0.000 C 
ENDBRANCH  19  26
ENDBRANCH  17  22
ENDBRANCH   1  17
TORSDOF 5
