REMARK  Name = 
REMARK  6 active torsions:
REMARK  status: ('A' for Active; 'I' for Inactive)
REMARK    1  A    between atoms: C_1  and  C_2
REMARK    2  A    between atoms: C_2  and  C_3
REMARK    3  A    between atoms: C_7  and  C_8
REMARK    4  A    between atoms: C_14  and  S_15
REMARK    5  A    between atoms: S_15  and  C_16
REMARK    6  A    between atoms: C_19  and  C_20
REMARK                            x       y       z     vdW  Elec       q    Type
REMARK                         _______ _______ _______ _____ _____    ______ ____
ROOT
ATOM      1  C   UNL     1       0.842   0.035  -0.445  0.00  0.00    +0.000 C 
ATOM      2  C   UNL     1       2.319  -0.033  -0.111  0.00  0.00    +0.000 C 
ATOM      3  C   UNL     1       3.301   0.677  -1.023  0.00  0.00    +0.000 C 
ATOM      4  C   UNL     1       3.251  -0.827  -1.025  0.00  0.00    +0.000 C 
ENDROOT
BRANCH   2   5
ATOM      5  C   UNL     1       2.563   0.029   1.394  0.00  0.00    +0.000 A 
ATOM      6  C   UNL     1       2.812   1.256   2.034  0.00  0.00    +0.000 A 
ATOM      7  C   UNL     1       2.792   1.375   3.424  0.00  0.00    +0.000 A 
ATOM      8  C   UNL     1       2.510   0.262   4.211  0.00  0.00    +0.000 A 
ATOM      9  C   UNL     1       2.284  -0.985   3.613  0.00  0.00    +0.000 A 
ATOM     10  C   UNL     1       2.349  -1.094   2.211  0.00  0.00    +0.000 A 
BRANCH   9  11
ATOM     11  C   UNL     1       1.904  -2.186   4.442  0.00  0.00    +0.000 C 
ATOM     12  F   UNL     1       1.695  -1.898   5.757  0.00  0.00    +0.000 F 
ATOM     13  F   UNL     1       0.753  -2.775   4.008  0.00  0.00    +0.000 F 
ATOM     14  F   UNL     1       2.851  -3.164   4.419  0.00  0.00    +0.000 F 
ENDBRANCH   9  11
ENDBRANCH   2   5
BRANCH   4  15
ATOM     15  S   UNL     1       2.713  -1.607  -2.500  0.00  0.00    +0.000 S 
BRANCH  15  16
ATOM     16  C   UNL     1       2.777  -3.320  -2.008  0.00  0.00    +0.000 A 
ATOM     17  C   UNL     1       2.879  -4.297  -2.992  0.00  0.00    +0.000 A 
ATOM     18  C   UNL     1       2.971  -5.635  -2.603  0.00  0.00    +0.000 A 
ATOM     19  C   UNL     1       2.956  -5.965  -1.245  0.00  0.00    +0.000 A 
ATOM     20  C   UNL     1       2.826  -4.921  -0.342  0.00  0.00    +0.000 A 
ATOM     21  N   UNL     1       2.736  -3.613  -0.689  0.00  0.00    +0.000 NA
BRANCH  19  22
ATOM     22  C   UNL     1       3.091  -7.385  -0.843  0.00  0.00    +0.000 C 
ATOM     23  N   UNL     1       3.098  -7.701   0.486  0.00  0.00    +0.000 N 
ATOM     24  O   UNL     1       3.207  -8.266  -1.683  0.00  0.00    +0.000 OA
ATOM     25  H   UNL     1       3.026  -7.058   1.257  0.00  0.00    +0.000 HD
ATOM     26  H   UNL     1       3.207  -8.685   0.710  0.00  0.00    +0.000 HD
ENDBRANCH  19  22
ENDBRANCH  15  16
ENDBRANCH   4  15
TORSDOF 5
