REMARK  Name = 
REMARK  9 active torsions:
REMARK  status: ('A' for Active; 'I' for Inactive)
REMARK    1  A    between atoms: C_1  and  C_2
REMARK    2  A    between atoms: C_2  and  N_3
REMARK    3  A    between atoms: C_2  and  C_19
REMARK    4  A    between atoms: N_3  and  C_4
REMARK    5  A    between atoms: C_4  and  C_5
REMARK    6  A    between atoms: C_8  and  C_9
REMARK    7  A    between atoms: C_9  and  N_10
REMARK    8  A    between atoms: N_10  and  C_11
REMARK    9  A    between atoms: C_11  and  C_12
REMARK                            x       y       z     vdW  Elec       q    Type
REMARK                         _______ _______ _______ _____ _____    ______ ____
ROOT
ATOM      1  C   UNL     1       2.542  -0.565  -2.271  0.00  0.00    +0.000 C 
ENDROOT
BRANCH   1   2
ATOM      2  C   UNL     1       2.997  -0.044  -3.612  0.00  0.00    +0.000 A 
ATOM      3  C   UNL     1       2.888   1.308  -3.945  0.00  0.00    +0.000 A 
ATOM      4  C   UNL     1       3.294   1.751  -5.202  0.00  0.00    +0.000 A 
ATOM      5  C   UNL     1       3.804   0.825  -6.109  0.00  0.00    +0.000 A 
ATOM      6  N   UNL     1       3.922  -0.494  -5.812  0.00  0.00    +0.000 NA
ATOM      7  C   UNL     1       3.524  -0.892  -4.581  0.00  0.00    +0.000 A 
BRANCH   5   8
ATOM      8  C   UNL     1       4.209   1.262  -7.504  0.00  0.00    +0.000 C 
BRANCH   8   9
ATOM      9  N   UNL     1       3.540   0.511  -8.580  0.00  0.00    +0.000 NA
ATOM     10  H   UNL     1       3.699  -0.480  -8.372  0.00  0.00    +0.000 HD
BRANCH   9  11
ATOM     11  C   UNL     1       2.097   0.732  -8.579  0.00  0.00    +0.000 C 
BRANCH  11  12
ATOM     12  C   UNL     1       1.493  -0.029  -9.697  0.00  0.00    +0.000 A 
ATOM     13  C   UNL     1       0.547  -1.031  -9.738  0.00  0.00    +0.000 A 
ATOM     14  C   UNL     1       0.402  -1.333 -11.104  0.00  0.00    +0.000 A 
ATOM     15  N   UNL     1       1.187  -0.579 -11.879  0.00  0.00    +0.000 NA
ATOM     16  N   UNL     1       1.854   0.188 -10.999  0.00  0.00    +0.000 N 
ATOM     17  H   UNL     1       2.561   0.830 -11.343  0.00  0.00    +0.000 HD
ENDBRANCH  11  12
ENDBRANCH   9  11
ENDBRANCH   8   9
ENDBRANCH   5   8
ENDBRANCH   1   2
BRANCH   1  18
ATOM     18  N   UNL     1       3.672  -1.027  -1.468  0.00  0.00    +0.000 NA
ATOM     19  H   UNL     1       4.169  -1.748  -1.990  0.00  0.00    +0.000 HD
BRANCH  18  21
ATOM     20  C   UNL     1       2.646  -0.588   0.775  0.00  0.00    +0.000 C 
ATOM     21  C   UNL     1       3.278  -1.610  -0.174  0.00  0.00    +0.000 C 
BRANCH  21  22
ATOM     22  C   UNL     1       4.533  -2.204   0.448  0.00  0.00    +0.000 A 
ATOM     23  C   UNL     1       5.800  -1.645   0.362  0.00  0.00    +0.000 A 
ATOM     24  S   UNL     1       7.008  -2.576   1.130  0.00  0.00    +0.000 S 
ATOM     25  C   UNL     1       5.870  -3.736   1.640  0.00  0.00    +0.000 A 
ATOM     26  N   UNL     1       6.249  -4.821   2.365  0.00  0.00    +0.000 NA
ATOM     27  C   UNL     1       5.274  -5.601   2.701  0.00  0.00    +0.000 A 
ATOM     28  N   UNL     1       3.955  -5.392   2.380  0.00  0.00    +0.000 N 
ATOM     29  C   UNL     1       3.523  -4.308   1.648  0.00  0.00    +0.000 A 
ATOM     30  O   UNL     1       2.337  -4.136   1.390  0.00  0.00    +0.000 OA
ATOM     31  C   UNL     1       4.589  -3.413   1.234  0.00  0.00    +0.000 A 
ATOM     32  H   UNL     1       3.242  -6.033   2.689  0.00  0.00    +0.000 HD
ENDBRANCH  21  22
ENDBRANCH  18  21
ENDBRANCH   1  18
TORSDOF 8
