REMARK  Name = 
REMARK  4 active torsions:
REMARK  status: ('A' for Active; 'I' for Inactive)
REMARK    1  A    between atoms: C_2  and  O_3
REMARK    2  A    between atoms: C_2  and  C_4
REMARK    3  A    between atoms: N_8  and  C_9
REMARK    4  A    between atoms: C_9  and  C_10
REMARK                            x       y       z     vdW  Elec       q    Type
REMARK                         _______ _______ _______ _____ _____    ______ ____
ROOT
ATOM      1  C   UNL     1       2.970  -0.814  -1.202  0.00  0.00    +0.000 A 
ATOM      2  C   UNL     1       4.265  -1.143  -0.816  0.00  0.00    +0.000 A 
ATOM      3  C   UNL     1       5.001  -2.041  -1.593  0.00  0.00    +0.000 A 
ATOM      4  C   UNL     1       4.447  -2.568  -2.760  0.00  0.00    +0.000 A 
ATOM      5  N   UNL     1       5.259  -3.334  -3.584  0.00  0.00    +0.000 N 
ATOM      6  N   UNL     1       3.193  -2.249  -3.141  0.00  0.00    +0.000 NA
ATOM      7  C   UNL     1       2.486  -1.383  -2.368  0.00  0.00    +0.000 A 
ATOM      8  H   UNL     1       5.740  -4.102  -3.132  0.00  0.00    +0.000 HD
ENDROOT
BRANCH   1  10
ATOM      9  O   UNL     1       2.735   1.121   0.136  0.00  0.00    +0.000 OA
ATOM     10  C   UNL     1       2.205   0.181  -0.427  0.00  0.00    +0.000 C 
BRANCH  10  11
ATOM     11  O   UNL     1       0.878  -0.068  -0.366  0.00  0.00    +0.000 OA
ATOM     12  H   UNL     1       0.586  -0.942  -0.676  0.00  0.00    +0.000 HD
ENDBRANCH  10  11
ENDBRANCH   1  10
BRANCH   5  13
ATOM     13  C   UNL     1       4.893  -3.521  -4.976  0.00  0.00    +0.000 C 
BRANCH  13  14
ATOM     14  C   UNL     1       4.496  -4.932  -5.315  0.00  0.00    +0.000 A 
ATOM     15  C   UNL     1       5.238  -5.699  -6.222  0.00  0.00    +0.000 A 
ATOM     16  C   UNL     1       4.780  -6.957  -6.610  0.00  0.00    +0.000 A 
ATOM     17  C   UNL     1       3.592  -7.415  -6.069  0.00  0.00    +0.000 A 
ATOM     18  N   UNL     1       2.855  -6.714  -5.180  0.00  0.00    +0.000 NA
ATOM     19  C   UNL     1       3.320  -5.491  -4.829  0.00  0.00    +0.000 A 
ENDBRANCH  13  14
ENDBRANCH   5  13
TORSDOF 4
