REMARK  Name = 
REMARK  9 active torsions:
REMARK  status: ('A' for Active; 'I' for Inactive)
REMARK    1  A    between atoms: C_1  and  O_2
REMARK    2  A    between atoms: O_2  and  C_3
REMARK    3  A    between atoms: C_5  and  C_6
REMARK    4  A    between atoms: C_11  and  O_12
REMARK    5  A    between atoms: O_12  and  C_13
REMARK    6  A    between atoms: C_13  and  C_14
REMARK    7  A    between atoms: C_19  and  C_20
REMARK    8  A    between atoms: C_24  and  C_25
REMARK    9  A    between atoms: C_25  and  O_26
REMARK                            x       y       z     vdW  Elec       q    Type
REMARK                         _______ _______ _______ _____ _____    ______ ____
ROOT
ATOM      1  C   UNL     1       4.169   2.142   2.910  0.00  0.00    +0.000 A 
ATOM      2  C   UNL     1       4.129   3.500   2.583  0.00  0.00    +0.000 A 
ATOM      3  C   UNL     1       4.329   4.455   3.574  0.00  0.00    +0.000 A 
ATOM      4  C   UNL     1       4.549   4.057   4.893  0.00  0.00    +0.000 A 
ATOM      5  F   UNL     1       4.722   5.030   5.803  0.00  0.00    +0.000 F 
ATOM      6  C   UNL     1       4.573   2.704   5.276  0.00  0.00    +0.000 A 
ATOM      7  C   UNL     1       4.406   1.759   4.246  0.00  0.00    +0.000 A 
ENDROOT
BRANCH   6   8
ATOM      8  C   UNL     1       4.702   2.281   6.694  0.00  0.00    +0.000 A 
ATOM      9  C   UNL     1       5.369   1.101   7.064  0.00  0.00    +0.000 A 
ATOM     10  C   UNL     1       5.496   0.727   8.406  0.00  0.00    +0.000 A 
ATOM     11  C   UNL     1       4.976   1.538   9.414  0.00  0.00    +0.000 A 
ATOM     12  C   UNL     1       4.288   2.710   9.090  0.00  0.00    +0.000 A 
ATOM     13  C   UNL     1       4.147   3.054   7.734  0.00  0.00    +0.000 A 
BRANCH  12  14
ATOM     14  C   UNL     1       3.797   3.670  10.142  0.00  0.00    +0.000 C 
BRANCH  14  15
ATOM     15  O   UNL     1       3.446   3.014  11.351  0.00  0.00    +0.000 OA
ATOM     16  H   UNL     1       2.779   2.341  11.113  0.00  0.00    +0.000 HD
ENDBRANCH  14  15
ENDBRANCH  12  14
ENDBRANCH   6   8
BRANCH   1  17
ATOM     17  C   UNL     1       3.760   1.093   1.899  0.00  0.00    +0.000 C 
BRANCH  17  18
ATOM     18  O   UNL     1       4.465   1.206   0.665  0.00  0.00    +0.000 OA
BRANCH  18  24
ATOM     19  C   UNL     1       3.153  -0.711  -0.282  0.00  0.00    +0.000 A 
ATOM     20  C   UNL     1       2.994  -1.557  -1.389  0.00  0.00    +0.000 A 
ATOM     21  C   UNL     1       3.797  -1.432  -2.530  0.00  0.00    +0.000 A 
ATOM     22  C   UNL     1       4.772  -0.436  -2.566  0.00  0.00    +0.000 A 
ATOM     23  C   UNL     1       4.944   0.413  -1.462  0.00  0.00    +0.000 A 
ATOM     24  C   UNL     1       4.146   0.289  -0.314  0.00  0.00    +0.000 A 
BRANCH  21  25
ATOM     25  C   UNL     1       3.529  -2.387  -3.644  0.00  0.00    +0.000 C 
ATOM     26  N   UNL     1       4.275  -2.285  -4.787  0.00  0.00    +0.000 N 
ATOM     27  O   UNL     1       2.668  -3.250  -3.557  0.00  0.00    +0.000 OA
ATOM     28  H   UNL     1       4.999  -1.606  -4.955  0.00  0.00    +0.000 HD
ATOM     29  H   UNL     1       4.063  -2.948  -5.522  0.00  0.00    +0.000 HD
ENDBRANCH  21  25
BRANCH  19  31
ATOM     30  C   UNL     1       1.667  -2.025   1.056  0.00  0.00    +0.000 C 
ATOM     31  O   UNL     1       2.321  -0.788   0.804  0.00  0.00    +0.000 OA
ENDBRANCH  19  31
ENDBRANCH  18  24
ENDBRANCH  17  18
ENDBRANCH   1  17
TORSDOF 8
