REMARK  Name = 
REMARK  9 active torsions:
REMARK  status: ('A' for Active; 'I' for Inactive)
REMARK    1  A    between atoms: C_1  and  C_2
REMARK    2  A    between atoms: C_2  and  C_3
REMARK    3  A    between atoms: C_5  and  N_6
REMARK    4  A    between atoms: N_6  and  C_7
REMARK    5  A    between atoms: C_11  and  C_12
REMARK    6  A    between atoms: C_12  and  C_13
REMARK    7  A    between atoms: C_13  and  N_14
REMARK    8  A    between atoms: N_14  and  C_15
REMARK    9  A    between atoms: C_18  and  C_19
REMARK                            x       y       z     vdW  Elec       q    Type
REMARK                         _______ _______ _______ _____ _____    ______ ____
ROOT
ATOM      1  C   UNL     1      -7.692   0.830   1.058  0.00  0.00    +0.000 C 
ENDROOT
BRANCH   1   6
ATOM      2  C   UNL     1      -3.835   0.737   1.005  0.00  0.00    +0.000 A 
ATOM      3  C   UNL     1      -3.569   0.696   2.374  0.00  0.00    +0.000 A 
ATOM      4  C   UNL     1      -4.612   0.629   3.299  0.00  0.00    +0.000 A 
ATOM      5  C   UNL     1      -5.942   0.650   2.864  0.00  0.00    +0.000 A 
ATOM      6  C   UNL     1      -6.240   0.729   1.498  0.00  0.00    +0.000 A 
ATOM      7  C   UNL     1      -5.169   0.744   0.587  0.00  0.00    +0.000 A 
BRANCH   2   8
ATOM      8  N   UNL     1      -2.832   0.885   0.033  0.00  0.00    +0.000 N 
ATOM      9  H   UNL     1      -2.921   0.208  -0.720  0.00  0.00    +0.000 HD
BRANCH   8  14
ATOM     10  C   UNL     1       1.049   2.964   0.379  0.00  0.00    +0.000 C 
ATOM     11  C   UNL     1      -0.317   3.076  -0.296  0.00  0.00    +0.000 C 
ATOM     12  C   UNL     1      -0.429   4.340  -1.140  0.00  0.00    +0.000 C 
ATOM     13  C   UNL     1      -1.507   2.861   0.679  0.00  0.00    +0.000 C 
ATOM     14  C   UNL     1      -1.511   1.364   0.273  0.00  0.00    +0.000 C 
ATOM     15  C   UNL     1      -0.785   1.780  -1.026  0.00  0.00    +0.000 C 
ENDBRANCH   8  14
ENDBRANCH   2   8
ENDBRANCH   1   6
BRANCH   1  16
ATOM     16  C   UNL     1      -7.879   0.939  -0.460  0.00  0.00    +0.000 C 
BRANCH  16  17
ATOM     17  N   UNL     1      -9.284   1.027  -0.863  0.00  0.00    +0.000 N 
ATOM     18  H   UNL     1      -9.803   1.718  -0.327  0.00  0.00    +0.000 HD
BRANCH  17  19
ATOM     19  C   UNL     1      -9.504   1.173  -2.250  0.00  0.00    +0.000 A 
ATOM     20  C   UNL     1      -8.684   0.571  -3.216  0.00  0.00    +0.000 A 
ATOM     21  C   UNL     1      -8.976   0.657  -4.580  0.00  0.00    +0.000 A 
ATOM     22  C   UNL     1     -10.122   1.322  -5.013  0.00  0.00    +0.000 A 
ATOM     23  C   UNL     1     -10.962   1.919  -4.068  0.00  0.00    +0.000 A 
ATOM     24  C   UNL     1     -10.658   1.830  -2.699  0.00  0.00    +0.000 A 
BRANCH  22  25
ATOM     25  C   UNL     1     -10.389   1.360  -6.474  0.00  0.00    +0.000 C 
ATOM     26  N   UNL     1     -11.686   1.494  -6.880  0.00  0.00    +0.000 N 
ATOM     27  O   UNL     1      -9.488   1.232  -7.294  0.00  0.00    +0.000 OA
ATOM     28  H   UNL     1     -12.474   1.408  -6.255  0.00  0.00    +0.000 HD
ATOM     29  H   UNL     1     -11.855   1.402  -7.873  0.00  0.00    +0.000 HD
ENDBRANCH  22  25
ENDBRANCH  17  19
ENDBRANCH  16  17
ENDBRANCH   1  16
TORSDOF 7
