REMARK  Name = 
REMARK  3 active torsions:
REMARK  status: ('A' for Active; 'I' for Inactive)
REMARK    1  A    between atoms: C_2  and  C_4
REMARK    2  A    between atoms: N_11  and  C_12
REMARK    3  A    between atoms: C_12  and  C_13
REMARK                            x       y       z     vdW  Elec       q    Type
REMARK                         _______ _______ _______ _____ _____    ______ ____
ROOT
ATOM      1  C   UNL     1       3.043   0.333   1.276  0.00  0.00    +0.000 A 
ATOM      2  C   UNL     1       2.646  -0.126   2.528  0.00  0.00    +0.000 A 
ATOM      3  N   UNL     1       3.307   0.070   3.706  0.00  0.00    +0.000 NA
ATOM      4  C   UNL     1       4.417   0.830   3.565  0.00  0.00    +0.000 A 
ATOM      5  C   UNL     1       4.891   1.391   2.377  0.00  0.00    +0.000 A 
ATOM      6  C   UNL     1       6.054   2.136   2.697  0.00  0.00    +0.000 A 
ATOM      7  C   UNL     1       6.284   1.989   4.046  0.00  0.00    +0.000 A 
ATOM      8  N   UNL     1       5.299   1.177   4.566  0.00  0.00    +0.000 N 
ATOM      9  C   UNL     1       4.189   1.127   1.187  0.00  0.00    +0.000 A 
ENDROOT
BRANCH   1  11
ATOM     10  N   UNL     1       0.996  -0.224   0.145  0.00  0.00    +0.000 NA
ATOM     11  C   UNL     1       2.271  -0.017   0.053  0.00  0.00    +0.000 C 
ATOM     12  N   UNL     1       2.895  -0.134  -1.152  0.00  0.00    +0.000 N 
ATOM     13  H   UNL     1       0.609  -0.406  -0.784  0.00  0.00    +0.000 HD
ATOM     14  H   UNL     1       2.394  -0.648  -1.869  0.00  0.00    +0.000 HD
ATOM     15  H   UNL     1       3.876  -0.398  -1.122  0.00  0.00    +0.000 HD
ENDBRANCH   1  11
BRANCH   8  16
ATOM     16  C   UNL     1       5.293   0.685   5.942  0.00  0.00    +0.000 C 
BRANCH  16  17
ATOM     17  C   UNL     1       4.581   1.630   6.871  0.00  0.00    +0.000 A 
ATOM     18  C   UNL     1       3.216   1.468   7.140  0.00  0.00    +0.000 A 
ATOM     19  C   UNL     1       2.529   2.447   7.854  0.00  0.00    +0.000 A 
ATOM     20  F   UNL     1       1.212   2.312   8.052  0.00  0.00    +0.000 F 
ATOM     21  C   UNL     1       3.180   3.578   8.336  0.00  0.00    +0.000 A 
ATOM     22  C   UNL     1       4.553   3.710   8.144  0.00  0.00    +0.000 A 
ATOM     23  C   UNL     1       5.242   2.737   7.420  0.00  0.00    +0.000 A 
ATOM     24  F   UNL     1       6.562   2.886   7.238  0.00  0.00    +0.000 F 
ENDBRANCH  16  17
ENDBRANCH   8  16
TORSDOF 3
