REMARK  Name = 
REMARK  7 active torsions:
REMARK  status: ('A' for Active; 'I' for Inactive)
REMARK    1  A    between atoms: C_2  and  C_4
REMARK    2  A    between atoms: C_7  and  C_8
REMARK    3  A    between atoms: C_8  and  N_9
REMARK    4  A    between atoms: C_10  and  C_12
REMARK    5  A    between atoms: C_23  and  C_24
REMARK    6  A    between atoms: C_24  and  N_25
REMARK    7  A    between atoms: C_26  and  C_28
REMARK                            x       y       z     vdW  Elec       q    Type
REMARK                         _______ _______ _______ _____ _____    ______ ____
ROOT
ATOM      1  C   UNL     1       3.199  -0.981  -0.791  0.00  0.00    +0.000 A 
ATOM      2  C   UNL     1       2.971  -1.388  -2.117  0.00  0.00    +0.000 A 
ATOM      3  C   UNL     1       3.702  -2.439  -2.679  0.00  0.00    +0.000 A 
ATOM      4  C   UNL     1       4.690  -3.090  -1.935  0.00  0.00    +0.000 A 
ATOM      5  C   UNL     1       4.937  -2.666  -0.622  0.00  0.00    +0.000 A 
ATOM      6  C   UNL     1       4.181  -1.639  -0.021  0.00  0.00    +0.000 A 
ENDROOT
BRANCH   1   8
ATOM      7  N   UNL     1       1.157   0.357  -0.721  0.00  0.00    +0.000 N 
ATOM      8  C   UNL     1       2.431   0.180  -0.251  0.00  0.00    +0.000 C 
ATOM      9  O   UNL     1       2.904   0.951   0.576  0.00  0.00    +0.000 OA
ATOM     10  H   UNL     1       0.616   1.117  -0.328  0.00  0.00    +0.000 HD
ATOM     11  H   UNL     1       0.674  -0.319  -1.296  0.00  0.00    +0.000 HD
ENDBRANCH   1   8
BRANCH   4  12
ATOM     12  C   UNL     1       5.518  -4.189  -2.548  0.00  0.00    +0.000 C 
BRANCH  12  13
ATOM     13  N   UNL     1       6.662  -3.647  -3.232  0.00  0.00    +0.000 N 
ATOM     14  C   UNL     1       7.499  -4.449  -3.964  0.00  0.00    +0.000 C 
ATOM     15  O   UNL     1       7.280  -5.648  -4.117  0.00  0.00    +0.000 OA
ATOM     16  H   UNL     1       6.997  -2.742  -2.916  0.00  0.00    +0.000 HD
BRANCH  14  17
ATOM     17  C   UNL     1       8.633  -3.786  -4.620  0.00  0.00    +0.000 A 
ATOM     18  C   UNL     1       9.227  -4.375  -5.729  0.00  0.00    +0.000 A 
ATOM     19  S   UNL     1      10.479  -3.441  -6.412  0.00  0.00    +0.000 S 
ATOM     20  C   UNL     1      10.310  -2.241  -5.217  0.00  0.00    +0.000 A 
ATOM     21  N   UNL     1      11.112  -1.143  -5.210  0.00  0.00    +0.000 NA
ATOM     22  C   UNL     1      10.898  -0.333  -4.226  0.00  0.00    +0.000 A 
ATOM     23  N   UNL     1       9.952  -0.520  -3.252  0.00  0.00    +0.000 N 
ATOM     24  C   UNL     1       9.095  -1.595  -3.241  0.00  0.00    +0.000 A 
ATOM     25  O   UNL     1       8.225  -1.709  -2.382  0.00  0.00    +0.000 OA
ATOM     26  C   UNL     1       9.302  -2.543  -4.318  0.00  0.00    +0.000 A 
ATOM     27  H   UNL     1       9.829   0.155  -2.512  0.00  0.00    +0.000 HD
ENDBRANCH  14  17
ENDBRANCH  12  13
ENDBRANCH   4  12
BRANCH   6  28
ATOM     28  C   UNL     1       4.469  -1.308   1.423  0.00  0.00    +0.000 C 
BRANCH  28  29
ATOM     29  N   UNL     1       5.447  -0.260   1.549  0.00  0.00    +0.000 N 
ATOM     30  C   UNL     1       6.769  -0.496   1.826  0.00  0.00    +0.000 C 
ATOM     31  O   UNL     1       7.236  -1.626   1.948  0.00  0.00    +0.000 OA
ATOM     32  H   UNL     1       5.124   0.677   1.350  0.00  0.00    +0.000 HD
BRANCH  30  33
ATOM     33  C   UNL     1       7.584   0.691   1.976  0.00  0.00    +0.000 A 
ATOM     34  C   UNL     1       7.256   2.037   2.034  0.00  0.00    +0.000 A 
ATOM     35  C   UNL     1       8.449   2.778   2.217  0.00  0.00    +0.000 A 
ATOM     36  C   UNL     1       9.484   1.874   2.271  0.00  0.00    +0.000 A 
ATOM     37  N   UNL     1       8.953   0.619   2.140  0.00  0.00    +0.000 N 
ATOM     38  H   UNL     1       9.467  -0.254   2.168  0.00  0.00    +0.000 HD
ENDBRANCH  30  33
ENDBRANCH  28  29
ENDBRANCH   6  28
TORSDOF 7
