REMARK  Name = 
REMARK  7 active torsions:
REMARK  status: ('A' for Active; 'I' for Inactive)
REMARK    1  A    between atoms: C_1  and  C_2
REMARK    2  A    between atoms: N_4  and  C_5
REMARK    3  A    between atoms: C_9  and  C_10
REMARK    4  A    between atoms: N_12  and  C_13
REMARK    5  A    between atoms: C_13  and  C_14
REMARK    6  A    between atoms: C_17  and  C_18
REMARK    7  A    between atoms: C_18  and  C_19
REMARK                            x       y       z     vdW  Elec       q    Type
REMARK                         _______ _______ _______ _____ _____    ______ ____
ROOT
ATOM      1  C   UNL     1       6.637   3.010  -0.045  0.00  0.00    +0.000 C 
ATOM      2  O   UNL     1       6.902   4.213  -0.054  0.00  0.00    +0.000 OA
ATOM      3  N   UNL     1       7.630   2.065  -0.033  0.00  0.00    +0.000 N 
ATOM      4  H   UNL     1       7.399   1.074  -0.025  0.00  0.00    +0.000 HD
ENDROOT
BRANCH   1  13
ATOM      5  C   UNL     1       0.972   0.072  -0.066  0.00  0.00    +0.000 C 
ATOM      6  C   UNL     1       2.479   0.027  -0.052  0.00  0.00    +0.000 A 
ATOM      7  N   UNL     1       3.056  -1.141  -0.041  0.00  0.00    +0.000 NA
ATOM      8  N   UNL     1       4.441  -1.202  -0.031  0.00  0.00    +0.000 N 
ATOM      9  C   UNL     1       5.039  -2.521  -0.024  0.00  0.00    +0.000 C 
ATOM     10  C   UNL     1       5.303  -0.097  -0.034  0.00  0.00    +0.000 A 
ATOM     11  O   UNL     1       6.525  -0.223  -0.029  0.00  0.00    +0.000 OA
ATOM     12  C   UNL     1       4.657   1.209  -0.045  0.00  0.00    +0.000 A 
ATOM     13  C   UNL     1       5.232   2.544  -0.049  0.00  0.00    +0.000 A 
ATOM     14  C   UNL     1       4.202   3.481  -0.058  0.00  0.00    +0.000 A 
ATOM     15  S   UNL     1       2.639   2.798  -0.062  0.00  0.00    +0.000 S 
ATOM     16  C   UNL     1       3.275   1.232  -0.052  0.00  0.00    +0.000 A 
ENDBRANCH   1  13
BRANCH   3  17
ATOM     17  C   UNL     1       9.031   2.409  -0.025  0.00  0.00    +0.000 C 
BRANCH  17  18
ATOM     18  C   UNL     1       9.929   1.193  -0.023  0.00  0.00    +0.000 A 
ATOM     19  C   UNL     1      10.351   0.611  -1.226  0.00  0.00    +0.000 A 
ATOM     20  C   UNL     1      11.207  -0.498  -1.227  0.00  0.00    +0.000 A 
ATOM     21  C   UNL     1      11.669  -1.052  -0.024  0.00  0.00    +0.000 A 
ATOM     22  C   UNL     1      11.227  -0.488   1.180  0.00  0.00    +0.000 A 
ATOM     23  C   UNL     1      10.358   0.613   1.180  0.00  0.00    +0.000 A 
BRANCH  21  24
ATOM     24  C   UNL     1      12.611  -2.240  -0.027  0.00  0.00    +0.000 C 
BRANCH  24  25
ATOM     25  C   UNL     1      14.088  -1.921  -0.056  0.00  0.00    +0.000 A 
ATOM     26  C   UNL     1      14.655  -1.189  -1.098  0.00  0.00    +0.000 A 
ATOM     27  N   UNL     1      15.990  -0.979  -1.222  0.00  0.00    +0.000 NA
ATOM     28  C   UNL     1      16.752  -1.532  -0.256  0.00  0.00    +0.000 A 
ATOM     29  C   UNL     1      16.207  -2.257   0.789  0.00  0.00    +0.000 A 
ATOM     30  N   UNL     1      14.874  -2.471   0.910  0.00  0.00    +0.000 NA
ENDBRANCH  24  25
ENDBRANCH  21  24
ENDBRANCH  17  18
ENDBRANCH   3  17
TORSDOF 5
