REMARK  Name = 
REMARK  10 active torsions:
REMARK  status: ('A' for Active; 'I' for Inactive)
REMARK    1  A    between atoms: C_2  and  C_3
REMARK    2  A    between atoms: C_3  and  C_4
REMARK    3  A    between atoms: C_4  and  N_5
REMARK    4  A    between atoms: C_4  and  C_21
REMARK    5  A    between atoms: N_5  and  C_6
REMARK    6  A    between atoms: C_6  and  C_7
REMARK    7  A    between atoms: C_10  and  C_11
REMARK    8  A    between atoms: C_11  and  N_12
REMARK    9  A    between atoms: N_12  and  C_13
REMARK   10  A    between atoms: C_13  and  C_14
REMARK                            x       y       z     vdW  Elec       q    Type
REMARK                         _______ _______ _______ _____ _____    ______ ____
ROOT
ATOM      1  N   UNL     1       4.499  -0.447   0.766  0.00  0.00    +0.000 NA
ATOM      2  H   UNL     1       3.479  -0.455   0.691  0.00  0.00    +0.000 HD
ENDROOT
BRANCH   1   3
ATOM      3  C   UNL     1       5.054  -1.336  -0.270  0.00  0.00    +0.000 C 
BRANCH   3   4
ATOM      4  C   UNL     1       4.515  -2.740  -0.010  0.00  0.00    +0.000 A 
ATOM      5  C   UNL     1       4.647  -3.443   1.179  0.00  0.00    +0.000 A 
ATOM      6  S   UNL     1       4.019  -5.031   1.096  0.00  0.00    +0.000 S 
ATOM      7  C   UNL     1       3.539  -4.827  -0.525  0.00  0.00    +0.000 A 
ATOM      8  N   UNL     1       2.921  -5.825  -1.213  0.00  0.00    +0.000 NA
ATOM      9  C   UNL     1       2.590  -5.509  -2.422  0.00  0.00    +0.000 A 
ATOM     10  N   UNL     1       2.827  -4.293  -3.009  0.00  0.00    +0.000 N 
ATOM     11  C   UNL     1       3.544  -3.295  -2.392  0.00  0.00    +0.000 A 
ATOM     12  O   UNL     1       3.870  -2.275  -2.990  0.00  0.00    +0.000 OA
ATOM     13  C   UNL     1       3.869  -3.573  -1.001  0.00  0.00    +0.000 A 
ATOM     14  H   UNL     1       2.574  -4.125  -3.971  0.00  0.00    +0.000 HD
ENDBRANCH   3   4
BRANCH   3  15
ATOM     15  C   UNL     1       6.597  -1.348  -0.344  0.00  0.00    +0.000 C 
BRANCH  15  17
ATOM     16  N   UNL     1       7.344  -2.857  -2.362  0.00  0.00    +0.000 NA
ATOM     17  C   UNL     1       7.033  -2.187  -1.461  0.00  0.00    +0.000 C 
ENDBRANCH  15  17
ENDBRANCH   3  15
ENDBRANCH   1   3
BRANCH   1  18
ATOM     18  C   UNL     1       4.939   0.944   0.603  0.00  0.00    +0.000 C 
BRANCH  18  19
ATOM     19  C   UNL     1       4.273   1.850   1.604  0.00  0.00    +0.000 A 
ATOM     20  C   UNL     1       4.424   1.605   2.974  0.00  0.00    +0.000 A 
ATOM     21  C   UNL     1       3.851   2.463   3.911  0.00  0.00    +0.000 A 
ATOM     22  C   UNL     1       3.123   3.588   3.494  0.00  0.00    +0.000 A 
ATOM     23  C   UNL     1       2.971   3.828   2.122  0.00  0.00    +0.000 A 
ATOM     24  C   UNL     1       3.538   2.965   1.185  0.00  0.00    +0.000 A 
BRANCH  22  25
ATOM     25  C   UNL     1       2.493   4.521   4.502  0.00  0.00    +0.000 C 
BRANCH  25  26
ATOM     26  N   UNL     1       3.506   5.093   5.383  0.00  0.00    +0.000 NA
ATOM     27  H   UNL     1       4.184   5.602   4.816  0.00  0.00    +0.000 HD
BRANCH  26  28
ATOM     28  C   UNL     1       2.926   6.022   6.344  0.00  0.00    +0.000 C 
BRANCH  28  29
ATOM     29  C   UNL     1       4.030   6.566   7.182  0.00  0.00    +0.000 A 
ATOM     30  C   UNL     1       4.474   7.859   7.382  0.00  0.00    +0.000 A 
ATOM     31  C   UNL     1       5.583   7.801   8.260  0.00  0.00    +0.000 A 
ATOM     32  C   UNL     1       5.792   6.478   8.573  0.00  0.00    +0.000 A 
ATOM     33  N   UNL     1       4.842   5.736   7.922  0.00  0.00    +0.000 N 
ATOM     34  H   UNL     1       4.763   4.727   7.937  0.00  0.00    +0.000 HD
ENDBRANCH  28  29
ENDBRANCH  26  28
ENDBRANCH  25  26
ENDBRANCH  22  25
ENDBRANCH  18  19
ENDBRANCH   1  18
TORSDOF 10
