REMARK  Name = 
REMARK  7 active torsions:
REMARK  status: ('A' for Active; 'I' for Inactive)
REMARK    1  A    between atoms: C_2  and  C_19
REMARK    2  A    between atoms: N_3  and  C_4
REMARK    3  A    between atoms: C_4  and  C_5
REMARK    4  A    between atoms: C_8  and  C_9
REMARK    5  A    between atoms: C_9  and  N_10
REMARK    6  A    between atoms: N_10  and  C_11
REMARK    7  A    between atoms: C_11  and  C_12
REMARK                            x       y       z     vdW  Elec       q    Type
REMARK                         _______ _______ _______ _____ _____    ______ ____
ROOT
ATOM      1  C   UNL     1       6.560  13.271  -1.159  0.00  0.00    +0.000 C 
ENDROOT
BRANCH   1   2
ATOM      2  C   UNL     1       6.145  12.171  -0.229  0.00  0.00    +0.000 A 
ATOM      3  C   UNL     1       6.816  11.959   0.977  0.00  0.00    +0.000 A 
ATOM      4  C   UNL     1       6.383  10.964   1.847  0.00  0.00    +0.000 A 
ATOM      5  C   UNL     1       5.290  10.184   1.485  0.00  0.00    +0.000 A 
ATOM      6  N   UNL     1       4.638  10.345   0.302  0.00  0.00    +0.000 NA
ATOM      7  C   UNL     1       5.082  11.325  -0.522  0.00  0.00    +0.000 A 
BRANCH   5   8
ATOM      8  C   UNL     1       4.790   9.098   2.419  0.00  0.00    +0.000 C 
BRANCH   8   9
ATOM      9  N   UNL     1       4.714   7.766   1.805  0.00  0.00    +0.000 NA
ATOM     10  H   UNL     1       4.143   7.891   0.966  0.00  0.00    +0.000 HD
BRANCH   9  11
ATOM     11  C   UNL     1       6.021   7.230   1.399  0.00  0.00    +0.000 C 
BRANCH  11  12
ATOM     12  C   UNL     1       5.874   5.809   0.779  0.00  0.00    +0.000 C 
ATOM     13  C   UNL     1       4.995   5.744  -0.467  0.00  0.00    +0.000 C 
ATOM     14  C   UNL     1       5.934   6.143  -1.587  0.00  0.00    +0.000 C 
ATOM     15  C   UNL     1       7.296   5.654  -1.121  0.00  0.00    +0.000 C 
ATOM     16  N   UNL     1       7.142   5.251   0.278  0.00  0.00    +0.000 NA
ATOM     17  H   UNL     1       7.937   5.542   0.843  0.00  0.00    +0.000 HD
ENDBRANCH  11  12
ENDBRANCH   9  11
ENDBRANCH   8   9
ENDBRANCH   5   8
ENDBRANCH   1   2
BRANCH   1  20
ATOM     18  O   UNL     1       9.330  13.572  -0.776  0.00  0.00    +0.000 OA
ATOM     19  C   UNL     1       8.927  13.018  -1.794  0.00  0.00    +0.000 C 
ATOM     20  N   UNL     1       7.593  12.857  -2.070  0.00  0.00    +0.000 N 
ATOM     21  H   UNL     1       7.313  12.243  -2.827  0.00  0.00    +0.000 HD
BRANCH  19  22
ATOM     22  C   UNL     1       9.855  12.528  -2.816  0.00  0.00    +0.000 A 
ATOM     23  C   UNL     1      11.109  13.108  -2.959  0.00  0.00    +0.000 A 
ATOM     24  S   UNL     1      12.056  12.384  -4.179  0.00  0.00    +0.000 S 
ATOM     25  C   UNL     1      10.833  11.256  -4.534  0.00  0.00    +0.000 A 
ATOM     26  N   UNL     1      11.021  10.293  -5.479  0.00  0.00    +0.000 NA
ATOM     27  C   UNL     1      10.018   9.483  -5.616  0.00  0.00    +0.000 A 
ATOM     28  N   UNL     1       8.848   9.560  -4.910  0.00  0.00    +0.000 N 
ATOM     29  C   UNL     1       8.589  10.557  -4.005  0.00  0.00    +0.000 A 
ATOM     30  O   UNL     1       7.480  10.682  -3.498  0.00  0.00    +0.000 OA
ATOM     31  C   UNL     1       9.705  11.454  -3.765  0.00  0.00    +0.000 A 
ATOM     32  H   UNL     1       8.088   8.923  -5.100  0.00  0.00    +0.000 HD
ENDBRANCH  19  22
ENDBRANCH   1  20
TORSDOF 7
