REMARK  Name = 
REMARK  10 active torsions:
REMARK  status: ('A' for Active; 'I' for Inactive)
REMARK    1  A    between atoms: C_1  and  O_2
REMARK    2  A    between atoms: O_2  and  C_3
REMARK    3  A    between atoms: C_5  and  C_6
REMARK    4  A    between atoms: C_6  and  O_7
REMARK    5  A    between atoms: O_7  and  C_8
REMARK    6  A    between atoms: C_11  and  C_12
REMARK    7  A    between atoms: C_18  and  O_19
REMARK    8  A    between atoms: O_19  and  C_20
REMARK    9  A    between atoms: C_21  and  O_22
REMARK   10  A    between atoms: O_22  and  C_23
REMARK                            x       y       z     vdW  Elec       q    Type
REMARK                         _______ _______ _______ _____ _____    ______ ____
ROOT
ATOM      1  C   UNL     1       3.042   0.300  -4.785  0.00  0.00    +0.000 C 
ENDROOT
BRANCH   1   4
ATOM      2  C   UNL     1       3.036  -0.444  -1.045  0.00  0.00    +0.000 A 
ATOM      3  C   UNL     1       2.697   0.069  -2.304  0.00  0.00    +0.000 A 
ATOM      4  C   UNL     1       3.446  -0.245  -3.443  0.00  0.00    +0.000 A 
ATOM      5  C   UNL     1       4.563  -1.072  -3.318  0.00  0.00    +0.000 A 
ATOM      6  C   UNL     1       4.943  -1.566  -2.067  0.00  0.00    +0.000 A 
ATOM      7  C   UNL     1       4.157  -1.291  -0.926  0.00  0.00    +0.000 A 
BRANCH   2   9
ATOM      8  C   UNL     1       1.031   0.402  -0.069  0.00  0.00    +0.000 C 
ATOM      9  O   UNL     1       2.361  -0.080   0.092  0.00  0.00    +0.000 OA
ENDBRANCH   2   9
BRANCH   6  10
ATOM     10  O   UNL     1       6.052  -2.364  -1.904  0.00  0.00    +0.000 OA
ATOM     11  C   UNL     1       7.138  -2.078  -2.782  0.00  0.00    +0.000 C 
ENDBRANCH   6  10
BRANCH   7  12
ATOM     12  O   UNL     1       4.617  -1.841   0.248  0.00  0.00    +0.000 OA
ATOM     13  C   UNL     1       3.635  -2.227   1.202  0.00  0.00    +0.000 C 
ENDBRANCH   7  12
ENDBRANCH   1   4
BRANCH   1  14
ATOM     14  O   UNL     1       3.098   1.728  -4.746  0.00  0.00    +0.000 OA
BRANCH  14  15
ATOM     15  C   UNL     1       2.727   2.363  -5.895  0.00  0.00    +0.000 A 
ATOM     16  C   UNL     1       2.365   1.741  -7.089  0.00  0.00    +0.000 A 
ATOM     17  C   UNL     1       2.003   2.511  -8.188  0.00  0.00    +0.000 A 
ATOM     18  C   UNL     1       2.016   3.892  -8.061  0.00  0.00    +0.000 A 
ATOM     19  N   UNL     1       2.365   4.544  -6.915  0.00  0.00    +0.000 NA
ATOM     20  C   UNL     1       2.713   3.758  -5.866  0.00  0.00    +0.000 A 
BRANCH  18  21
ATOM     21  C   UNL     1       1.625   4.731  -9.233  0.00  0.00    +0.000 C 
ATOM     22  N   UNL     1       1.668   6.082  -9.030  0.00  0.00    +0.000 N 
ATOM     23  O   UNL     1       1.284   4.247 -10.307  0.00  0.00    +0.000 OA
ATOM     24  H   UNL     1       1.939   6.443  -8.124  0.00  0.00    +0.000 HD
ATOM     25  H   UNL     1       1.405   6.709  -9.777  0.00  0.00    +0.000 HD
ENDBRANCH  18  21
ENDBRANCH  14  15
ENDBRANCH   1  14
TORSDOF 7
