REMARK  Name = 
REMARK  10 active torsions:
REMARK  status: ('A' for Active; 'I' for Inactive)
REMARK    1  A    between atoms: C_1  and  C_2
REMARK    2  A    between atoms: C_2  and  C_3
REMARK    3  A    between atoms: C_2  and  N_4
REMARK    4  A    between atoms: C_5  and  C_7
REMARK    5  A    between atoms: C_10  and  O_11
REMARK    6  A    between atoms: O_11  and  C_12
REMARK    7  A    between atoms: C_12  and  C_13
REMARK    8  A    between atoms: C_13  and  C_14
REMARK    9  A    between atoms: C_13  and  C_15
REMARK   10  A    between atoms: C_13  and  C_16
REMARK                            x       y       z     vdW  Elec       q    Type
REMARK                         _______ _______ _______ _____ _____    ______ ____
ROOT
ATOM      1  C   UNL     1       4.872   1.492   2.655  0.00  0.00    +0.000 A 
ATOM      2  C   UNL     1       4.234   1.238   3.877  0.00  0.00    +0.000 A 
ATOM      3  C   UNL     1       4.783   1.730   5.064  0.00  0.00    +0.000 A 
ATOM      4  C   UNL     1       5.964   2.469   5.041  0.00  0.00    +0.000 A 
ATOM      5  C   UNL     1       6.592   2.725   3.817  0.00  0.00    +0.000 A 
ATOM      6  C   UNL     1       6.040   2.253   2.626  0.00  0.00    +0.000 A 
ENDROOT
BRANCH   1   8
ATOM      7  N   UNL     1       4.542   1.494   0.228  0.00  0.00    +0.000 N 
ATOM      8  C   UNL     1       4.369   0.827   1.427  0.00  0.00    +0.000 C 
ATOM      9  O   UNL     1       3.855  -0.271   1.528  0.00  0.00    +0.000 OA
ATOM     10  H   UNL     1       4.974   2.406   0.213  0.00  0.00    +0.000 HD
BRANCH   7  12
ATOM     11  C   UNL     1       3.677   1.992  -2.021  0.00  0.00    +0.000 C 
ATOM     12  C   UNL     1       4.083   0.906  -1.028  0.00  0.00    +0.000 C 
ATOM     13  C   UNL     1       5.152   0.013  -1.659  0.00  0.00    +0.000 C 
ENDBRANCH   7  12
ENDBRANCH   1   8
BRANCH   4  14
ATOM     14  O   UNL     1       6.606   2.973   6.139  0.00  0.00    +0.000 OA
BRANCH  14  15
ATOM     15  C   UNL     1       5.995   2.712   7.412  0.00  0.00    +0.000 C 
BRANCH  15  16
ATOM     16  C   UNL     1       6.831   3.344   8.558  0.00  0.00    +0.000 C 
ATOM     17  C   UNL     1       8.256   2.743   8.559  0.00  0.00    +0.000 C 
ATOM     18  C   UNL     1       6.977   4.858   8.274  0.00  0.00    +0.000 C 
BRANCH  16  19
ATOM     19  C   UNL     1       6.176   3.046   9.923  0.00  0.00    +0.000 A 
ATOM     20  C   UNL     1       5.994   1.714  10.347  0.00  0.00    +0.000 A 
ATOM     21  C   UNL     1       5.502   1.418  11.620  0.00  0.00    +0.000 A 
ATOM     22  C   UNL     1       5.186   2.445  12.502  0.00  0.00    +0.000 A 
ATOM     23  C   UNL     1       5.329   3.767  12.098  0.00  0.00    +0.000 A 
ATOM     24  C   UNL     1       5.801   4.064  10.816  0.00  0.00    +0.000 A 
ENDBRANCH  16  19
ENDBRANCH  15  16
ENDBRANCH  14  15
ENDBRANCH   4  14
TORSDOF 6
