REMARK  Name = 
REMARK  8 active torsions:
REMARK  status: ('A' for Active; 'I' for Inactive)
REMARK    1  A    between atoms: C_1  and  C_2
REMARK    2  A    between atoms: C_2  and  N_3
REMARK    3  A    between atoms: C_2  and  C_16
REMARK    4  A    between atoms: C_4  and  C_6
REMARK    5  A    between atoms: C_19  and  C_20
REMARK    6  A    between atoms: C_20  and  N_21
REMARK    7  A    between atoms: C_22  and  C_24
REMARK    8  A    between atoms: C_25  and  C_26
REMARK                            x       y       z     vdW  Elec       q    Type
REMARK                         _______ _______ _______ _____ _____    ______ ____
ROOT
ATOM      1  C   UNL     1       2.807   1.056   0.838  0.00  0.00    +0.000 A 
ATOM      2  C   UNL     1       2.696   2.371   0.380  0.00  0.00    +0.000 A 
ATOM      3  C   UNL     1       2.953   3.455   1.233  0.00  0.00    +0.000 A 
ATOM      4  C   UNL     1       3.350   3.250   2.564  0.00  0.00    +0.000 A 
ATOM      5  C   UNL     1       3.504   1.928   3.007  0.00  0.00    +0.000 A 
ATOM      6  C   UNL     1       3.249   0.847   2.156  0.00  0.00    +0.000 A 
ENDROOT
BRANCH   1   8
ATOM      7  C   UNL     1       3.637  -0.976  -0.333  0.00  0.00    +0.000 C 
ATOM      8  C   UNL     1       2.411  -0.111  -0.059  0.00  0.00    +0.000 C 
BRANCH   8   9
ATOM      9  N   UNL     1       1.330  -0.860   0.567  0.00  0.00    +0.000 N 
ATOM     10  C   UNL     1       0.737  -1.952  -0.012  0.00  0.00    +0.000 C 
ATOM     11  O   UNL     1       1.077  -2.393  -1.109  0.00  0.00    +0.000 OA
ATOM     12  H   UNL     1       0.784  -0.348   1.253  0.00  0.00    +0.000 HD
BRANCH  10  13
ATOM     13  C   UNL     1      -0.291  -2.625   0.780  0.00  0.00    +0.000 A 
ATOM     14  C   UNL     1      -0.505  -3.989   0.646  0.00  0.00    +0.000 A 
ATOM     15  S   UNL     1      -1.756  -4.583   1.644  0.00  0.00    +0.000 S 
ATOM     16  C   UNL     1      -2.076  -3.027   2.259  0.00  0.00    +0.000 A 
ATOM     17  N   UNL     1      -3.084  -2.809   3.145  0.00  0.00    +0.000 NA
ATOM     18  C   UNL     1      -3.230  -1.576   3.494  0.00  0.00    +0.000 A 
ATOM     19  N   UNL     1      -2.446  -0.537   3.052  0.00  0.00    +0.000 N 
ATOM     20  C   UNL     1      -1.388  -0.711   2.195  0.00  0.00    +0.000 A 
ATOM     21  O   UNL     1      -0.663   0.221   1.885  0.00  0.00    +0.000 OA
ATOM     22  C   UNL     1      -1.213  -2.079   1.740  0.00  0.00    +0.000 A 
ATOM     23  H   UNL     1      -2.597   0.403   3.380  0.00  0.00    +0.000 HD
ENDBRANCH  10  13
ENDBRANCH   8   9
ENDBRANCH   1   8
BRANCH   4  24
ATOM     24  C   UNL     1       3.614   4.401   3.510  0.00  0.00    +0.000 C 
BRANCH  24  25
ATOM     25  N   UNL     1       2.450   4.806   4.273  0.00  0.00    +0.000 N 
ATOM     26  C   UNL     1       2.514   5.829   5.190  0.00  0.00    +0.000 C 
ATOM     27  O   UNL     1       3.523   6.475   5.453  0.00  0.00    +0.000 OA
ATOM     28  H   UNL     1       1.586   4.294   4.146  0.00  0.00    +0.000 HD
BRANCH  26  29
ATOM     29  C   UNL     1       1.207   6.070   5.859  0.00  0.00    +0.000 C 
ATOM     30  C   UNL     1       1.081   7.027   6.795  0.00  0.00    +0.000 C 
BRANCH  30  31
ATOM     31  C   UNL     1      -0.171   7.317   7.522  0.00  0.00    +0.000 A 
ATOM     32  C   UNL     1      -1.131   6.336   7.785  0.00  0.00    +0.000 A 
ATOM     33  C   UNL     1      -2.256   6.683   8.517  0.00  0.00    +0.000 A 
ATOM     34  N   UNL     1      -2.485   7.920   9.000  0.00  0.00    +0.000 NA
ATOM     35  C   UNL     1      -1.541   8.851   8.747  0.00  0.00    +0.000 A 
ATOM     36  C   UNL     1      -0.383   8.600   8.027  0.00  0.00    +0.000 A 
ENDBRANCH  30  31
ENDBRANCH  26  29
ENDBRANCH  24  25
ENDBRANCH   4  24
TORSDOF 7
