REMARK  Name = 
REMARK  8 active torsions:
REMARK  status: ('A' for Active; 'I' for Inactive)
REMARK    1  A    between atoms: C_1  and  C_2
REMARK    2  A    between atoms: C_2  and  C_3
REMARK    3  A    between atoms: C_5  and  N_6
REMARK    4  A    between atoms: N_6  and  C_7
REMARK    5  A    between atoms: C_11  and  C_12
REMARK    6  A    between atoms: C_12  and  C_13
REMARK    7  A    between atoms: C_13  and  N_14
REMARK    8  A    between atoms: C_18  and  C_19
REMARK                            x       y       z     vdW  Elec       q    Type
REMARK                         _______ _______ _______ _____ _____    ______ ____
ROOT
ATOM      1  C   UNL     1      -7.717   0.851   1.050  0.00  0.00    +0.000 C 
ENDROOT
BRANCH   1   6
ATOM      2  C   UNL     1      -3.860   0.705   0.986  0.00  0.00    +0.000 A 
ATOM      3  C   UNL     1      -3.586   0.687   2.350  0.00  0.00    +0.000 A 
ATOM      4  C   UNL     1      -4.626   0.629   3.280  0.00  0.00    +0.000 A 
ATOM      5  C   UNL     1      -5.958   0.653   2.854  0.00  0.00    +0.000 A 
ATOM      6  C   UNL     1      -6.265   0.731   1.490  0.00  0.00    +0.000 A 
ATOM      7  C   UNL     1      -5.198   0.733   0.574  0.00  0.00    +0.000 A 
BRANCH   2   8
ATOM      8  N   UNL     1      -2.863   0.847   0.007  0.00  0.00    +0.000 N 
ATOM      9  H   UNL     1      -3.049   0.326  -0.847  0.00  0.00    +0.000 HD
BRANCH   8  14
ATOM     10  C   UNL     1       1.093   2.773   0.234  0.00  0.00    +0.000 C 
ATOM     11  C   UNL     1      -0.279   2.934  -0.419  0.00  0.00    +0.000 C 
ATOM     12  C   UNL     1      -0.347   4.187  -1.285  0.00  0.00    +0.000 C 
ATOM     13  C   UNL     1      -1.464   2.791   0.576  0.00  0.00    +0.000 C 
ATOM     14  C   UNL     1      -1.527   1.286   0.209  0.00  0.00    +0.000 C 
ATOM     15  C   UNL     1      -0.817   1.649  -1.116  0.00  0.00    +0.000 C 
ENDBRANCH   8  14
ENDBRANCH   2   8
ENDBRANCH   1   6
BRANCH   1  16
ATOM     16  C   UNL     1      -7.898   0.981  -0.467  0.00  0.00    +0.000 C 
BRANCH  16  17
ATOM     17  N   UNL     1      -9.299   1.115  -0.878  0.00  0.00    +0.000 N 
ATOM     18  C   UNL     1      -9.403   1.234  -2.284  0.00  0.00    +0.000 A 
ATOM     19  C   UNL     1     -10.661   1.361  -2.862  0.00  0.00    +0.000 A 
ATOM     20  C   UNL     1     -10.768   1.482  -4.252  0.00  0.00    +0.000 A 
ATOM     21  C   UNL     1      -9.618   1.481  -5.043  0.00  0.00    +0.000 A 
ATOM     22  C   UNL     1      -8.410   1.338  -4.387  0.00  0.00    +0.000 A 
ATOM     23  N   UNL     1      -8.287   1.210  -3.045  0.00  0.00    +0.000 NA
ATOM     24  H   UNL     1      -9.744   1.929  -0.461  0.00  0.00    +0.000 HD
BRANCH  21  25
ATOM     25  C   UNL     1      -9.731   1.635  -6.512  0.00  0.00    +0.000 C 
ATOM     26  N   UNL     1      -8.597   1.659  -7.273  0.00  0.00    +0.000 N 
ATOM     27  O   UNL     1     -10.828   1.751  -7.052  0.00  0.00    +0.000 OA
ATOM     28  H   UNL     1      -7.649   1.583  -6.939  0.00  0.00    +0.000 HD
ATOM     29  H   UNL     1      -8.729   1.780  -8.270  0.00  0.00    +0.000 HD
ENDBRANCH  21  25
ENDBRANCH  16  17
ENDBRANCH   1  16
TORSDOF 6
