REMARK  Name = 
REMARK  6 active torsions:
REMARK  status: ('A' for Active; 'I' for Inactive)
REMARK    1  A    between atoms: C_1  and  S_2
REMARK    2  A    between atoms: S_2  and  C_3
REMARK    3  A    between atoms: C_6  and  O_7
REMARK    4  A    between atoms: O_7  and  C_8
REMARK    5  A    between atoms: C_8  and  C_9
REMARK    6  A    between atoms: C_12  and  C_13
REMARK                            x       y       z     vdW  Elec       q    Type
REMARK                         _______ _______ _______ _____ _____    ______ ____
ROOT
ATOM      1  C   UNL     1       4.673   3.720   7.111  0.00  0.00    +0.000 A 
ATOM      2  C   UNL     1       5.863   3.219   7.656  0.00  0.00    +0.000 A 
ATOM      3  C   UNL     1       6.201   3.472   8.989  0.00  0.00    +0.000 A 
ATOM      4  C   UNL     1       5.358   4.249   9.795  0.00  0.00    +0.000 A 
ATOM      5  C   UNL     1       4.164   4.748   9.263  0.00  0.00    +0.000 A 
ATOM      6  C   UNL     1       3.826   4.485   7.929  0.00  0.00    +0.000 A 
ENDROOT
BRANCH   4   7
ATOM      7  C   UNL     1       5.761   4.482  11.209  0.00  0.00    +0.000 C 
ATOM      8  N   UNL     1       5.297   5.612  11.824  0.00  0.00    +0.000 N 
ATOM      9  O   UNL     1       6.509   3.714  11.798  0.00  0.00    +0.000 OA
ATOM     10  H   UNL     1       4.817   6.358  11.342  0.00  0.00    +0.000 HD
ATOM     11  H   UNL     1       5.652   5.796  12.753  0.00  0.00    +0.000 HD
ENDBRANCH   4   7
BRANCH   1  12
ATOM     12  C   UNL     1       4.333   3.466   5.657  0.00  0.00    +0.000 C 
BRANCH  12  13
ATOM     13  O   UNL     1       4.260   2.060   5.418  0.00  0.00    +0.000 OA
BRANCH  13  17
ATOM     14  C   UNL     1       3.384   0.565   1.616  0.00  0.00    +0.000 A 
ATOM     15  C   UNL     1       3.452   1.949   1.789  0.00  0.00    +0.000 A 
ATOM     16  C   UNL     1       3.748   2.496   3.045  0.00  0.00    +0.000 A 
ATOM     17  C   UNL     1       3.972   1.660   4.141  0.00  0.00    +0.000 A 
ATOM     18  C   UNL     1       3.900   0.277   3.962  0.00  0.00    +0.000 A 
ATOM     19  C   UNL     1       3.607  -0.271   2.708  0.00  0.00    +0.000 A 
BRANCH  14  21
ATOM     20  C   UNL     1       4.677  -0.281  -0.628  0.00  0.00    +0.000 C 
ATOM     21  S   UNL     1       2.994  -0.123   0.020  0.00  0.00    +0.000 S 
ENDBRANCH  14  21
ENDBRANCH  13  17
ENDBRANCH  12  13
ENDBRANCH   1  12
TORSDOF 5
