REMARK  Name = 
REMARK  5 active torsions:
REMARK  status: ('A' for Active; 'I' for Inactive)
REMARK    1  A    between atoms: C_2  and  C_4
REMARK    2  A    between atoms: C_7  and  O_8
REMARK    3  A    between atoms: O_8  and  C_9
REMARK    4  A    between atoms: C_9  and  C_10
REMARK    5  A    between atoms: C_14  and  N_15
REMARK                            x       y       z     vdW  Elec       q    Type
REMARK                         _______ _______ _______ _____ _____    ______ ____
ROOT
ATOM      1  C   UNL     1       5.241  -2.751   5.206  0.00  0.00    +0.000 C 
ENDROOT
BRANCH   1   2
ATOM      2  C   UNL     1       6.249  -2.991   6.301  0.00  0.00    +0.000 A 
ATOM      3  C   UNL     1       6.535  -4.299   6.676  0.00  0.00    +0.000 A 
ATOM      4  N   UNL     1       7.422  -4.632   7.633  0.00  0.00    +0.000 NA
ATOM      5  C   UNL     1       8.051  -3.600   8.248  0.00  0.00    +0.000 A 
ATOM      6  C   UNL     1       7.860  -2.240   7.976  0.00  0.00    +0.000 A 
ATOM      7  C   UNL     1       6.924  -1.965   6.974  0.00  0.00    +0.000 A 
BRANCH   6   8
ATOM      8  N   UNL     1       8.541  -1.249   8.649  0.00  0.00    +0.000 N 
ATOM      9  C   UNL     1       7.996   0.095   8.886  0.00  0.00    +0.000 C 
ATOM     10  C   UNL     1       8.890   1.158   8.233  0.00  0.00    +0.000 C 
ATOM     11  O   UNL     1      10.260   1.029   8.652  0.00  0.00    +0.000 OA
ATOM     12  C   UNL     1      10.768  -0.269   8.299  0.00  0.00    +0.000 C 
ATOM     13  C   UNL     1       9.968  -1.395   8.975  0.00  0.00    +0.000 C 
ENDBRANCH   6   8
ENDBRANCH   1   2
BRANCH   1  14
ATOM     14  O   UNL     1       5.099  -1.360   4.897  0.00  0.00    +0.000 OA
BRANCH  14  18
ATOM     15  C   UNL     1       2.253  -0.644   2.006  0.00  0.00    +0.000 A 
ATOM     16  C   UNL     1       2.947   0.428   2.571  0.00  0.00    +0.000 A 
ATOM     17  C   UNL     1       3.913   0.174   3.548  0.00  0.00    +0.000 A 
ATOM     18  C   UNL     1       4.149  -1.143   3.920  0.00  0.00    +0.000 A 
ATOM     19  N   UNL     1       3.495  -2.196   3.387  0.00  0.00    +0.000 NA
ATOM     20  C   UNL     1       2.555  -1.923   2.451  0.00  0.00    +0.000 A 
BRANCH  15  22
ATOM     21  N   UNL     1       1.242   0.608   0.182  0.00  0.00    +0.000 N 
ATOM     22  C   UNL     1       1.193  -0.492   0.988  0.00  0.00    +0.000 C 
ATOM     23  O   UNL     1       0.323  -1.342   0.845  0.00  0.00    +0.000 OA
ATOM     24  H   UNL     1       0.572   0.632  -0.577  0.00  0.00    +0.000 HD
ATOM     25  H   UNL     1       2.069   1.182   0.090  0.00  0.00    +0.000 HD
ENDBRANCH  15  22
ENDBRANCH  14  18
ENDBRANCH   1  14
TORSDOF 5
