REMARK  Name = 
REMARK  6 active torsions:
REMARK  status: ('A' for Active; 'I' for Inactive)
REMARK    1  A    between atoms: C_1  and  C_2
REMARK    2  A    between atoms: C_2  and  N_3
REMARK    3  A    between atoms: C_2  and  C_16
REMARK    4  A    between atoms: C_4  and  C_6
REMARK    5  A    between atoms: C_19  and  C_20
REMARK    6  A    between atoms: C_20  and  N_21
REMARK                            x       y       z     vdW  Elec       q    Type
REMARK                         _______ _______ _______ _____ _____    ______ ____
ROOT
ATOM      1  C   UNL     1       3.557  -0.749  -0.900  0.00  0.00    +0.000 C 
ATOM      2  C   UNL     1       2.481  -0.087  -0.035  0.00  0.00    +0.000 C 
ENDROOT
BRANCH   2   3
ATOM      3  C   UNL     1       2.959  -0.003   1.411  0.00  0.00    +0.000 A 
ATOM      4  C   UNL     1       3.123   1.238   2.041  0.00  0.00    +0.000 A 
ATOM      5  C   UNL     1       3.553   1.309   3.371  0.00  0.00    +0.000 A 
ATOM      6  C   UNL     1       3.824   0.142   4.102  0.00  0.00    +0.000 A 
ATOM      7  C   UNL     1       3.644  -1.098   3.481  0.00  0.00    +0.000 A 
ATOM      8  C   UNL     1       3.222  -1.169   2.153  0.00  0.00    +0.000 A 
BRANCH   6   9
ATOM      9  C   UNL     1       4.304   0.217   5.532  0.00  0.00    +0.000 C 
BRANCH   9  10
ATOM     10  N   UNL     1       3.183   0.185   6.452  0.00  0.00    +0.000 N 
ATOM     11  C   UNL     1       3.592   0.267   7.778  0.00  0.00    +0.000 A 
ATOM     12  N   UNL     1       4.710   0.944   8.083  0.00  0.00    +0.000 NA
ATOM     13  C   UNL     1       5.106   0.948   9.364  0.00  0.00    +0.000 A 
ATOM     14  C   UNL     1       4.425   0.306  10.365  0.00  0.00    +0.000 A 
ATOM     15  C   UNL     1       3.284  -0.345   9.963  0.00  0.00    +0.000 A 
ATOM     16  N   UNL     1       2.853  -0.387   8.685  0.00  0.00    +0.000 NA
ATOM     17  H   UNL     1       2.591  -0.634   6.381  0.00  0.00    +0.000 HD
ENDBRANCH   9  10
ENDBRANCH   6   9
ENDBRANCH   2   3
BRANCH   2  18
ATOM     18  N   UNL     1       1.220  -0.807  -0.070  0.00  0.00    +0.000 N 
ATOM     19  C   UNL     1       0.486  -1.028  -1.207  0.00  0.00    +0.000 C 
ATOM     20  O   UNL     1       0.845  -0.667  -2.322  0.00  0.00    +0.000 OA
ATOM     21  H   UNL     1       0.713  -0.801   0.810  0.00  0.00    +0.000 HD
BRANCH  19  22
ATOM     22  C   UNL     1      -0.743  -1.809  -1.015  0.00  0.00    +0.000 A 
ATOM     23  C   UNL     1      -1.230  -2.613  -2.035  0.00  0.00    +0.000 A 
ATOM     24  S   UNL     1      -2.630  -3.488  -1.601  0.00  0.00    +0.000 S 
ATOM     25  C   UNL     1      -2.660  -2.782  -0.052  0.00  0.00    +0.000 A 
ATOM     26  N   UNL     1      -3.638  -3.084   0.843  0.00  0.00    +0.000 NA
ATOM     27  C   UNL     1      -3.549  -2.453   1.966  0.00  0.00    +0.000 A 
ATOM     28  N   UNL     1      -2.563  -1.550   2.278  0.00  0.00    +0.000 N 
ATOM     29  C   UNL     1      -1.542  -1.233   1.420  0.00  0.00    +0.000 A 
ATOM     30  O   UNL     1      -0.654  -0.456   1.744  0.00  0.00    +0.000 OA
ATOM     31  C   UNL     1      -1.605  -1.908   0.137  0.00  0.00    +0.000 A 
ATOM     32  H   UNL     1      -2.539  -1.096   3.182  0.00  0.00    +0.000 HD
ENDBRANCH  19  22
ENDBRANCH   2  18
TORSDOF 5
