REMARK  Name = 
REMARK  9 active torsions:
REMARK  status: ('A' for Active; 'I' for Inactive)
REMARK    1  A    between atoms: C_1  and  O_2
REMARK    2  A    between atoms: O_2  and  C_3
REMARK    3  A    between atoms: C_10  and  C_11
REMARK    4  A    between atoms: N_13  and  C_14
REMARK    5  A    between atoms: C_14  and  C_15
REMARK    6  A    between atoms: C_18  and  C_19
REMARK    7  A    between atoms: C_19  and  O_20
REMARK    8  A    between atoms: O_20  and  C_21
REMARK    9  A    between atoms: C_21  and  C_22
REMARK                            x       y       z     vdW  Elec       q    Type
REMARK                         _______ _______ _______ _____ _____    ______ ____
ROOT
ATOM      1  C   UNL     1       3.235  -3.042   1.181  0.00  0.00    +0.000 C 
ENDROOT
BRANCH   1   2
ATOM      2  C   UNL     1       2.250  -2.589   2.236  0.00  0.00    +0.000 A 
ATOM      3  C   UNL     1       1.374  -3.504   2.835  0.00  0.00    +0.000 A 
ATOM      4  C   UNL     1       0.440  -3.085   3.792  0.00  0.00    +0.000 A 
ATOM      5  C   UNL     1       0.344  -1.736   4.158  0.00  0.00    +0.000 A 
ATOM      6  C   UNL     1       1.221  -0.819   3.560  0.00  0.00    +0.000 A 
ATOM      7  C   UNL     1       2.163  -1.241   2.613  0.00  0.00    +0.000 A 
BRANCH   5   8
ATOM      8  C   UNL     1      -0.682  -1.273   5.164  0.00  0.00    +0.000 C 
BRANCH   8   9
ATOM      9  O   UNL     1      -0.441  -1.932   6.401  0.00  0.00    +0.000 OA
BRANCH   9  10
ATOM     10  C   UNL     1      -1.355  -1.519   7.423  0.00  0.00    +0.000 C 
BRANCH  10  11
ATOM     11  C   UNL     1      -1.054  -2.240   8.719  0.00  0.00    +0.000 A 
ATOM     12  C   UNL     1       0.251  -2.622   9.032  0.00  0.00    +0.000 A 
ATOM     13  C   UNL     1       0.497  -3.285  10.229  0.00  0.00    +0.000 A 
ATOM     14  C   UNL     1      -0.559  -3.537  11.094  0.00  0.00    +0.000 A 
ATOM     15  C   UNL     1      -1.822  -3.106  10.725  0.00  0.00    +0.000 A 
ATOM     16  N   UNL     1      -2.093  -2.462   9.566  0.00  0.00    +0.000 NA
ENDBRANCH  10  11
ENDBRANCH   9  10
ENDBRANCH   8   9
ENDBRANCH   5   8
ENDBRANCH   1   2
BRANCH   1  19
ATOM     17  C   UNL     1       3.332  -3.347  -1.273  0.00  0.00    +0.000 C 
ATOM     18  O   UNL     1       4.493  -3.753  -1.224  0.00  0.00    +0.000 OA
ATOM     19  N   UNL     1       2.655  -2.986  -0.140  0.00  0.00    +0.000 N 
ATOM     20  H   UNL     1       1.696  -2.675  -0.205  0.00  0.00    +0.000 HD
BRANCH  17  28
ATOM     21  C   UNL     1       0.151  -2.348  -2.118  0.00  0.00    +0.000 A 
ATOM     22  N   UNL     1      -0.986  -1.937  -2.712  0.00  0.00    +0.000 NA
ATOM     23  C   UNL     1      -1.037  -1.958  -4.047  0.00  0.00    +0.000 A 
ATOM     24  N   UNL     1      -0.080  -2.364  -4.879  0.00  0.00    +0.000 NA
ATOM     25  C   UNL     1       1.039  -2.753  -4.243  0.00  0.00    +0.000 A 
ATOM     26  S   UNL     1       2.365  -3.308  -5.145  0.00  0.00    +0.000 S 
ATOM     27  C   UNL     1       3.285  -3.553  -3.736  0.00  0.00    +0.000 A 
ATOM     28  C   UNL     1       2.620  -3.215  -2.561  0.00  0.00    +0.000 A 
ATOM     29  C   UNL     1       1.263  -2.764  -2.870  0.00  0.00    +0.000 A 
BRANCH  21  31
ATOM     30  C   UNL     1      -1.071  -2.431  -0.126  0.00  0.00    +0.000 C 
ATOM     31  O   UNL     1       0.208  -2.309  -0.741  0.00  0.00    +0.000 OA
ENDBRANCH  21  31
ENDBRANCH  17  28
ENDBRANCH   1  19
TORSDOF 8
