REMARK  Name = 
REMARK  4 active torsions:
REMARK  status: ('A' for Active; 'I' for Inactive)
REMARK    1  A    between atoms: C_2  and  C_4
REMARK    2  A    between atoms: N_8  and  C_9
REMARK    3  A    between atoms: C_9  and  C_10
REMARK    4  A    between atoms: C_14  and  C_15
REMARK                            x       y       z     vdW  Elec       q    Type
REMARK                         _______ _______ _______ _____ _____    ______ ____
ROOT
ATOM      1  C   UNL     1       7.445   2.779   2.927  0.00  0.00    +0.000 A 
ATOM      2  C   UNL     1       6.964   4.065   3.136  0.00  0.00    +0.000 A 
ATOM      3  C   UNL     1       6.324   4.729   2.091  0.00  0.00    +0.000 A 
ATOM      4  C   UNL     1       6.179   4.103   0.857  0.00  0.00    +0.000 A 
ATOM      5  N   UNL     1       5.535   4.667  -0.207  0.00  0.00    +0.000 N 
ATOM      6  N   UNL     1       6.679   2.871   0.633  0.00  0.00    +0.000 NA
ATOM      7  C   UNL     1       7.304   2.238   1.660  0.00  0.00    +0.000 A 
ATOM      8  H   UNL     1       5.587   4.118  -1.056  0.00  0.00    +0.000 HD
ENDROOT
BRANCH   1  10
ATOM      9  N   UNL     1       7.731   2.272   5.278  0.00  0.00    +0.000 N 
ATOM     10  C   UNL     1       8.088   1.983   3.989  0.00  0.00    +0.000 C 
ATOM     11  O   UNL     1       8.872   1.079   3.735  0.00  0.00    +0.000 OA
ATOM     12  H   UNL     1       8.098   1.653   5.994  0.00  0.00    +0.000 HD
ATOM     13  H   UNL     1       6.920   2.830   5.510  0.00  0.00    +0.000 HD
ENDBRANCH   1  10
BRANCH   5  14
ATOM     14  C   UNL     1       4.920   5.972  -0.251  0.00  0.00    +0.000 C 
BRANCH  14  15
ATOM     15  C   UNL     1       5.879   7.107  -0.541  0.00  0.00    +0.000 A 
ATOM     16  C   UNL     1       5.377   8.414  -0.579  0.00  0.00    +0.000 A 
ATOM     17  C   UNL     1       6.225   9.492  -0.823  0.00  0.00    +0.000 A 
ATOM     18  C   UNL     1       7.592   9.279  -1.012  0.00  0.00    +0.000 A 
ATOM     19  C   UNL     1       8.147   7.990  -0.948  0.00  0.00    +0.000 A 
ATOM     20  C   UNL     1       7.258   6.917  -0.742  0.00  0.00    +0.000 A 
BRANCH  19  21
ATOM     21  C   UNL     1       9.612   7.764  -1.004  0.00  0.00    +0.000 A 
ATOM     22  C   UNL     1      10.508   8.686  -0.429  0.00  0.00    +0.000 A 
ATOM     23  C   UNL     1      11.883   8.442  -0.383  0.00  0.00    +0.000 A 
ATOM     24  C   UNL     1      12.398   7.262  -0.908  0.00  0.00    +0.000 A 
ATOM     25  C   UNL     1      11.541   6.339  -1.498  0.00  0.00    +0.000 A 
ATOM     26  C   UNL     1      10.167   6.593  -1.554  0.00  0.00    +0.000 A 
ENDBRANCH  19  21
ENDBRANCH  14  15
ENDBRANCH   5  14
TORSDOF 4
