REMARK  Name = 
REMARK  7 active torsions:
REMARK  status: ('A' for Active; 'I' for Inactive)
REMARK    1  A    between atoms: N_1  and  C_2
REMARK    2  A    between atoms: C_2  and  C_3
REMARK    3  A    between atoms: C_6  and  O_7
REMARK    4  A    between atoms: O_7  and  C_8
REMARK    5  A    between atoms: C_8  and  C_9
REMARK    6  A    between atoms: C_9  and  C_10
REMARK    7  A    between atoms: C_13  and  C_14
REMARK                            x       y       z     vdW  Elec       q    Type
REMARK                         _______ _______ _______ _____ _____    ______ ____
ROOT
ATOM      1  C   UNL     1       3.764   7.251  -2.761  0.00  0.00    +0.000 C 
ENDROOT
BRANCH   1   2
ATOM      2  C   UNL     1       5.105   7.763  -2.305  0.00  0.00    +0.000 A 
ATOM      3  C   UNL     1       6.282   7.310  -2.909  0.00  0.00    +0.000 A 
ATOM      4  C   UNL     1       7.522   7.806  -2.493  0.00  0.00    +0.000 A 
ATOM      5  C   UNL     1       7.605   8.756  -1.463  0.00  0.00    +0.000 A 
ATOM      6  C   UNL     1       6.432   9.195  -0.847  0.00  0.00    +0.000 A 
ATOM      7  C   UNL     1       5.202   8.692  -1.266  0.00  0.00    +0.000 A 
ATOM      8  F   UNL     1       4.090   9.124  -0.654  0.00  0.00    +0.000 F 
BRANCH   5   9
ATOM      9  C   UNL     1       8.961   9.247  -1.084  0.00  0.00    +0.000 C 
ATOM     10  N   UNL     1       9.070  10.174  -0.087  0.00  0.00    +0.000 N 
ATOM     11  O   UNL     1       9.970   8.838  -1.648  0.00  0.00    +0.000 OA
ATOM     12  H   UNL     1       8.306  10.569   0.436  0.00  0.00    +0.000 HD
ATOM     13  H   UNL     1      10.007  10.479   0.145  0.00  0.00    +0.000 HD
ENDBRANCH   5   9
ENDBRANCH   1   2
BRANCH   1  14
ATOM     14  C   UNL     1       3.254   6.069  -1.942  0.00  0.00    +0.000 C 
BRANCH  14  15
ATOM     15  O   UNL     1       4.088   4.919  -2.134  0.00  0.00    +0.000 OA
BRANCH  15  19
ATOM     16  C   UNL     1       3.037   1.332  -0.238  0.00  0.00    +0.000 A 
ATOM     17  C   UNL     1       2.231   2.464  -0.060  0.00  0.00    +0.000 A 
ATOM     18  C   UNL     1       2.554   3.676  -0.672  0.00  0.00    +0.000 A 
ATOM     19  C   UNL     1       3.693   3.785  -1.470  0.00  0.00    +0.000 A 
ATOM     20  C   UNL     1       4.513   2.667  -1.636  0.00  0.00    +0.000 A 
ATOM     21  C   UNL     1       4.188   1.447  -1.025  0.00  0.00    +0.000 A 
BRANCH  16  22
ATOM     22  C   UNL     1       2.663   0.035   0.432  0.00  0.00    +0.000 C 
BRANCH  22  23
ATOM     23  N   UNL     1       1.333  -0.410   0.026  0.00  0.00    +0.000 NA
ATOM     24  H   UNL     1       1.134  -1.310   0.456  0.00  0.00    +0.000 HD
ATOM     25  H   UNL     1       1.333  -0.561  -0.982  0.00  0.00    +0.000 HD
ENDBRANCH  22  23
ENDBRANCH  16  22
ENDBRANCH  15  19
ENDBRANCH  14  15
ENDBRANCH   1  14
TORSDOF 7
