REMARK  Name = 
REMARK  13 active torsions:
REMARK  status: ('A' for Active; 'I' for Inactive)
REMARK    1  A    between atoms: C_1  and  C_2
REMARK    2  A    between atoms: C_2  and  C_3
REMARK    3  A    between atoms: C_5  and  C_6
REMARK    4  A    between atoms: C_5  and  N_7
REMARK    5  A    between atoms: N_7  and  C_8
REMARK    6  A    between atoms: C_10  and  S_11
REMARK    7  A    between atoms: S_11  and  C_12
REMARK    8  A    between atoms: C_12  and  C_13
REMARK    9  A    between atoms: C_13  and  C_14
REMARK   10  A    between atoms: C_13  and  C_15
REMARK   11  A    between atoms: C_13  and  C_16
REMARK   12  A    between atoms: C_19  and  C_20
REMARK   13  A    between atoms: C_26  and  C_27
REMARK                            x       y       z     vdW  Elec       q    Type
REMARK                         _______ _______ _______ _____ _____    ______ ____
ROOT
ATOM      1  C   UNL     1       6.549  -1.062   0.549  0.00  0.00    +0.000 A 
ATOM      2  C   UNL     1       6.356  -2.443   0.537  0.00  0.00    +0.000 A 
ATOM      3  C   UNL     1       7.431  -3.324   0.593  0.00  0.00    +0.000 A 
ATOM      4  C   UNL     1       8.729  -2.825   0.697  0.00  0.00    +0.000 A 
ATOM      5  C   UNL     1       8.958  -1.442   0.721  0.00  0.00    +0.000 A 
ATOM      6  C   UNL     1       7.858  -0.569   0.656  0.00  0.00    +0.000 A 
ENDROOT
BRANCH   5   7
ATOM      7  C   UNL     1      10.364  -0.901   0.771  0.00  0.00    +0.000 C 
ATOM      8  F   UNL     1      11.317  -1.872   0.831  0.00  0.00    +0.000 F 
ATOM      9  F   UNL     1      10.671  -0.150  -0.322  0.00  0.00    +0.000 F 
ATOM     10  F   UNL     1      10.581  -0.100   1.851  0.00  0.00    +0.000 F 
ENDBRANCH   5   7
BRANCH   1  11
ATOM     11  N   UNL     1       5.501  -0.165   0.294  0.00  0.00    +0.000 N 
ATOM     12  H   UNL     1       5.479   0.648   0.903  0.00  0.00    +0.000 HD
BRANCH  11  17
ATOM     13  C   UNL     1       3.609  -0.040  -3.688  0.00  0.00    +0.000 C 
ATOM     14  C   UNL     1       4.514  -0.041  -2.466  0.00  0.00    +0.000 C 
ATOM     15  C   UNL     1       5.916   0.462  -2.806  0.00  0.00    +0.000 C 
ATOM     16  C   UNL     1       4.415  -1.337  -1.647  0.00  0.00    +0.000 C 
ATOM     17  C   UNL     1       4.281  -0.386  -0.429  0.00  0.00    +0.000 C 
ATOM     18  C   UNL     1       3.136  -0.626   0.541  0.00  0.00    +0.000 C 
ATOM     19  O   UNL     1       3.949   0.709  -1.345  0.00  0.00    +0.000 OA
ENDBRANCH  11  17
ENDBRANCH   1  11
BRANCH   3  20
ATOM     20  S   UNL     1       7.127  -5.069   0.609  0.00  0.00    +0.000 S 
BRANCH  20  21
ATOM     21  C   UNL     1       7.322  -5.490  -1.186  0.00  0.00    +0.000 C 
BRANCH  21  22
ATOM     22  C   UNL     1       7.147  -7.019  -1.472  0.00  0.00    +0.000 C 
ATOM     23  C   UNL     1       8.206  -7.813  -0.669  0.00  0.00    +0.000 C 
ATOM     24  C   UNL     1       5.720  -7.459  -1.062  0.00  0.00    +0.000 C 
BRANCH  22  25
ATOM     25  C   UNL     1       7.336  -7.355  -2.965  0.00  0.00    +0.000 A 
ATOM     26  C   UNL     1       7.211  -8.675  -3.415  0.00  0.00    +0.000 A 
ATOM     27  C   UNL     1       7.400  -8.980  -4.756  0.00  0.00    +0.000 A 
ATOM     28  C   UNL     1       7.716  -7.969  -5.660  0.00  0.00    +0.000 A 
ATOM     29  C   UNL     1       7.818  -6.683  -5.144  0.00  0.00    +0.000 A 
ATOM     30  N   UNL     1       7.642  -6.354  -3.831  0.00  0.00    +0.000 NA
BRANCH  28  31
ATOM     31  C   UNL     1       7.916  -8.324  -7.086  0.00  0.00    +0.000 C 
ATOM     32  N   UNL     1       8.241  -7.343  -7.981  0.00  0.00    +0.000 N 
ATOM     33  O   UNL     1       7.798  -9.478  -7.471  0.00  0.00    +0.000 OA
ATOM     34  H   UNL     1       8.381  -6.370  -7.771  0.00  0.00    +0.000 HD
ATOM     35  H   UNL     1       8.378  -7.638  -8.939  0.00  0.00    +0.000 HD
ENDBRANCH  28  31
ENDBRANCH  22  25
ENDBRANCH  21  22
ENDBRANCH  20  21
ENDBRANCH   3  20
TORSDOF 8
