REMARK  Name = 
REMARK  4 active torsions:
REMARK  status: ('A' for Active; 'I' for Inactive)
REMARK    1  A    between atoms: N_1  and  C_2
REMARK    2  A    between atoms: C_2  and  C_3
REMARK    3  A    between atoms: C_6  and  C_7
REMARK    4  A    between atoms: C_7  and  N_8
REMARK                            x       y       z     vdW  Elec       q    Type
REMARK                         _______ _______ _______ _____ _____    ______ ____
ROOT
ATOM      1  C   UNL     1       2.175   1.464  -1.179  0.00  0.00    +0.000 A 
ATOM      2  C   UNL     1       2.338   0.897  -2.449  0.00  0.00    +0.000 A 
ATOM      3  C   UNL     1       2.938   1.613  -3.482  0.00  0.00    +0.000 A 
ATOM      4  C   UNL     1       3.384   2.930  -3.274  0.00  0.00    +0.000 A 
ATOM      5  C   UNL     1       3.201   3.506  -2.013  0.00  0.00    +0.000 A 
ATOM      6  C   UNL     1       2.612   2.783  -0.974  0.00  0.00    +0.000 A 
ENDROOT
BRANCH   1   7
ATOM      7  C   UNL     1       1.528   0.686  -0.061  0.00  0.00    +0.000 C 
BRANCH   7   8
ATOM      8  N   UNL     1       2.254  -0.543   0.238  0.00  0.00    +0.000 NA
ATOM      9  H   UNL     1       1.834  -0.986   1.052  0.00  0.00    +0.000 HD
ATOM     10  H   UNL     1       3.209  -0.304   0.500  0.00  0.00    +0.000 HD
ENDBRANCH   7   8
ENDBRANCH   1   7
BRANCH   4  11
ATOM     11  C   UNL     1       4.116   3.672  -4.358  0.00  0.00    +0.000 C 
BRANCH  11  12
ATOM     12  N   UNL     1       3.288   4.474  -5.247  0.00  0.00    +0.000 N 
ATOM     13  C   UNL     1       2.157   4.049  -5.890  0.00  0.00    +0.000 A 
ATOM     14  N   UNL     1       1.916   4.755  -6.972  0.00  0.00    +0.000 NA
ATOM     15  C   UNL     1       2.908   5.702  -7.014  0.00  0.00    +0.000 A 
ATOM     16  C   UNL     1       3.192   6.659  -7.999  0.00  0.00    +0.000 A 
ATOM     17  C   UNL     1       4.274   7.528  -7.806  0.00  0.00    +0.000 A 
ATOM     18  C   UNL     1       5.035   7.469  -6.638  0.00  0.00    +0.000 A 
ATOM     19  C   UNL     1       4.780   6.508  -5.652  0.00  0.00    +0.000 A 
ATOM     20  C   UNL     1       3.727   5.614  -5.891  0.00  0.00    +0.000 A 
ENDBRANCH  11  12
ENDBRANCH   4  11
TORSDOF 4
