REMARK  Name = 
REMARK  10 active torsions:
REMARK  status: ('A' for Active; 'I' for Inactive)
REMARK    1  A    between atoms: C_1  and  O_2
REMARK    2  A    between atoms: O_2  and  C_3
REMARK    3  A    between atoms: C_5  and  N_6
REMARK    4  A    between atoms: N_6  and  C_7
REMARK    5  A    between atoms: C_7  and  C_8
REMARK    6  A    between atoms: C_8  and  C_9
REMARK    7  A    between atoms: C_8  and  C_10
REMARK    8  A    between atoms: C_8  and  C_11
REMARK    9  A    between atoms: C_15  and  C_16
REMARK   10  A    between atoms: C_24  and  C_25
REMARK                            x       y       z     vdW  Elec       q    Type
REMARK                         _______ _______ _______ _____ _____    ______ ____
ROOT
ATOM      1  C   UNL     1       1.865  -1.604   4.724  0.00  0.00    +0.000 C 
ENDROOT
BRANCH   1   2
ATOM      2  C   UNL     1       1.650  -2.340   6.097  0.00  0.00    +0.000 C 
ATOM      3  C   UNL     1       2.885  -3.181   6.489  0.00  0.00    +0.000 C 
ATOM      4  C   UNL     1       1.550  -1.197   7.150  0.00  0.00    +0.000 C 
BRANCH   2   5
ATOM      5  C   UNL     1       0.400  -3.255   6.124  0.00  0.00    +0.000 A 
ATOM      6  C   UNL     1      -0.101  -3.875   4.968  0.00  0.00    +0.000 A 
ATOM      7  C   UNL     1      -1.206  -4.720   4.995  0.00  0.00    +0.000 A 
ATOM      8  C   UNL     1      -1.830  -4.997   6.200  0.00  0.00    +0.000 A 
ATOM      9  C   UNL     1      -1.342  -4.464   7.403  0.00  0.00    +0.000 A 
ATOM     10  C   UNL     1      -0.242  -3.582   7.335  0.00  0.00    +0.000 A 
BRANCH   9  11
ATOM     11  C   UNL     1      -1.925  -4.872   8.694  0.00  0.00    +0.000 A 
ATOM     12  C   UNL     1      -2.330  -6.200   8.903  0.00  0.00    +0.000 A 
ATOM     13  C   UNL     1      -2.845  -6.571  10.133  0.00  0.00    +0.000 A 
ATOM     14  N   UNL     1      -2.978  -5.726  11.172  0.00  0.00    +0.000 NA
ATOM     15  C   UNL     1      -2.584  -4.451  10.965  0.00  0.00    +0.000 A 
ATOM     16  C   UNL     1      -2.068  -3.985   9.766  0.00  0.00    +0.000 A 
ENDBRANCH   9  11
ENDBRANCH   2   5
ENDBRANCH   1   2
BRANCH   1  17
ATOM     17  N   UNL     1       2.129  -2.500   3.590  0.00  0.00    +0.000 N 
ATOM     18  H   UNL     1       1.646  -2.213   2.738  0.00  0.00    +0.000 HD
BRANCH  17  21
ATOM     19  C   UNL     1       5.802  -2.649   3.073  0.00  0.00    +0.000 A 
ATOM     20  C   UNL     1       4.538  -2.152   3.391  0.00  0.00    +0.000 A 
ATOM     21  C   UNL     1       3.412  -2.962   3.308  0.00  0.00    +0.000 A 
ATOM     22  C   UNL     1       3.549  -4.269   2.829  0.00  0.00    +0.000 A 
ATOM     23  C   UNL     1       4.810  -4.796   2.515  0.00  0.00    +0.000 A 
ATOM     24  C   UNL     1       5.935  -3.971   2.650  0.00  0.00    +0.000 A 
BRANCH  23  25
ATOM     25  C   UNL     1       4.967  -6.220   2.044  0.00  0.00    +0.000 C 
ATOM     26  F   UNL     1       3.793  -6.901   1.954  0.00  0.00    +0.000 F 
ATOM     27  F   UNL     1       5.535  -6.297   0.806  0.00  0.00    +0.000 F 
ATOM     28  F   UNL     1       5.764  -6.958   2.865  0.00  0.00    +0.000 F 
ENDBRANCH  23  25
BRANCH  19  30
ATOM     29  C   UNL     1       6.839  -0.564   3.530  0.00  0.00    +0.000 C 
ATOM     30  O   UNL     1       6.964  -1.927   3.133  0.00  0.00    +0.000 OA
ENDBRANCH  19  30
ENDBRANCH  17  21
ENDBRANCH   1  17
TORSDOF 7
