REMARK  Name = 
REMARK  7 active torsions:
REMARK  status: ('A' for Active; 'I' for Inactive)
REMARK    1  A    between atoms: C_1  and  O_2
REMARK    2  A    between atoms: O_2  and  C_3
REMARK    3  A    between atoms: C_5  and  C_6
REMARK    4  A    between atoms: C_11  and  O_12
REMARK    5  A    between atoms: O_12  and  C_13
REMARK    6  A    between atoms: C_13  and  C_14
REMARK    7  A    between atoms: C_18  and  C_19
REMARK                            x       y       z     vdW  Elec       q    Type
REMARK                         _______ _______ _______ _____ _____    ______ ____
ROOT
ATOM      1  O   UNL     1       4.552  -1.772  -0.379  0.00  0.00    +0.000 OA
ENDROOT
BRANCH   1   7
ATOM      2  C   UNL     1       3.088   0.131  -1.103  0.00  0.00    +0.000 A 
ATOM      3  C   UNL     1       2.904   1.133  -2.066  0.00  0.00    +0.000 A 
ATOM      4  C   UNL     1       3.802   1.307  -3.129  0.00  0.00    +0.000 A 
ATOM      5  C   UNL     1       4.910   0.464  -3.222  0.00  0.00    +0.000 A 
ATOM      6  C   UNL     1       5.101  -0.543  -2.267  0.00  0.00    +0.000 A 
ATOM      7  C   UNL     1       4.201  -0.725  -1.204  0.00  0.00    +0.000 A 
BRANCH   4   8
ATOM      8  C   UNL     1       3.505   2.409  -4.091  0.00  0.00    +0.000 C 
ATOM      9  N   UNL     1       4.363   2.637  -5.130  0.00  0.00    +0.000 N 
ATOM     10  O   UNL     1       2.509   3.111  -3.968  0.00  0.00    +0.000 OA
ATOM     11  H   UNL     1       5.210   2.121  -5.303  0.00  0.00    +0.000 HD
ATOM     12  H   UNL     1       4.130   3.397  -5.756  0.00  0.00    +0.000 HD
ENDBRANCH   4   8
BRANCH   2  14
ATOM     13  C   UNL     1       0.922   0.506  -0.161  0.00  0.00    +0.000 C 
ATOM     14  O   UNL     1       2.248   0.007  -0.028  0.00  0.00    +0.000 OA
ENDBRANCH   2  14
ENDBRANCH   1   7
BRANCH   1  15
ATOM     15  C   UNL     1       3.661  -2.073   0.693  0.00  0.00    +0.000 C 
BRANCH  15  16
ATOM     16  C   UNL     1       4.072  -3.294   1.489  0.00  0.00    +0.000 A 
ATOM     17  C   UNL     1       3.773  -3.337   2.858  0.00  0.00    +0.000 A 
ATOM     18  C   UNL     1       4.003  -4.493   3.595  0.00  0.00    +0.000 A 
ATOM     19  C   UNL     1       4.512  -5.629   2.964  0.00  0.00    +0.000 A 
ATOM     20  C   UNL     1       4.798  -5.637   1.586  0.00  0.00    +0.000 A 
ATOM     21  C   UNL     1       4.588  -4.442   0.869  0.00  0.00    +0.000 A 
BRANCH  20  22
ATOM     22  C   UNL     1       5.236  -6.872   0.903  0.00  0.00    +0.000 A 
ATOM     23  C   UNL     1       6.136  -6.862  -0.172  0.00  0.00    +0.000 A 
ATOM     24  C   UNL     1       6.484  -8.049  -0.818  0.00  0.00    +0.000 A 
ATOM     25  C   UNL     1       5.931  -9.232  -0.364  0.00  0.00    +0.000 A 
ATOM     26  N   UNL     1       5.067  -9.303   0.666  0.00  0.00    +0.000 NA
ATOM     27  C   UNL     1       4.741  -8.130   1.263  0.00  0.00    +0.000 A 
ENDBRANCH  20  22
ENDBRANCH  15  16
ENDBRANCH   1  15
TORSDOF 6
