REMARK  Name = 
REMARK  5 active torsions:
REMARK  status: ('A' for Active; 'I' for Inactive)
REMARK    1  A    between atoms: C_1  and  O_2
REMARK    2  A    between atoms: O_2  and  C_3
REMARK    3  A    between atoms: C_8  and  C_9
REMARK    4  A    between atoms: C_9  and  N_10
REMARK    5  A    between atoms: C_15  and  C_16
REMARK                            x       y       z     vdW  Elec       q    Type
REMARK                         _______ _______ _______ _____ _____    ______ ____
ROOT
ATOM      1  N   UNL     1       4.558  -1.083   2.482  0.00  0.00    +0.000 N 
ATOM      2  C   UNL     1       5.766  -0.436   2.645  0.00  0.00    +0.000 A 
ATOM      3  C   UNL     1       5.594   0.505   3.633  0.00  0.00    +0.000 A 
ATOM      4  C   UNL     1       4.544  -0.007   4.429  0.00  0.00    +0.000 A 
ATOM      5  C   UNL     1       4.211   0.092   5.790  0.00  0.00    +0.000 A 
ATOM      6  C   UNL     1       3.098  -0.604   6.278  0.00  0.00    +0.000 A 
ATOM      7  C   UNL     1       2.216  -1.212   5.375  0.00  0.00    +0.000 A 
ATOM      8  C   UNL     1       2.536  -1.330   4.012  0.00  0.00    +0.000 A 
ATOM      9  C   UNL     1       3.777  -0.835   3.603  0.00  0.00    +0.000 A 
ENDROOT
BRANCH   6  10
ATOM     10  C   UNL     1       2.979  -0.750   7.764  0.00  0.00    +0.000 C 
ATOM     11  N   UNL     1       1.895  -1.416   8.269  0.00  0.00    +0.000 N 
ATOM     12  O   UNL     1       3.847  -0.345   8.520  0.00  0.00    +0.000 OA
ATOM     13  H   UNL     1       1.144  -1.811   7.729  0.00  0.00    +0.000 HD
ATOM     14  H   UNL     1       1.887  -1.565   9.271  0.00  0.00    +0.000 HD
ENDBRANCH   6  10
BRANCH   1  15
ATOM     15  C   UNL     1       4.359  -2.188   1.544  0.00  0.00    +0.000 C 
BRANCH  15  21
ATOM     16  C   UNL     1       2.811  -2.522  -0.436  0.00  0.00    +0.000 A 
ATOM     17  C   UNL     1       2.489  -2.315  -1.787  0.00  0.00    +0.000 A 
ATOM     18  C   UNL     1       3.196  -1.367  -2.538  0.00  0.00    +0.000 A 
ATOM     19  C   UNL     1       4.210  -0.633  -1.950  0.00  0.00    +0.000 A 
ATOM     20  C   UNL     1       4.541  -0.836  -0.604  0.00  0.00    +0.000 A 
ATOM     21  C   UNL     1       3.856  -1.793   0.166  0.00  0.00    +0.000 A 
BRANCH  16  23
ATOM     22  C   UNL     1       1.139  -4.217  -0.216  0.00  0.00    +0.000 C 
ATOM     23  O   UNL     1       2.169  -3.434   0.361  0.00  0.00    +0.000 OA
ENDBRANCH  16  23
ENDBRANCH  15  21
ENDBRANCH   1  15
TORSDOF 4
