REMARK  Name = 
REMARK  7 active torsions:
REMARK  status: ('A' for Active; 'I' for Inactive)
REMARK    1  A    between atoms: C_1  and  O_2
REMARK    2  A    between atoms: O_2  and  C_3
REMARK    3  A    between atoms: C_5  and  C_6
REMARK    4  A    between atoms: C_6  and  N_7
REMARK    5  A    between atoms: C_11  and  C_12
REMARK    6  A    between atoms: C_22  and  C_23
REMARK    7  A    between atoms: C_26  and  C_27
REMARK                            x       y       z     vdW  Elec       q    Type
REMARK                         _______ _______ _______ _____ _____    ______ ____
ROOT
ATOM      1  C   UNL     1       3.051  -1.145  -0.073  0.00  0.00    +0.000 A 
ATOM      2  C   UNL     1       2.704  -2.006  -1.127  0.00  0.00    +0.000 A 
ATOM      3  C   UNL     1       3.484  -3.118  -1.478  0.00  0.00    +0.000 A 
ATOM      4  C   UNL     1       4.617  -3.365  -0.698  0.00  0.00    +0.000 A 
ATOM      5  C   UNL     1       4.963  -2.529   0.363  0.00  0.00    +0.000 A 
ATOM      6  F   UNL     1       6.072  -2.851   1.051  0.00  0.00    +0.000 F 
ATOM      7  C   UNL     1       4.217  -1.386   0.697  0.00  0.00    +0.000 A 
ENDROOT
BRANCH   7   8
ATOM      8  C   UNL     1       4.638  -0.497   1.813  0.00  0.00    +0.000 A 
ATOM      9  C   UNL     1       4.536   0.904   1.712  0.00  0.00    +0.000 A 
ATOM     10  C   UNL     1       4.827   1.742   2.792  0.00  0.00    +0.000 A 
ATOM     11  C   UNL     1       5.276   1.198   3.995  0.00  0.00    +0.000 A 
ATOM     12  C   UNL     1       5.464  -0.180   4.098  0.00  0.00    +0.000 A 
ATOM     13  C   UNL     1       5.136  -1.014   3.022  0.00  0.00    +0.000 A 
BRANCH  11  14
ATOM     14  C   UNL     1       5.538   2.125   5.129  0.00  0.00    +0.000 C 
ATOM     15  N   UNL     1       5.493   1.600   6.390  0.00  0.00    +0.000 N 
ATOM     16  O   UNL     1       5.740   3.320   4.953  0.00  0.00    +0.000 OA
ATOM     17  H   UNL     1       5.075   0.703   6.587  0.00  0.00    +0.000 HD
ATOM     18  H   UNL     1       5.547   2.268   7.148  0.00  0.00    +0.000 HD
ENDBRANCH  11  14
ENDBRANCH   7   8
BRANCH   3  19
ATOM     19  C   UNL     1       3.118  -3.971  -2.688  0.00  0.00    +0.000 C 
ATOM     20  C   UNL     1       4.151  -4.146  -3.783  0.00  0.00    +0.000 C 
ATOM     21  C   UNL     1       3.002  -3.223  -4.019  0.00  0.00    +0.000 C 
BRANCH  19  22
ATOM     22  N   UNL     1       2.066  -4.961  -2.440  0.00  0.00    +0.000 N 
ATOM     23  C   UNL     1       2.252  -6.288  -2.057  0.00  0.00    +0.000 A 
ATOM     24  C   UNL     1       3.368  -6.748  -1.367  0.00  0.00    +0.000 A 
ATOM     25  C   UNL     1       3.445  -8.086  -0.976  0.00  0.00    +0.000 A 
ATOM     26  C   UNL     1       2.398  -8.947  -1.293  0.00  0.00    +0.000 A 
ATOM     27  C   UNL     1       1.325  -8.418  -1.997  0.00  0.00    +0.000 A 
ATOM     28  N   UNL     1       1.229  -7.114  -2.367  0.00  0.00    +0.000 NA
ATOM     29  H   UNL     1       1.208  -4.919  -2.983  0.00  0.00    +0.000 HD
BRANCH  26  30
ATOM     30  C   UNL     1       2.393 -10.382  -0.945  0.00  0.00    +0.000 C 
ATOM     31  N   UNL     1       3.161 -10.783   0.110  0.00  0.00    +0.000 N 
ATOM     32  O   UNL     1       1.703 -11.183  -1.563  0.00  0.00    +0.000 OA
ATOM     33  H   UNL     1       3.551 -10.140   0.785  0.00  0.00    +0.000 HD
ATOM     34  H   UNL     1       3.072 -11.754   0.388  0.00  0.00    +0.000 HD
ENDBRANCH  26  30
ENDBRANCH  19  22
ENDBRANCH   3  19
BRANCH   1  36
ATOM     35  C   UNL     1       1.016   0.106  -0.309  0.00  0.00    +0.000 C 
ATOM     36  O   UNL     1       2.319  -0.029   0.238  0.00  0.00    +0.000 OA
ENDBRANCH   1  36
TORSDOF 6
