REMARK  Name = 
REMARK  5 active torsions:
REMARK  status: ('A' for Active; 'I' for Inactive)
REMARK    1  A    between atoms: C_1  and  C_2
REMARK    2  A    between atoms: C_2  and  O_3
REMARK    3  A    between atoms: C_2  and  C_13
REMARK    4  A    between atoms: O_3  and  C_4
REMARK    5  A    between atoms: C_7  and  C_8
REMARK                            x       y       z     vdW  Elec       q    Type
REMARK                         _______ _______ _______ _____ _____    ______ ____
ROOT
ATOM      1  C   UNL     1       2.976  -0.530  -2.235  0.00  0.00    +0.000 A 
ATOM      2  C   UNL     1       3.249  -0.105  -3.534  0.00  0.00    +0.000 A 
ATOM      3  N   UNL     1       3.548  -0.958  -4.552  0.00  0.00    +0.000 NA
ATOM      4  C   UNL     1       3.567  -2.274  -4.195  0.00  0.00    +0.000 A 
ATOM      5  C   UNL     1       3.283  -2.700  -2.905  0.00  0.00    +0.000 A 
ATOM      6  N   UNL     1       2.976  -1.838  -1.896  0.00  0.00    +0.000 NA
ENDROOT
BRANCH   4   7
ATOM      7  C   UNL     1       3.917  -3.274  -5.240  0.00  0.00    +0.000 C 
ATOM      8  N   UNL     1       4.178  -2.772  -6.488  0.00  0.00    +0.000 N 
ATOM      9  O   UNL     1       3.976  -4.475  -5.005  0.00  0.00    +0.000 OA
ATOM     10  H   UNL     1       4.131  -1.773  -6.653  0.00  0.00    +0.000 HD
ATOM     11  H   UNL     1       4.432  -3.401  -7.236  0.00  0.00    +0.000 HD
ENDBRANCH   4   7
BRANCH   1  12
ATOM     12  O   UNL     1       2.726   0.442  -1.292  0.00  0.00    +0.000 OA
BRANCH  12  14
ATOM     13  C   UNL     1       0.938  -0.195   0.217  0.00  0.00    +0.000 C 
ATOM     14  C   UNL     1       2.449  -0.031   0.034  0.00  0.00    +0.000 C 
BRANCH  14  15
ATOM     15  C   UNL     1       2.942   0.994   1.051  0.00  0.00    +0.000 A 
ATOM     16  C   UNL     1       3.410   0.554   2.302  0.00  0.00    +0.000 A 
ATOM     17  C   UNL     1       3.749   1.471   3.299  0.00  0.00    +0.000 A 
ATOM     18  C   UNL     1       3.628   2.835   3.052  0.00  0.00    +0.000 A 
ATOM     19 CL   UNL     1       3.996   3.964   4.297  0.00  0.00    +0.000 Cl
ATOM     20  C   UNL     1       3.189   3.291   1.811  0.00  0.00    +0.000 A 
ATOM     21  C   UNL     1       2.847   2.374   0.814  0.00  0.00    +0.000 A 
ENDBRANCH  14  15
ENDBRANCH  12  14
ENDBRANCH   1  12
TORSDOF 4
