REMARK  Name = 
REMARK  7 active torsions:
REMARK  status: ('A' for Active; 'I' for Inactive)
REMARK    1  A    between atoms: C_2  and  C_19
REMARK    2  A    between atoms: N_3  and  C_4
REMARK    3  A    between atoms: C_4  and  C_5
REMARK    4  A    between atoms: C_8  and  C_9
REMARK    5  A    between atoms: C_9  and  C_10
REMARK    6  A    between atoms: C_10  and  N_11
REMARK    7  A    between atoms: N_11  and  C_12
REMARK                            x       y       z     vdW  Elec       q    Type
REMARK                         _______ _______ _______ _____ _____    ______ ____
ROOT
ATOM      1  C   UNL     1       2.221   1.793  -1.575  0.00  0.00    +0.000 C 
ENDROOT
BRANCH   1   2
ATOM      2  C   UNL     1       3.162   2.774  -2.205  0.00  0.00    +0.000 A 
ATOM      3  C   UNL     1       2.979   4.157  -2.121  0.00  0.00    +0.000 A 
ATOM      4  C   UNL     1       3.895   5.022  -2.728  0.00  0.00    +0.000 A 
ATOM      5  C   UNL     1       4.989   4.478  -3.391  0.00  0.00    +0.000 A 
ATOM      6  N   UNL     1       5.188   3.138  -3.455  0.00  0.00    +0.000 NA
ATOM      7  C   UNL     1       4.288   2.323  -2.870  0.00  0.00    +0.000 A 
BRANCH   5   8
ATOM      8  C   UNL     1       6.010   5.364  -4.081  0.00  0.00    +0.000 C 
BRANCH   8   9
ATOM      9  C   UNL     1       7.120   4.510  -4.717  0.00  0.00    +0.000 C 
BRANCH   9  10
ATOM     10  N   UNL     1       8.134   5.262  -5.473  0.00  0.00    +0.000 NA
ATOM     11  H   UNL     1       8.597   5.920  -4.847  0.00  0.00    +0.000 HD
BRANCH  10  12
ATOM     12  C   UNL     1       9.143   4.323  -6.015  0.00  0.00    +0.000 C 
ATOM     13  C   UNL     1      10.256   5.055  -6.763  0.00  0.00    +0.000 C 
ATOM     14  C   UNL     1       9.882   4.889  -8.221  0.00  0.00    +0.000 C 
ATOM     15  N   UNL     1       9.409   3.502  -8.296  0.00  0.00    +0.000 NA
ATOM     16  C   UNL     1       8.593   3.340  -7.080  0.00  0.00    +0.000 C 
ATOM     17  H   UNL     1      10.211   2.876  -8.234  0.00  0.00    +0.000 HD
ENDBRANCH  10  12
ENDBRANCH   9  10
ENDBRANCH   8   9
ENDBRANCH   5   8
ENDBRANCH   1   2
BRANCH   1  20
ATOM     18  O   UNL     1       3.747  -0.389  -0.653  0.00  0.00    +0.000 OA
ATOM     19  C   UNL     1       3.382   0.461   0.152  0.00  0.00    +0.000 C 
ATOM     20  N   UNL     1       2.590   1.523  -0.208  0.00  0.00    +0.000 N 
ATOM     21  H   UNL     1       2.463   2.287   0.445  0.00  0.00    +0.000 HD
BRANCH  19  22
ATOM     22  C   UNL     1       3.728   0.372   1.578  0.00  0.00    +0.000 A 
ATOM     23  C   UNL     1       4.085  -0.852   2.127  0.00  0.00    +0.000 A 
ATOM     24  S   UNL     1       4.421  -0.779   3.798  0.00  0.00    +0.000 S 
ATOM     25  C   UNL     1       4.153   0.901   3.836  0.00  0.00    +0.000 A 
ATOM     26  N   UNL     1       4.309   1.609   4.987  0.00  0.00    +0.000 NA
ATOM     27  C   UNL     1       4.129   2.881   4.860  0.00  0.00    +0.000 A 
ATOM     28  N   UNL     1       3.793   3.508   3.688  0.00  0.00    +0.000 N 
ATOM     29  C   UNL     1       3.544   2.825   2.523  0.00  0.00    +0.000 A 
ATOM     30  O   UNL     1       3.104   3.402   1.533  0.00  0.00    +0.000 OA
ATOM     31  C   UNL     1       3.787   1.396   2.596  0.00  0.00    +0.000 A 
ATOM     32  H   UNL     1       3.632   4.504   3.664  0.00  0.00    +0.000 HD
ENDBRANCH  19  22
ENDBRANCH   1  20
TORSDOF 7
