REMARK  Name = 
REMARK  9 active torsions:
REMARK  status: ('A' for Active; 'I' for Inactive)
REMARK    1  A    between atoms: C_1  and  N_2
REMARK    2  A    between atoms: N_2  and  C_3
REMARK    3  A    between atoms: N_2  and  C_25
REMARK    4  A    between atoms: C_3  and  O_4
REMARK    5  A    between atoms: O_4  and  C_5
REMARK    6  A    between atoms: C_8  and  C_9
REMARK    7  A    between atoms: C_9  and  N_10
REMARK    8  A    between atoms: C_11  and  C_13
REMARK    9  A    between atoms: C_25  and  C_26
REMARK                            x       y       z     vdW  Elec       q    Type
REMARK                         _______ _______ _______ _____ _____    ______ ____
ROOT
ATOM      1  C   UNL     1       2.796   2.591  -2.622  0.00  0.00    +0.000 A 
ATOM      2  C   UNL     1       4.147   2.937  -2.599  0.00  0.00    +0.000 A 
ATOM      3  C   UNL     1       4.595   4.072  -3.281  0.00  0.00    +0.000 A 
ATOM      4  C   UNL     1       3.697   4.880  -3.988  0.00  0.00    +0.000 A 
ATOM      5  C   UNL     1       2.351   4.500  -4.051  0.00  0.00    +0.000 A 
ATOM      6  C   UNL     1       1.906   3.368  -3.366  0.00  0.00    +0.000 A 
ENDROOT
BRANCH   1   7
ATOM      7  O   UNL     1       2.227   1.536  -1.965  0.00  0.00    +0.000 OA
BRANCH   7   8
ATOM      8  C   UNL     1       3.099   0.716  -1.185  0.00  0.00    +0.000 C 
BRANCH   8  10
ATOM      9  C   UNL     1       1.733  -1.229  -1.507  0.00  0.00    +0.000 C 
ATOM     10  N   UNL     1       2.387  -0.378  -0.508  0.00  0.00    +0.000 NA
BRANCH  10  11
ATOM     11  C   UNL     1       1.386   0.125   0.444  0.00  0.00    +0.000 C 
BRANCH  11  12
ATOM     12  C   UNL     1       1.951   0.913   1.610  0.00  0.00    +0.000 A 
ATOM     13  C   UNL     1       1.494   2.216   1.866  0.00  0.00    +0.000 A 
ATOM     14  C   UNL     1       1.925   2.914   2.995  0.00  0.00    +0.000 A 
ATOM     15  C   UNL     1       2.829   2.324   3.877  0.00  0.00    +0.000 A 
ATOM     16  C   UNL     1       3.314   1.044   3.614  0.00  0.00    +0.000 A 
ATOM     17 CL   UNL     1       4.441   0.323   4.697  0.00  0.00    +0.000 Cl
ATOM     18  C   UNL     1       2.882   0.338   2.489  0.00  0.00    +0.000 A 
ENDBRANCH  11  12
ENDBRANCH  10  11
ENDBRANCH   8  10
ENDBRANCH   7   8
ENDBRANCH   1   7
BRANCH   4  19
ATOM     19  C   UNL     1       4.176   6.118  -4.695  0.00  0.00    +0.000 C 
BRANCH  19  20
ATOM     20  N   UNL     1       4.579   5.821  -6.043  0.00  0.00    +0.000 N 
ATOM     21  C   UNL     1       5.148   6.783  -6.835  0.00  0.00    +0.000 C 
ATOM     22  O   UNL     1       5.377   7.916  -6.417  0.00  0.00    +0.000 OA
ATOM     23  H   UNL     1       4.196   4.981  -6.467  0.00  0.00    +0.000 HD
BRANCH  21  24
ATOM     24  C   UNL     1       5.529   6.375  -8.190  0.00  0.00    +0.000 A 
ATOM     25  C   UNL     1       6.508   7.088  -8.870  0.00  0.00    +0.000 A 
ATOM     26  S   UNL     1       6.873   6.451 -10.408  0.00  0.00    +0.000 S 
ATOM     27  C   UNL     1       5.698   5.232 -10.241  0.00  0.00    +0.000 A 
ATOM     28  N   UNL     1       5.479   4.336 -11.241  0.00  0.00    +0.000 NA
ATOM     29  C   UNL     1       4.537   3.485 -10.996  0.00  0.00    +0.000 A 
ATOM     30  N   UNL     1       3.803   3.447  -9.838  0.00  0.00    +0.000 N 
ATOM     31  C   UNL     1       4.010   4.312  -8.792  0.00  0.00    +0.000 A 
ATOM     32  O   UNL     1       3.360   4.228  -7.754  0.00  0.00    +0.000 OA
ATOM     33  C   UNL     1       5.051   5.299  -9.021  0.00  0.00    +0.000 A 
ATOM     34  H   UNL     1       3.083   2.749  -9.707  0.00  0.00    +0.000 HD
ENDBRANCH  21  24
ENDBRANCH  19  20
ENDBRANCH   4  19
TORSDOF 8
