REMARK  Name = 
REMARK  5 active torsions:
REMARK  status: ('A' for Active; 'I' for Inactive)
REMARK    1  A    between atoms: N_1  and  C_2
REMARK    2  A    between atoms: C_2  and  C_3
REMARK    3  A    between atoms: C_6  and  O_7
REMARK    4  A    between atoms: O_7  and  C_8
REMARK    5  A    between atoms: C_8  and  C_9
REMARK                            x       y       z     vdW  Elec       q    Type
REMARK                         _______ _______ _______ _____ _____    ______ ____
ROOT
ATOM      1  C   UNL     1       2.818   1.073   1.030  0.00  0.00    +0.000 A 
ATOM      2  C   UNL     1       2.750   2.450   0.770  0.00  0.00    +0.000 A 
ATOM      3  C   UNL     1       3.010   3.377   1.784  0.00  0.00    +0.000 A 
ATOM      4  C   UNL     1       3.329   2.939   3.069  0.00  0.00    +0.000 A 
ATOM      5  C   UNL     1       3.467   1.571   3.315  0.00  0.00    +0.000 A 
ATOM      6  C   UNL     1       3.200   0.646   2.305  0.00  0.00    +0.000 A 
ENDROOT
BRANCH   1   7
ATOM      7  C   UNL     1       2.458   0.065  -0.031  0.00  0.00    +0.000 C 
BRANCH   7   8
ATOM      8  N   UNL     1       3.315   0.177  -1.204  0.00  0.00    +0.000 NA
ATOM      9  H   UNL     1       3.130  -0.611  -1.822  0.00  0.00    +0.000 HD
ATOM     10  H   UNL     1       4.285   0.090  -0.908  0.00  0.00    +0.000 HD
ENDBRANCH   7   8
ENDBRANCH   1   7
BRANCH   4  11
ATOM     11  O   UNL     1       3.475   3.918   4.019  0.00  0.00    +0.000 OA
BRANCH  11  12
ATOM     12  C   UNL     1       3.231   3.476   5.357  0.00  0.00    +0.000 C 
BRANCH  12  13
ATOM     13  C   UNL     1       2.877   4.622   6.272  0.00  0.00    +0.000 A 
ATOM     14  C   UNL     1       2.242   5.775   5.807  0.00  0.00    +0.000 A 
ATOM     15  C   UNL     1       1.872   6.745   6.724  0.00  0.00    +0.000 A 
ATOM     16  N   UNL     1       2.080   6.642   8.055  0.00  0.00    +0.000 NA
ATOM     17  C   UNL     1       2.682   5.515   8.487  0.00  0.00    +0.000 A 
ATOM     18  C   UNL     1       3.090   4.491   7.649  0.00  0.00    +0.000 A 
ENDBRANCH  12  13
ENDBRANCH  11  12
ENDBRANCH   4  11
TORSDOF 5
