REMARK  Name = 
REMARK  7 active torsions:
REMARK  status: ('A' for Active; 'I' for Inactive)
REMARK    1  A    between atoms: C_1  and  O_2
REMARK    2  A    between atoms: O_2  and  C_3
REMARK    3  A    between atoms: C_5  and  C_6
REMARK    4  A    between atoms: C_11  and  O_12
REMARK    5  A    between atoms: O_12  and  C_13
REMARK    6  A    between atoms: C_13  and  C_14
REMARK    7  A    between atoms: C_18  and  C_19
REMARK                            x       y       z     vdW  Elec       q    Type
REMARK                         _______ _______ _______ _____ _____    ______ ____
ROOT
ATOM      1  O   UNL     1       4.510  -0.828   1.609  0.00  0.00    +0.000 OA
ENDROOT
BRANCH   1   7
ATOM      2  C   UNL     1       3.104  -0.892  -0.466  0.00  0.00    +0.000 A 
ATOM      3  C   UNL     1       2.960  -1.472  -1.736  0.00  0.00    +0.000 A 
ATOM      4  C   UNL     1       3.872  -2.420  -2.222  0.00  0.00    +0.000 A 
ATOM      5  C   UNL     1       4.956  -2.787  -1.420  0.00  0.00    +0.000 A 
ATOM      6  C   UNL     1       5.110  -2.211  -0.150  0.00  0.00    +0.000 A 
ATOM      7  C   UNL     1       4.195  -1.267   0.342  0.00  0.00    +0.000 A 
BRANCH   4   8
ATOM      8  C   UNL     1       3.619  -2.970  -3.584  0.00  0.00    +0.000 C 
ATOM      9  N   UNL     1       4.505  -3.864  -4.111  0.00  0.00    +0.000 N 
ATOM     10  O   UNL     1       2.633  -2.635  -4.238  0.00  0.00    +0.000 OA
ATOM     11  H   UNL     1       5.353  -4.177  -3.667  0.00  0.00    +0.000 HD
ATOM     12  H   UNL     1       4.305  -4.204  -5.043  0.00  0.00    +0.000 HD
ENDBRANCH   4   8
BRANCH   2  14
ATOM     13  C   UNL     1       0.937   0.113  -0.578  0.00  0.00    +0.000 C 
ATOM     14  O   UNL     1       2.243   0.072  -0.016  0.00  0.00    +0.000 OA
ENDBRANCH   2  14
ENDBRANCH   1   7
BRANCH   1  15
ATOM     15  C   UNL     1       3.606   0.092   2.219  0.00  0.00    +0.000 C 
BRANCH  15  16
ATOM     16  C   UNL     1       3.994   0.452   3.638  0.00  0.00    +0.000 A 
ATOM     17  C   UNL     1       3.718   1.743   4.107  0.00  0.00    +0.000 A 
ATOM     18  C   UNL     1       3.951   2.076   5.436  0.00  0.00    +0.000 A 
ATOM     19  C   UNL     1       4.436   1.111   6.319  0.00  0.00    +0.000 A 
ATOM     20  C   UNL     1       4.681  -0.211   5.903  0.00  0.00    +0.000 A 
ATOM     21  C   UNL     1       4.473  -0.511   4.540  0.00  0.00    +0.000 A 
BRANCH  20  22
ATOM     22  C   UNL     1       5.047  -1.269   6.874  0.00  0.00    +0.000 A 
ATOM     23  C   UNL     1       4.503  -1.275   8.174  0.00  0.00    +0.000 A 
ATOM     24  C   UNL     1       4.768  -2.310   9.075  0.00  0.00    +0.000 A 
ATOM     25  C   UNL     1       5.581  -3.371   8.695  0.00  0.00    +0.000 A 
ATOM     26  C   UNL     1       6.146  -3.385   7.423  0.00  0.00    +0.000 A 
ATOM     27  C   UNL     1       5.890  -2.340   6.527  0.00  0.00    +0.000 A 
ENDBRANCH  20  22
ENDBRANCH  15  16
ENDBRANCH   1  15
TORSDOF 6
