REMARK  Name = 
REMARK  7 active torsions:
REMARK  status: ('A' for Active; 'I' for Inactive)
REMARK    1  A    between atoms: C_2  and  C_4
REMARK    2  A    between atoms: N_8  and  C_9
REMARK    3  A    between atoms: C_9  and  C_10
REMARK    4  A    between atoms: C_10  and  C_11
REMARK    5  A    between atoms: C_15  and  C_16
REMARK    6  A    between atoms: C_19  and  S_20
REMARK    7  A    between atoms: S_20  and  N_21
REMARK                            x       y       z     vdW  Elec       q    Type
REMARK                         _______ _______ _______ _____ _____    ______ ____
ROOT
ATOM      1  C   UNL     1       5.831   7.694   3.287  0.00  0.00    +0.000 A 
ATOM      2  C   UNL     1       5.564   7.203   4.573  0.00  0.00    +0.000 A 
ATOM      3  C   UNL     1       5.393   8.069   5.647  0.00  0.00    +0.000 A 
ATOM      4  C   UNL     1       5.505   9.442   5.455  0.00  0.00    +0.000 A 
ATOM      5  C   UNL     1       5.809   9.981   4.193  0.00  0.00    +0.000 A 
ATOM      6  C   UNL     1       5.932   9.086   3.112  0.00  0.00    +0.000 A 
ENDROOT
BRANCH   5   7
ATOM      7  C   UNL     1       6.092  11.423   4.037  0.00  0.00    +0.000 A 
ATOM      8  C   UNL     1       6.797  12.111   5.046  0.00  0.00    +0.000 A 
ATOM      9  C   UNL     1       7.165  13.447   4.901  0.00  0.00    +0.000 A 
ATOM     10  C   UNL     1       6.849  14.115   3.721  0.00  0.00    +0.000 A 
ATOM     11  C   UNL     1       6.118  13.478   2.716  0.00  0.00    +0.000 A 
ATOM     12  C   UNL     1       5.742  12.140   2.879  0.00  0.00    +0.000 A 
BRANCH  10  13
ATOM     13  S   UNL     1       7.414  15.771   3.495  0.00  0.00    +0.000 S 
ATOM     14  O   UNL     1       6.586  16.425   2.507  0.00  0.00    +0.000 OA
ATOM     15  O   UNL     1       7.699  16.362   4.784  0.00  0.00    +0.000 OA
BRANCH  13  16
ATOM     16  N   UNL     1       8.899  15.508   2.762  0.00  0.00    +0.000 NA
ATOM     17  H   UNL     1       8.901  15.897   1.820  0.00  0.00    +0.000 HD
ATOM     18  H   UNL     1       9.651  15.845   3.361  0.00  0.00    +0.000 HD
ENDBRANCH  13  16
ENDBRANCH  10  13
ENDBRANCH   5   7
BRANCH   1  19
ATOM     19  C   UNL     1       6.041   6.796   2.081  0.00  0.00    +0.000 C 
BRANCH  19  20
ATOM     20  C   UNL     1       6.089   5.304   2.415  0.00  0.00    +0.000 C 
BRANCH  20  25
ATOM     21  C   UNL     1       6.526   0.353   1.599  0.00  0.00    +0.000 A 
ATOM     22  C   UNL     1       5.746   1.038   2.522  0.00  0.00    +0.000 A 
ATOM     23  C   UNL     1       5.652   2.424   2.427  0.00  0.00    +0.000 A 
ATOM     24  C   UNL     1       6.358   3.105   1.435  0.00  0.00    +0.000 A 
ATOM     25  N   UNL     1       6.243   4.476   1.232  0.00  0.00    +0.000 N 
ATOM     26  N   UNL     1       7.155   2.455   0.567  0.00  0.00    +0.000 NA
ATOM     27  C   UNL     1       7.226   1.100   0.665  0.00  0.00    +0.000 A 
ATOM     28  H   UNL     1       6.980   4.742   0.583  0.00  0.00    +0.000 HD
BRANCH  21  30
ATOM     29  N   UNL     1       5.553  -1.818   2.077  0.00  0.00    +0.000 N 
ATOM     30  C   UNL     1       6.618  -1.120   1.575  0.00  0.00    +0.000 C 
ATOM     31  O   UNL     1       7.582  -1.692   1.088  0.00  0.00    +0.000 OA
ATOM     32  H   UNL     1       5.573  -2.822   1.943  0.00  0.00    +0.000 HD
ATOM     33  H   UNL     1       4.653  -1.391   2.244  0.00  0.00    +0.000 HD
ENDBRANCH  21  30
ENDBRANCH  20  25
ENDBRANCH  19  20
ENDBRANCH   1  19
TORSDOF 7
