REMARK  Name = 
REMARK  4 active torsions:
REMARK  status: ('A' for Active; 'I' for Inactive)
REMARK    1  A    between atoms: C_2  and  C_4
REMARK    2  A    between atoms: C_7  and  N_8
REMARK    3  A    between atoms: N_8  and  C_9
REMARK    4  A    between atoms: C_9  and  C_10
REMARK                            x       y       z     vdW  Elec       q    Type
REMARK                         _______ _______ _______ _____ _____    ______ ____
ROOT
ATOM      1  C   UNL     1       3.019   1.299  -0.320  0.00  0.00    +0.000 A 
ATOM      2  C   UNL     1       2.345   2.417  -0.821  0.00  0.00    +0.000 A 
ATOM      3  C   UNL     1       3.065   3.552  -1.217  0.00  0.00    +0.000 A 
ATOM      4  C   UNL     1       4.458   3.598  -1.096  0.00  0.00    +0.000 A 
ATOM      5  C   UNL     1       5.123   2.452  -0.641  0.00  0.00    +0.000 A 
ATOM      6  C   UNL     1       4.412   1.320  -0.230  0.00  0.00    +0.000 A 
ENDROOT
BRANCH   1   8
ATOM      7  N   UNL     1       1.082  -0.174  -0.427  0.00  0.00    +0.000 N 
ATOM      8  C   UNL     1       2.293   0.091   0.148  0.00  0.00    +0.000 C 
ATOM      9  O   UNL     1       2.770  -0.663   0.989  0.00  0.00    +0.000 OA
ATOM     10  H   UNL     1       0.653  -1.056  -0.176  0.00  0.00    +0.000 HD
ATOM     11  H   UNL     1       0.788   0.262  -1.289  0.00  0.00    +0.000 HD
ENDBRANCH   1   8
BRANCH   4  12
ATOM     12  N   UNL     1       5.234   4.699  -1.463  0.00  0.00    +0.000 N 
ATOM     13  H   UNL     1       5.675   4.550  -2.369  0.00  0.00    +0.000 HD
BRANCH  12  14
ATOM     14  C   UNL     1       4.650   6.030  -1.354  0.00  0.00    +0.000 C 
BRANCH  14  15
ATOM     15  C   UNL     1       5.743   7.035  -1.073  0.00  0.00    +0.000 A 
ATOM     16  C   UNL     1       6.552   6.889   0.067  0.00  0.00    +0.000 A 
ATOM     17  C   UNL     1       7.537   7.829   0.372  0.00  0.00    +0.000 A 
ATOM     18  C   UNL     1       7.725   8.931  -0.460  0.00  0.00    +0.000 A 
ATOM     19  C   UNL     1       6.926   9.085  -1.592  0.00  0.00    +0.000 A 
ATOM     20 CL   UNL     1       7.152  10.454  -2.612  0.00  0.00    +0.000 Cl
ATOM     21  C   UNL     1       5.938   8.148  -1.902  0.00  0.00    +0.000 A 
ENDBRANCH  14  15
ENDBRANCH  12  14
ENDBRANCH   4  12
TORSDOF 4
