REMARK  Name = 
REMARK  12 active torsions:
REMARK  status: ('A' for Active; 'I' for Inactive)
REMARK    1  A    between atoms: C_1  and  O_2
REMARK    2  A    between atoms: O_2  and  C_3
REMARK    3  A    between atoms: C_5  and  C_6
REMARK    4  A    between atoms: C_6  and  N_7
REMARK    5  A    between atoms: C_12  and  C_13
REMARK    6  A    between atoms: C_13  and  C_14
REMARK    7  A    between atoms: C_13  and  C_15
REMARK    8  A    between atoms: C_13  and  O_16
REMARK    9  A    between atoms: C_22  and  C_23
REMARK   10  A    between atoms: N_25  and  C_26
REMARK   11  A    between atoms: N_25  and  C_27
REMARK   12  A    between atoms: C_27  and  C_28
REMARK                            x       y       z     vdW  Elec       q    Type
REMARK                         _______ _______ _______ _____ _____    ______ ____
ROOT
ATOM      1  C   UNL     1       3.021  -1.013   2.401  0.00  0.00    +0.000 A 
ATOM      2  C   UNL     1       2.974  -2.424   2.378  0.00  0.00    +0.000 A 
ATOM      3  C   UNL     1       3.523  -3.163   1.329  0.00  0.00    +0.000 A 
ATOM      4  C   UNL     1       4.251  -2.482   0.355  0.00  0.00    +0.000 A 
ATOM      5  C   UNL     1       4.425  -1.094   0.443  0.00  0.00    +0.000 A 
ATOM      6  C   UNL     1       3.770  -0.321   1.418  0.00  0.00    +0.000 A 
ENDROOT
BRANCH   6   7
ATOM      7  C   UNL     1       3.956   1.183   1.445  0.00  0.00    +0.000 C 
ATOM      8  O   UNL     1       4.063   1.737   2.539  0.00  0.00    +0.000 OA
ATOM      9  N   UNL     1       4.048   1.953   0.259  0.00  0.00    +0.000 N 
ATOM     10  C   UNL     1       3.919   1.453  -1.101  0.00  0.00    +0.000 C 
BRANCH   9  11
ATOM     11  C   UNL     1       4.431   3.380   0.378  0.00  0.00    +0.000 C 
BRANCH  11  12
ATOM     12  C   UNL     1       5.933   3.605   0.314  0.00  0.00    +0.000 C 
ATOM     13  N   UNL     1       7.178   3.792   0.260  0.00  0.00    +0.000 NA
ENDBRANCH  11  12
ENDBRANCH   9  11
ENDBRANCH   6   7
BRANCH   1  15
ATOM     14  C   UNL     1       1.113  -0.872   3.801  0.00  0.00    +0.000 C 
ATOM     15  O   UNL     1       2.372  -0.324   3.399  0.00  0.00    +0.000 OA
ENDBRANCH   1  15
BRANCH   3  16
ATOM     16  C   UNL     1       3.252  -4.646   1.223  0.00  0.00    +0.000 C 
BRANCH  16  17
ATOM     17  N   UNL     1       1.943  -4.879   0.634  0.00  0.00    +0.000 N 
ATOM     18  C   UNL     1       0.769  -5.070   1.331  0.00  0.00    +0.000 A 
ATOM     19  C   UNL     1      -0.257  -5.168   0.416  0.00  0.00    +0.000 A 
ATOM     20  C   UNL     1       0.313  -5.051  -0.881  0.00  0.00    +0.000 A 
ATOM     21  C   UNL     1      -0.181  -5.057  -2.194  0.00  0.00    +0.000 A 
ATOM     22  C   UNL     1       0.719  -4.889  -3.261  0.00  0.00    +0.000 A 
ATOM     23  C   UNL     1       2.068  -4.731  -2.931  0.00  0.00    +0.000 A 
ATOM     24  N   UNL     1       2.604  -4.735  -1.686  0.00  0.00    +0.000 NA
ATOM     25  C   UNL     1       1.684  -4.888  -0.715  0.00  0.00    +0.000 A 
BRANCH  22  26
ATOM     26  C   UNL     1       0.232  -4.873  -4.701  0.00  0.00    +0.000 C 
ATOM     27  C   UNL     1      -0.459  -6.193  -5.070  0.00  0.00    +0.000 C 
ATOM     28  C   UNL     1      -0.718  -3.694  -4.945  0.00  0.00    +0.000 C 
BRANCH  26  29
ATOM     29  O   UNL     1       1.332  -4.689  -5.601  0.00  0.00    +0.000 OA
ATOM     30  H   UNL     1       1.761  -5.553  -5.728  0.00  0.00    +0.000 HD
ENDBRANCH  26  29
ENDBRANCH  22  26
ENDBRANCH  16  17
ENDBRANCH   3  16
TORSDOF 8
