REMARK  Name = 
REMARK  5 active torsions:
REMARK  status: ('A' for Active; 'I' for Inactive)
REMARK    1  A    between atoms: C_2  and  C_4
REMARK    2  A    between atoms: N_8  and  C_9
REMARK    3  A    between atoms: C_9  and  C_10
REMARK    4  A    between atoms: C_14  and  C_15
REMARK    5  A    between atoms: C_19  and  C_20
REMARK                            x       y       z     vdW  Elec       q    Type
REMARK                         _______ _______ _______ _____ _____    ______ ____
ROOT
ATOM      1  C   UNL     1       4.666   5.867  -1.793  0.00  0.00    +0.000 C 
ATOM      2  C   UNL     1       3.570   4.812  -1.831  0.00  0.00    +0.000 C 
ATOM      3  C   UNL     1       4.986   4.380  -1.665  0.00  0.00    +0.000 C 
ENDROOT
BRANCH   1   8
ATOM      4  C   UNL     1       1.970   9.386   0.935  0.00  0.00    +0.000 A 
ATOM      5  C   UNL     1       1.623   8.659  -0.196  0.00  0.00    +0.000 A 
ATOM      6  C   UNL     1       2.555   7.778  -0.751  0.00  0.00    +0.000 A 
ATOM      7  C   UNL     1       3.817   7.643  -0.177  0.00  0.00    +0.000 A 
ATOM      8  N   UNL     1       4.767   6.720  -0.613  0.00  0.00    +0.000 N 
ATOM      9  N   UNL     1       4.176   8.384   0.895  0.00  0.00    +0.000 NA
ATOM     10  C   UNL     1       3.258   9.240   1.421  0.00  0.00    +0.000 A 
ATOM     11  H   UNL     1       5.644   6.855  -0.125  0.00  0.00    +0.000 HD
BRANCH   4  13
ATOM     12  N   UNL     1      -0.303  10.009   1.521  0.00  0.00    +0.000 N 
ATOM     13  C   UNL     1       1.035  10.288   1.630  0.00  0.00    +0.000 C 
ATOM     14  O   UNL     1       1.429  11.222   2.318  0.00  0.00    +0.000 OA
ATOM     15  H   UNL     1      -0.929  10.560   2.096  0.00  0.00    +0.000 HD
ATOM     16  H   UNL     1      -0.645   9.119   1.186  0.00  0.00    +0.000 HD
ENDBRANCH   4  13
ENDBRANCH   1   8
BRANCH   1  17
ATOM     17  C   UNL     1       5.183   6.492  -3.082  0.00  0.00    +0.000 A 
ATOM     18  C   UNL     1       6.558   6.571  -3.353  0.00  0.00    +0.000 A 
ATOM     19  C   UNL     1       7.027   7.017  -4.587  0.00  0.00    +0.000 A 
ATOM     20  C   UNL     1       6.122   7.391  -5.581  0.00  0.00    +0.000 A 
ATOM     21  C   UNL     1       4.737   7.335  -5.361  0.00  0.00    +0.000 A 
ATOM     22  C   UNL     1       4.302   6.916  -4.090  0.00  0.00    +0.000 A 
BRANCH  21  23
ATOM     23  C   UNL     1       3.754   7.579  -6.442  0.00  0.00    +0.000 A 
ATOM     24  C   UNL     1       4.021   7.182  -7.762  0.00  0.00    +0.000 A 
ATOM     25  C   UNL     1       3.059   7.298  -8.768  0.00  0.00    +0.000 A 
ATOM     26  C   UNL     1       1.792   7.790  -8.470  0.00  0.00    +0.000 A 
ATOM     27  C   UNL     1       1.483   8.191  -7.165  0.00  0.00    +0.000 A 
ATOM     28  C   UNL     1       2.478   8.111  -6.173  0.00  0.00    +0.000 A 
BRANCH  27  29
ATOM     29  C   UNL     1       0.095   8.651  -6.797  0.00  0.00    +0.000 C 
ATOM     30  F   UNL     1      -0.786   8.619  -7.835  0.00  0.00    +0.000 F 
ATOM     31  F   UNL     1      -0.459   7.880  -5.818  0.00  0.00    +0.000 F 
ATOM     32  F   UNL     1       0.071   9.926  -6.322  0.00  0.00    +0.000 F 
ENDBRANCH  27  29
ENDBRANCH  21  23
ENDBRANCH   1  17
TORSDOF 5
