REMARK  Name = 
REMARK  7 active torsions:
REMARK  status: ('A' for Active; 'I' for Inactive)
REMARK    1  A    between atoms: C_2  and  C_19
REMARK    2  A    between atoms: N_3  and  C_4
REMARK    3  A    between atoms: C_4  and  C_5
REMARK    4  A    between atoms: C_8  and  C_9
REMARK    5  A    between atoms: C_9  and  N_10
REMARK    6  A    between atoms: N_10  and  C_11
REMARK    7  A    between atoms: C_11  and  C_12
REMARK                            x       y       z     vdW  Elec       q    Type
REMARK                         _______ _______ _______ _____ _____    ______ ____
ROOT
ATOM      1  C   UNL     1       2.269   2.408   0.838  0.00  0.00    +0.000 C 
ENDROOT
BRANCH   1   2
ATOM      2  C   UNL     1       3.208   3.539   1.179  0.00  0.00    +0.000 A 
ATOM      3  C   UNL     1       2.793   4.858   1.022  0.00  0.00    +0.000 A 
ATOM      4  C   UNL     1       3.672   5.885   1.350  0.00  0.00    +0.000 A 
ATOM      5  C   UNL     1       4.948   5.578   1.822  0.00  0.00    +0.000 A 
ATOM      6  C   UNL     1       5.282   4.232   1.934  0.00  0.00    +0.000 A 
ATOM      7  N   UNL     1       4.451   3.212   1.619  0.00  0.00    +0.000 NA
BRANCH   5   8
ATOM      8  C   UNL     1       5.934   6.655   2.179  0.00  0.00    +0.000 C 
BRANCH   8   9
ATOM      9  N   UNL     1       5.444   7.481   3.287  0.00  0.00    +0.000 NA
ATOM     10  H   UNL     1       5.353   6.872   4.105  0.00  0.00    +0.000 HD
BRANCH   9  11
ATOM     11  C   UNL     1       6.405   8.529   3.650  0.00  0.00    +0.000 C 
BRANCH  11  12
ATOM     12  C   UNL     1       7.688   7.974   4.188  0.00  0.00    +0.000 A 
ATOM     13  N   UNL     1       7.853   6.832   4.830  0.00  0.00    +0.000 NA
ATOM     14  C   UNL     1       9.200   6.718   5.047  0.00  0.00    +0.000 A 
ATOM     15  C   UNL     1       9.866   7.810   4.547  0.00  0.00    +0.000 A 
ATOM     16  N   UNL     1       8.893   8.607   4.011  0.00  0.00    +0.000 N 
ATOM     17  H   UNL     1       9.034   9.492   3.542  0.00  0.00    +0.000 HD
ENDBRANCH  11  12
ENDBRANCH   9  11
ENDBRANCH   8   9
ENDBRANCH   5   8
ENDBRANCH   1   2
BRANCH   1  20
ATOM     18  O   UNL     1       0.781   3.523  -1.293  0.00  0.00    +0.000 OA
ATOM     19  C   UNL     1       1.553   2.594  -1.520  0.00  0.00    +0.000 C 
ATOM     20  N   UNL     1       2.339   2.033  -0.554  0.00  0.00    +0.000 N 
ATOM     21  H   UNL     1       2.943   1.250  -0.770  0.00  0.00    +0.000 HD
BRANCH  19  22
ATOM     22  C   UNL     1       1.713   2.042  -2.869  0.00  0.00    +0.000 A 
ATOM     23  C   UNL     1       1.422   2.817  -3.983  0.00  0.00    +0.000 A 
ATOM     24  S   UNL     1       1.698   2.012  -5.461  0.00  0.00    +0.000 S 
ATOM     25  C   UNL     1       2.176   0.586  -4.664  0.00  0.00    +0.000 A 
ATOM     26  N   UNL     1       2.543  -0.519  -5.364  0.00  0.00    +0.000 NA
ATOM     27  C   UNL     1       2.852  -1.535  -4.629  0.00  0.00    +0.000 A 
ATOM     28  N   UNL     1       2.820  -1.549  -3.258  0.00  0.00    +0.000 N 
ATOM     29  C   UNL     1       2.478  -0.451  -2.508  0.00  0.00    +0.000 A 
ATOM     30  O   UNL     1       2.503  -0.489  -1.283  0.00  0.00    +0.000 OA
ATOM     31  C   UNL     1       2.127   0.723  -3.288  0.00  0.00    +0.000 A 
ATOM     32  H   UNL     1       3.078  -2.376  -2.741  0.00  0.00    +0.000 HD
ENDBRANCH  19  22
ENDBRANCH   1  20
TORSDOF 7
