REMARK  Name = 
REMARK  8 active torsions:
REMARK  status: ('A' for Active; 'I' for Inactive)
REMARK    1  A    between atoms: C_1  and  O_2
REMARK    2  A    between atoms: O_2  and  C_3
REMARK    3  A    between atoms: C_10  and  C_11
REMARK    4  A    between atoms: N_13  and  C_14
REMARK    5  A    between atoms: C_14  and  C_15
REMARK    6  A    between atoms: C_18  and  C_19
REMARK    7  A    between atoms: C_19  and  N_20
REMARK    8  A    between atoms: N_20  and  C_21
REMARK                            x       y       z     vdW  Elec       q    Type
REMARK                         _______ _______ _______ _____ _____    ______ ____
ROOT
ATOM      1  C   UNL     1       2.809   1.334   3.024  0.00  0.00    +0.000 C 
ENDROOT
BRANCH   1   2
ATOM      2  C   UNL     1       1.726   2.243   2.501  0.00  0.00    +0.000 A 
ATOM      3  C   UNL     1       0.470   1.736   2.142  0.00  0.00    +0.000 A 
ATOM      4  C   UNL     1      -0.506   2.574   1.586  0.00  0.00    +0.000 A 
ATOM      5  C   UNL     1      -0.243   3.935   1.370  0.00  0.00    +0.000 A 
ATOM      6  C   UNL     1       1.007   4.442   1.751  0.00  0.00    +0.000 A 
ATOM      7  C   UNL     1       1.980   3.606   2.307  0.00  0.00    +0.000 A 
BRANCH   5   8
ATOM      8  C   UNL     1      -1.236   4.821   0.646  0.00  0.00    +0.000 C 
BRANCH   8   9
ATOM      9  N   UNL     1      -2.527   4.921   1.328  0.00  0.00    +0.000 NA
ATOM     10  H   UNL     1      -2.358   5.191   2.298  0.00  0.00    +0.000 HD
BRANCH   9  11
ATOM     11  C   UNL     1      -3.434   5.905   0.700  0.00  0.00    +0.000 C 
ATOM     12  C   UNL     1      -4.739   5.974   1.508  0.00  0.00    +0.000 C 
ATOM     13  C   UNL     1      -5.749   6.899   0.837  0.00  0.00    +0.000 C 
ATOM     14  O   UNL     1      -5.995   6.499  -0.509  0.00  0.00    +0.000 OA
ATOM     15  C   UNL     1      -4.816   6.545  -1.306  0.00  0.00    +0.000 C 
ATOM     16  C   UNL     1      -3.759   5.588  -0.768  0.00  0.00    +0.000 C 
ENDBRANCH   9  11
ENDBRANCH   8   9
ENDBRANCH   5   8
ENDBRANCH   1   2
BRANCH   1  19
ATOM     17  C   UNL     1       4.642  -0.059   2.175  0.00  0.00    +0.000 C 
ATOM     18  O   UNL     1       4.925  -0.415   3.318  0.00  0.00    +0.000 OA
ATOM     19  N   UNL     1       3.611   0.811   1.945  0.00  0.00    +0.000 N 
ATOM     20  H   UNL     1       3.414   1.134   1.006  0.00  0.00    +0.000 HD
BRANCH  17  28
ATOM     21  C   UNL     1       4.331   0.358  -1.237  0.00  0.00    +0.000 A 
ATOM     22  N   UNL     1       4.454   0.354  -2.580  0.00  0.00    +0.000 NA
ATOM     23  C   UNL     1       5.452  -0.351  -3.121  0.00  0.00    +0.000 A 
ATOM     24  N   UNL     1       6.363  -1.070  -2.474  0.00  0.00    +0.000 NA
ATOM     25  C   UNL     1       6.211  -1.033  -1.140  0.00  0.00    +0.000 A 
ATOM     26  S   UNL     1       7.287  -1.902  -0.156  0.00  0.00    +0.000 S 
ATOM     27  C   UNL     1       6.490  -1.387   1.251  0.00  0.00    +0.000 A 
ATOM     28  C   UNL     1       5.404  -0.551   1.015  0.00  0.00    +0.000 A 
ATOM     29  C   UNL     1       5.236  -0.344  -0.422  0.00  0.00    +0.000 A 
BRANCH  21  31
ATOM     30  C   UNL     1       2.201   1.260  -1.557  0.00  0.00    +0.000 C 
ATOM     31  O   UNL     1       3.322   1.119  -0.684  0.00  0.00    +0.000 OA
ENDBRANCH  21  31
ENDBRANCH  17  28
ENDBRANCH   1  19
TORSDOF 7
