REMARK  Name = 
REMARK  5 active torsions:
REMARK  status: ('A' for Active; 'I' for Inactive)
REMARK    1  A    between atoms: C_2  and  C_4
REMARK    2  A    between atoms: C_7  and  O_8
REMARK    3  A    between atoms: O_8  and  C_9
REMARK    4  A    between atoms: C_9  and  C_10
REMARK    5  A    between atoms: C_14  and  N_15
REMARK                            x       y       z     vdW  Elec       q    Type
REMARK                         _______ _______ _______ _____ _____    ______ ____
ROOT
ATOM      1  C   UNL     1       5.071   5.801   0.323  0.00  0.00    +0.000 C 
ENDROOT
BRANCH   1   2
ATOM      2  C   UNL     1       6.016   6.961   0.096  0.00  0.00    +0.000 A 
ATOM      3  C   UNL     1       5.500   8.264   0.112  0.00  0.00    +0.000 A 
ATOM      4  C   UNL     1       6.353   9.358   0.032  0.00  0.00    +0.000 A 
ATOM      5  C   UNL     1       7.732   9.159  -0.031  0.00  0.00    +0.000 A 
ATOM      6  C   UNL     1       8.296   7.875  -0.022  0.00  0.00    +0.000 A 
ATOM      7  C   UNL     1       7.408   6.785   0.020  0.00  0.00    +0.000 A 
BRANCH   6   8
ATOM      8  N   UNL     1       9.666   7.688  -0.008  0.00  0.00    +0.000 N 
ATOM      9  C   UNL     1      10.563   8.620   0.675  0.00  0.00    +0.000 C 
ATOM     10  C   UNL     1      11.481   9.299  -0.337  0.00  0.00    +0.000 C 
ATOM     11  C   UNL     1      12.206   8.265  -1.198  0.00  0.00    +0.000 C 
ATOM     12  C   UNL     1      11.216   7.299  -1.849  0.00  0.00    +0.000 C 
ATOM     13  C   UNL     1      10.299   6.646  -0.813  0.00  0.00    +0.000 C 
ENDBRANCH   6   8
ENDBRANCH   1   2
BRANCH   1  14
ATOM     14  O   UNL     1       5.463   4.607  -0.367  0.00  0.00    +0.000 OA
BRANCH  14  18
ATOM     15  C   UNL     1       2.823   1.512   0.343  0.00  0.00    +0.000 A 
ATOM     16  C   UNL     1       3.930   1.299  -0.483  0.00  0.00    +0.000 A 
ATOM     17  C   UNL     1       4.819   2.352  -0.722  0.00  0.00    +0.000 A 
ATOM     18  C   UNL     1       4.569   3.579  -0.121  0.00  0.00    +0.000 A 
ATOM     19  N   UNL     1       3.504   3.805   0.678  0.00  0.00    +0.000 NA
ATOM     20  C   UNL     1       2.650   2.776   0.884  0.00  0.00    +0.000 A 
BRANCH  15  22
ATOM     21  N   UNL     1       2.231  -0.825   0.640  0.00  0.00    +0.000 N 
ATOM     22  C   UNL     1       1.818   0.477   0.657  0.00  0.00    +0.000 C 
ATOM     23  O   UNL     1       0.671   0.772   0.965  0.00  0.00    +0.000 OA
ATOM     24  H   UNL     1       1.560  -1.509   0.971  0.00  0.00    +0.000 HD
ATOM     25  H   UNL     1       3.207  -1.085   0.656  0.00  0.00    +0.000 HD
ENDBRANCH  15  22
ENDBRANCH  14  18
ENDBRANCH   1  14
TORSDOF 5
