REMARK  Name = 
REMARK  7 active torsions:
REMARK  status: ('A' for Active; 'I' for Inactive)
REMARK    1  A    between atoms: N_1  and  C_2
REMARK    2  A    between atoms: C_2  and  C_3
REMARK    3  A    between atoms: C_6  and  O_7
REMARK    4  A    between atoms: O_7  and  C_8
REMARK    5  A    between atoms: C_8  and  C_9
REMARK    6  A    between atoms: C_9  and  C_12
REMARK    7  A    between atoms: C_15  and  C_16
REMARK                            x       y       z     vdW  Elec       q    Type
REMARK                         _______ _______ _______ _____ _____    ______ ____
ROOT
ATOM      1  C   UNL     1       4.363   3.274  -7.028  0.00  0.00    +0.000 C 
ATOM      2  F   UNL     1       3.508   2.602  -7.854  0.00  0.00    +0.000 F 
ATOM      3  F   UNL     1       4.140   4.600  -7.299  0.00  0.00    +0.000 F 
ENDROOT
BRANCH   1   4
ATOM      4  C   UNL     1       5.812   2.903  -7.266  0.00  0.00    +0.000 A 
ATOM      5  C   UNL     1       6.162   1.617  -7.702  0.00  0.00    +0.000 A 
ATOM      6  C   UNL     1       7.504   1.272  -7.899  0.00  0.00    +0.000 A 
ATOM      7  C   UNL     1       8.519   2.212  -7.665  0.00  0.00    +0.000 A 
ATOM      8  C   UNL     1       8.164   3.491  -7.240  0.00  0.00    +0.000 A 
ATOM      9  F   UNL     1       9.093   4.432  -7.006  0.00  0.00    +0.000 F 
ATOM     10  C   UNL     1       6.830   3.840  -7.039  0.00  0.00    +0.000 A 
BRANCH   7  11
ATOM     11  C   UNL     1       9.934   1.806  -7.874  0.00  0.00    +0.000 C 
ATOM     12  N   UNL     1      10.905   2.740  -7.650  0.00  0.00    +0.000 N 
ATOM     13  O   UNL     1      10.226   0.672  -8.232  0.00  0.00    +0.000 OA
ATOM     14  H   UNL     1      10.708   3.688  -7.355  0.00  0.00    +0.000 HD
ATOM     15  H   UNL     1      11.871   2.467  -7.789  0.00  0.00    +0.000 HD
ENDBRANCH   7  11
ENDBRANCH   1   4
BRANCH   1  16
ATOM     16  C   UNL     1       3.933   3.039  -5.573  0.00  0.00    +0.000 C 
BRANCH  16  17
ATOM     17  O   UNL     1       4.020   1.656  -5.205  0.00  0.00    +0.000 OA
BRANCH  17  21
ATOM     18  C   UNL     1       2.824   0.426  -1.457  0.00  0.00    +0.000 A 
ATOM     19  C   UNL     1       2.783   1.792  -1.722  0.00  0.00    +0.000 A 
ATOM     20  C   UNL     1       3.183   2.255  -2.973  0.00  0.00    +0.000 A 
ATOM     21  C   UNL     1       3.624   1.350  -3.933  0.00  0.00    +0.000 A 
ATOM     22  C   UNL     1       3.657   0.007  -3.573  0.00  0.00    +0.000 A 
ATOM     23  N   UNL     1       3.267  -0.476  -2.367  0.00  0.00    +0.000 NA
BRANCH  18  24
ATOM     24  C   UNL     1       2.295  -0.098  -0.139  0.00  0.00    +0.000 C 
BRANCH  24  25
ATOM     25  N   UNL     1       0.866   0.192   0.028  0.00  0.00    +0.000 NA
ATOM     26  H   UNL     1       0.531  -0.282   0.864  0.00  0.00    +0.000 HD
ATOM     27  H   UNL     1       0.372  -0.239  -0.756  0.00  0.00    +0.000 HD
ENDBRANCH  24  25
ENDBRANCH  18  24
ENDBRANCH  17  21
ENDBRANCH  16  17
ENDBRANCH   1  16
TORSDOF 7
