REMARK  Name = 
REMARK  2 active torsions:
REMARK  status: ('A' for Active; 'I' for Inactive)
REMARK    1  A    between atoms: C_7  and  C_8
REMARK    2  A    between atoms: C_8  and  N_9
REMARK                            x       y       z     vdW  Elec       q    Type
REMARK                         _______ _______ _______ _____ _____    ______ ____
ROOT
ATOM      1  N   UNL     1       1.053   0.395  -0.260  0.00  0.00    +0.000 NA
ATOM      2  C   UNL     1       2.285   0.053  -0.123  0.00  0.00    +0.000 C 
ATOM      3  N   UNL     1       2.815  -0.153   1.103  0.00  0.00    +0.000 N 
ATOM      4  N   UNL     1       3.164  -0.080  -1.164  0.00  0.00    +0.000 N 
ATOM      5  C   UNL     1       4.282  -1.026  -1.140  0.00  0.00    +0.000 C 
ATOM      6  C   UNL     1       5.484  -0.358  -1.795  0.00  0.00    +0.000 C 
ATOM      7  C   UNL     1       5.188   0.033  -3.253  0.00  0.00    +0.000 C 
ATOM      8  C   UNL     1       3.911   0.894  -3.296  0.00  0.00    +0.000 C 
ATOM      9  C   UNL     1       2.735   0.287  -2.521  0.00  0.00    +0.000 C 
ATOM     10  H   UNL     1       0.606   0.424   0.656  0.00  0.00    +0.000 HD
ATOM     11  H   UNL     1       2.261   0.202   1.870  0.00  0.00    +0.000 HD
ATOM     12  H   UNL     1       3.769   0.181   1.170  0.00  0.00    +0.000 HD
ENDROOT
BRANCH   7  13
ATOM     13  C   UNL     1       5.084  -1.182  -4.204  0.00  0.00    +0.000 C 
BRANCH  13  14
ATOM     14  N   UNL     1       6.284  -2.011  -4.228  0.00  0.00    +0.000 N 
ATOM     15  C   UNL     1       7.520  -1.555  -4.624  0.00  0.00    +0.000 A 
ATOM     16  C   UNL     1       8.438  -2.557  -4.398  0.00  0.00    +0.000 A 
ATOM     17  C   UNL     1       7.731  -3.670  -3.892  0.00  0.00    +0.000 A 
ATOM     18  N   UNL     1       8.219  -4.879  -3.523  0.00  0.00    +0.000 NA
ATOM     19  C   UNL     1       7.289  -5.763  -3.110  0.00  0.00    +0.000 A 
ATOM     20  C   UNL     1       5.924  -5.528  -3.057  0.00  0.00    +0.000 A 
ATOM     21  C   UNL     1       5.430  -4.278  -3.427  0.00  0.00    +0.000 A 
ATOM     22  C   UNL     1       6.377  -3.332  -3.836  0.00  0.00    +0.000 A 
ENDBRANCH  13  14
ENDBRANCH   7  13
TORSDOF 2
