REMARK  Name = 
REMARK  5 active torsions:
REMARK  status: ('A' for Active; 'I' for Inactive)
REMARK    1  A    between atoms: C_1  and  C_2
REMARK    2  A    between atoms: C_2  and  O_3
REMARK    3  A    between atoms: C_2  and  C_13
REMARK    4  A    between atoms: O_3  and  C_4
REMARK    5  A    between atoms: C_7  and  C_8
REMARK                            x       y       z     vdW  Elec       q    Type
REMARK                         _______ _______ _______ _____ _____    ______ ____
ROOT
ATOM      1  C   UNL     1       2.574  -1.519  -1.847  0.00  0.00    +0.000 A 
ATOM      2  C   UNL     1       2.309  -1.520  -3.218  0.00  0.00    +0.000 A 
ATOM      3  C   UNL     1       1.989  -2.711  -3.879  0.00  0.00    +0.000 A 
ATOM      4  C   UNL     1       1.963  -3.918  -3.174  0.00  0.00    +0.000 A 
ATOM      5  C   UNL     1       2.274  -3.926  -1.810  0.00  0.00    +0.000 A 
ATOM      6  C   UNL     1       2.587  -2.729  -1.152  0.00  0.00    +0.000 A 
ENDROOT
BRANCH   4   7
ATOM      7  C   UNL     1       1.555  -5.151  -3.902  0.00  0.00    +0.000 C 
ATOM      8  N   UNL     1       1.986  -6.350  -3.405  0.00  0.00    +0.000 N 
ATOM      9  O   UNL     1       0.879  -5.103  -4.920  0.00  0.00    +0.000 OA
ATOM     10  H   UNL     1       2.730  -6.427  -2.728  0.00  0.00    +0.000 HD
ATOM     11  H   UNL     1       1.774  -7.165  -3.967  0.00  0.00    +0.000 HD
ENDBRANCH   4   7
BRANCH   1  12
ATOM     12  O   UNL     1       2.808  -0.287  -1.300  0.00  0.00    +0.000 OA
BRANCH  12  14
ATOM     13  C   UNL     1       0.948  -0.149   0.278  0.00  0.00    +0.000 C 
ATOM     14  C   UNL     1       2.467  -0.080   0.081  0.00  0.00    +0.000 C 
BRANCH  14  15
ATOM     15  C   UNL     1       3.025   1.302   0.533  0.00  0.00    +0.000 C 
ATOM     16  C   UNL     1       2.431   2.482  -0.261  0.00  0.00    +0.000 C 
ATOM     17  C   UNL     1       3.044   3.820   0.147  0.00  0.00    +0.000 C 
ATOM     18  C   UNL     1       4.562   3.798   0.025  0.00  0.00    +0.000 C 
ATOM     19  C   UNL     1       5.156   2.666   0.854  0.00  0.00    +0.000 C 
ATOM     20  C   UNL     1       4.565   1.314   0.457  0.00  0.00    +0.000 C 
ENDBRANCH  14  15
ENDBRANCH  12  14
ENDBRANCH   1  12
TORSDOF 4
