REMARK  Name = 
REMARK  5 active torsions:
REMARK  status: ('A' for Active; 'I' for Inactive)
REMARK    1  A    between atoms: C_2  and  C_4
REMARK    2  A    between atoms: C_7  and  N_8
REMARK    3  A    between atoms: N_8  and  C_9
REMARK    4  A    between atoms: C_9  and  C_10
REMARK    5  A    between atoms: C_14  and  N_15
REMARK                            x       y       z     vdW  Elec       q    Type
REMARK                         _______ _______ _______ _____ _____    ______ ____
ROOT
ATOM      1  N   UNL     1       4.775   1.990   5.010  0.00  0.00    +0.000 N 
ATOM      2  H   UNL     1       5.583   2.113   4.402  0.00  0.00    +0.000 HD
ENDROOT
BRANCH   1   6
ATOM      3  C   UNL     1       1.185   2.276   2.928  0.00  0.00    +0.000 A 
ATOM      4  C   UNL     1       1.151   1.719   4.194  0.00  0.00    +0.000 A 
ATOM      5  C   UNL     1       2.351   1.588   4.895  0.00  0.00    +0.000 A 
ATOM      6  C   UNL     1       3.561   1.989   4.323  0.00  0.00    +0.000 A 
ATOM      7  C   UNL     1       3.464   2.570   3.050  0.00  0.00    +0.000 A 
ATOM      8  N   UNL     1       2.324   2.709   2.325  0.00  0.00    +0.000 NA
BRANCH   3  10
ATOM      9  N   UNL     1       0.031   2.958   0.905  0.00  0.00    +0.000 N 
ATOM     10  C   UNL     1      -0.094   2.449   2.168  0.00  0.00    +0.000 C 
ATOM     11  O   UNL     1      -1.186   2.154   2.639  0.00  0.00    +0.000 OA
ATOM     12  H   UNL     1      -0.795   3.102   0.344  0.00  0.00    +0.000 HD
ATOM     13  H   UNL     1       0.950   3.192   0.547  0.00  0.00    +0.000 HD
ENDBRANCH   3  10
ENDBRANCH   1   6
BRANCH   1  14
ATOM     14  C   UNL     1       5.044   1.020   6.069  0.00  0.00    +0.000 C 
BRANCH  14  15
ATOM     15  C   UNL     1       6.029   1.569   7.066  0.00  0.00    +0.000 A 
ATOM     16  C   UNL     1       6.869   0.707   7.757  0.00  0.00    +0.000 A 
ATOM     17  N   UNL     1       7.734   1.104   8.710  0.00  0.00    +0.000 NA
ATOM     18  C   UNL     1       7.749   2.431   8.992  0.00  0.00    +0.000 A 
ATOM     19  C   UNL     1       6.956   3.413   8.387  0.00  0.00    +0.000 A 
ATOM     20  C   UNL     1       6.072   2.930   7.418  0.00  0.00    +0.000 A 
BRANCH  19  21
ATOM     21  N   UNL     1       7.041   4.746   8.720  0.00  0.00    +0.000 N 
ATOM     22  C   UNL     1       5.916   5.689   8.633  0.00  0.00    +0.000 C 
ATOM     23  C   UNL     1       6.271   6.862   7.706  0.00  0.00    +0.000 C 
ATOM     24  O   UNL     1       7.501   7.495   8.098  0.00  0.00    +0.000 OA
ATOM     25  C   UNL     1       8.581   6.546   8.067  0.00  0.00    +0.000 C 
ATOM     26  C   UNL     1       8.334   5.375   9.033  0.00  0.00    +0.000 C 
ENDBRANCH  19  21
ENDBRANCH  14  15
ENDBRANCH   1  14
TORSDOF 5
