REMARK  Name = 
REMARK  5 active torsions:
REMARK  status: ('A' for Active; 'I' for Inactive)
REMARK    1  A    between atoms: C_2  and  C_4
REMARK    2  A    between atoms: N_8  and  C_9
REMARK    3  A    between atoms: C_9  and  C_10
REMARK    4  A    between atoms: C_13  and  O_14
REMARK    5  A    between atoms: O_14  and  C_15
REMARK                            x       y       z     vdW  Elec       q    Type
REMARK                         _______ _______ _______ _____ _____    ______ ____
ROOT
ATOM      1  C   UNL     1       4.670   5.566  -2.401  0.00  0.00    +0.000 C 
ATOM      2  C   UNL     1       4.979   6.336  -1.122  0.00  0.00    +0.000 C 
ATOM      3  C   UNL     1       3.602   6.373  -1.678  0.00  0.00    +0.000 C 
ENDROOT
BRANCH   1   8
ATOM      4  C   UNL     1       2.541   0.840  -3.215  0.00  0.00    +0.000 A 
ATOM      5  C   UNL     1       1.976   2.104  -3.359  0.00  0.00    +0.000 A 
ATOM      6  C   UNL     1       2.730   3.232  -3.035  0.00  0.00    +0.000 A 
ATOM      7  C   UNL     1       4.037   3.081  -2.596  0.00  0.00    +0.000 A 
ATOM      8  N   UNL     1       4.873   4.132  -2.250  0.00  0.00    +0.000 N 
ATOM      9  N   UNL     1       4.592   1.859  -2.440  0.00  0.00    +0.000 NA
ATOM     10  C   UNL     1       3.837   0.768  -2.731  0.00  0.00    +0.000 A 
ATOM     11  H   UNL     1       5.797   3.770  -2.040  0.00  0.00    +0.000 HD
BRANCH   4  13
ATOM     12  N   UNL     1       0.853  -0.339  -4.492  0.00  0.00    +0.000 N 
ATOM     13  C   UNL     1       1.819  -0.412  -3.522  0.00  0.00    +0.000 C 
ATOM     14  O   UNL     1       2.103  -1.466  -2.969  0.00  0.00    +0.000 OA
ATOM     15  H   UNL     1       0.451  -1.228  -4.771  0.00  0.00    +0.000 HD
ATOM     16  H   UNL     1       0.786   0.425  -5.138  0.00  0.00    +0.000 HD
ENDBRANCH   4  13
ENDBRANCH   1   8
BRANCH   1  17
ATOM     17  C   UNL     1       5.060   6.142  -3.759  0.00  0.00    +0.000 A 
ATOM     18  C   UNL     1       4.137   6.148  -4.820  0.00  0.00    +0.000 A 
ATOM     19  C   UNL     1       4.384   6.831  -6.014  0.00  0.00    +0.000 A 
ATOM     20  C   UNL     1       5.555   7.561  -6.160  0.00  0.00    +0.000 A 
ATOM     21  C   UNL     1       6.536   7.472  -5.171  0.00  0.00    +0.000 A 
ATOM     22  C   UNL     1       6.294   6.766  -3.987  0.00  0.00    +0.000 A 
BRANCH  20  23
ATOM     23  O   UNL     1       5.865   8.350  -7.224  0.00  0.00    +0.000 OA
BRANCH  23  24
ATOM     24  C   UNL     1       4.815   9.057  -7.880  0.00  0.00    +0.000 C 
ATOM     25  F   UNL     1       3.611   8.965  -7.278  0.00  0.00    +0.000 F 
ATOM     26  F   UNL     1       5.146  10.368  -7.933  0.00  0.00    +0.000 F 
ATOM     27  F   UNL     1       4.701   8.601  -9.146  0.00  0.00    +0.000 F 
ENDBRANCH  23  24
ENDBRANCH  20  23
ENDBRANCH   1  17
TORSDOF 5
