REMARK  Name = 
REMARK  8 active torsions:
REMARK  status: ('A' for Active; 'I' for Inactive)
REMARK    1  A    between atoms: C_1  and  O_2
REMARK    2  A    between atoms: O_2  and  C_3
REMARK    3  A    between atoms: C_10  and  C_11
REMARK    4  A    between atoms: N_13  and  C_14
REMARK    5  A    between atoms: C_14  and  C_15
REMARK    6  A    between atoms: C_18  and  N_19
REMARK    7  A    between atoms: N_19  and  C_20
REMARK    8  A    between atoms: C_20  and  C_21
REMARK                            x       y       z     vdW  Elec       q    Type
REMARK                         _______ _______ _______ _____ _____    ______ ____
ROOT
ATOM      1  C   UNL     1       3.226  -3.185   0.963  0.00  0.00    +0.000 C 
ENDROOT
BRANCH   1   2
ATOM      2  C   UNL     1       2.216  -2.785   2.019  0.00  0.00    +0.000 A 
ATOM      3  C   UNL     1       1.396  -3.753   2.615  0.00  0.00    +0.000 A 
ATOM      4  C   UNL     1       0.488  -3.411   3.631  0.00  0.00    +0.000 A 
ATOM      5  C   UNL     1       0.343  -2.090   4.062  0.00  0.00    +0.000 A 
ATOM      6  C   UNL     1       1.117  -1.116   3.423  0.00  0.00    +0.000 A 
ATOM      7  C   UNL     1       2.062  -1.457   2.439  0.00  0.00    +0.000 A 
BRANCH   5   8
ATOM      8  N   UNL     1      -0.493  -1.696   5.096  0.00  0.00    +0.000 N 
ATOM      9  H   UNL     1      -1.273  -1.086   4.849  0.00  0.00    +0.000 HD
BRANCH   8  10
ATOM     10  C   UNL     1      -0.785  -2.591   6.210  0.00  0.00    +0.000 C 
BRANCH  10  11
ATOM     11  C   UNL     1      -1.708  -1.929   7.216  0.00  0.00    +0.000 A 
ATOM     12  N   UNL     1      -2.654  -1.051   6.767  0.00  0.00    +0.000 NA
ATOM     13  C   UNL     1      -3.450  -0.477   7.701  0.00  0.00    +0.000 A 
ATOM     14  C   UNL     1      -3.366  -0.743   9.060  0.00  0.00    +0.000 A 
ATOM     15  C   UNL     1      -2.419  -1.664   9.495  0.00  0.00    +0.000 A 
ATOM     16  C   UNL     1      -1.589  -2.267   8.561  0.00  0.00    +0.000 A 
ATOM     17  F   UNL     1      -0.679  -3.162   8.969  0.00  0.00    +0.000 F 
ENDBRANCH  10  11
ENDBRANCH   8  10
ENDBRANCH   5   8
ENDBRANCH   1   2
BRANCH   1  20
ATOM     18  C   UNL     1       3.371  -3.511  -1.498  0.00  0.00    +0.000 C 
ATOM     19  O   UNL     1       4.539  -3.874  -1.444  0.00  0.00    +0.000 OA
ATOM     20  N   UNL     1       2.670  -3.163  -0.366  0.00  0.00    +0.000 N 
ATOM     21  H   UNL     1       1.703  -2.893  -0.447  0.00  0.00    +0.000 HD
BRANCH  18  29
ATOM     22  C   UNL     1       0.143  -2.658  -2.323  0.00  0.00    +0.000 A 
ATOM     23  N   UNL     1      -1.017  -2.300  -2.905  0.00  0.00    +0.000 NA
ATOM     24  C   UNL     1      -1.079  -2.317  -4.239  0.00  0.00    +0.000 A 
ATOM     25  N   UNL     1      -0.109  -2.673  -5.079  0.00  0.00    +0.000 NA
ATOM     26  C   UNL     1       1.032  -3.016  -4.456  0.00  0.00    +0.000 A 
ATOM     27  S   UNL     1       2.375  -3.508  -5.368  0.00  0.00    +0.000 S 
ATOM     28  C   UNL     1       3.317  -3.720  -3.965  0.00  0.00    +0.000 A 
ATOM     29  C   UNL     1       2.645  -3.411  -2.786  0.00  0.00    +0.000 A 
ATOM     30  C   UNL     1       1.267  -3.022  -3.085  0.00  0.00    +0.000 A 
BRANCH  22  32
ATOM     31  C   UNL     1      -1.054  -2.789  -0.320  0.00  0.00    +0.000 C 
ATOM     32  O   UNL     1       0.211  -2.613  -0.951  0.00  0.00    +0.000 OA
ENDBRANCH  22  32
ENDBRANCH  18  29
ENDBRANCH   1  20
TORSDOF 7
