REMARK  Name = 
REMARK  11 active torsions:
REMARK  status: ('A' for Active; 'I' for Inactive)
REMARK    1  A    between atoms: C_1  and  C_2
REMARK    2  A    between atoms: C_2  and  C_3
REMARK    3  A    between atoms: C_2  and  C_4
REMARK    4  A    between atoms: C_2  and  O_5
REMARK    5  A    between atoms: O_5  and  C_6
REMARK    6  A    between atoms: N_8  and  C_9
REMARK    7  A    between atoms: C_9  and  C_10
REMARK    8  A    between atoms: C_13  and  C_14
REMARK    9  A    between atoms: C_14  and  N_15
REMARK   10  A    between atoms: N_15  and  C_16
REMARK   11  A    between atoms: C_19  and  C_20
REMARK                            x       y       z     vdW  Elec       q    Type
REMARK                         _______ _______ _______ _____ _____    ______ ____
ROOT
ATOM      1  C   UNL     1       6.492   4.291  -2.028  0.00  0.00    +0.000 A 
ATOM      2  C   UNL     1       5.677   5.351  -1.610  0.00  0.00    +0.000 A 
ATOM      3  C   UNL     1       5.840   6.631  -2.151  0.00  0.00    +0.000 A 
ATOM      4  C   UNL     1       6.810   6.873  -3.134  0.00  0.00    +0.000 A 
ATOM      5  C   UNL     1       7.649   5.820  -3.523  0.00  0.00    +0.000 A 
ATOM      6  C   UNL     1       7.484   4.540  -2.985  0.00  0.00    +0.000 A 
ENDROOT
BRANCH   1   7
ATOM      7  C   UNL     1       6.313   2.913  -1.452  0.00  0.00    +0.000 C 
BRANCH   7  10
ATOM      8  C   UNL     1       5.081   0.849  -1.749  0.00  0.00    +0.000 C 
ATOM      9  O   UNL     1       5.618   0.339  -0.776  0.00  0.00    +0.000 OA
ATOM     10  N   UNL     1       5.353   2.118  -2.173  0.00  0.00    +0.000 N 
ATOM     11  H   UNL     1       4.871   2.470  -2.988  0.00  0.00    +0.000 HD
BRANCH   8  12
ATOM     12  O   UNL     1       4.144   0.262  -2.537  0.00  0.00    +0.000 OA
BRANCH  12  14
ATOM     13  C   UNL     1       3.025  -1.134  -0.838  0.00  0.00    +0.000 C 
ATOM     14  C   UNL     1       3.699  -1.087  -2.217  0.00  0.00    +0.000 C 
ATOM     15  C   UNL     1       4.849  -2.097  -2.331  0.00  0.00    +0.000 C 
ATOM     16  C   UNL     1       2.639  -1.453  -3.270  0.00  0.00    +0.000 C 
ENDBRANCH  12  14
ENDBRANCH   8  12
ENDBRANCH   7  10
ENDBRANCH   1   7
BRANCH   4  17
ATOM     17  C   UNL     1       6.940   8.239  -3.770  0.00  0.00    +0.000 C 
BRANCH  17  18
ATOM     18  N   UNL     1       7.866   9.065  -3.011  0.00  0.00    +0.000 N 
ATOM     19  H   UNL     1       7.796   8.927  -2.006  0.00  0.00    +0.000 HD
BRANCH  18  20
ATOM     20  C   UNL     1       8.111  10.391  -3.366  0.00  0.00    +0.000 A 
ATOM     21  C   UNL     1       7.686  10.977  -4.565  0.00  0.00    +0.000 A 
ATOM     22  C   UNL     1       8.035  12.296  -4.897  0.00  0.00    +0.000 A 
ATOM     23  C   UNL     1       8.862  13.048  -4.056  0.00  0.00    +0.000 A 
ATOM     24  C   UNL     1       9.317  12.456  -2.880  0.00  0.00    +0.000 A 
ATOM     25  F   UNL     1      10.126  13.118  -2.037  0.00  0.00    +0.000 F 
ATOM     26  C   UNL     1       8.955  11.150  -2.544  0.00  0.00    +0.000 A 
BRANCH  23  27
ATOM     27  C   UNL     1       9.222  14.431  -4.463  0.00  0.00    +0.000 C 
ATOM     28  N   UNL     1      10.042  15.152  -3.641  0.00  0.00    +0.000 N 
ATOM     29  O   UNL     1       8.804  14.919  -5.507  0.00  0.00    +0.000 OA
ATOM     30  H   UNL     1      10.421  14.786  -2.776  0.00  0.00    +0.000 HD
ATOM     31  H   UNL     1      10.302  16.086  -3.926  0.00  0.00    +0.000 HD
ENDBRANCH  23  27
ENDBRANCH  18  20
ENDBRANCH  17  18
ENDBRANCH   4  17
TORSDOF 8
