REMARK  Name = 
REMARK  4 active torsions:
REMARK  status: ('A' for Active; 'I' for Inactive)
REMARK    1  A    between atoms: C_2  and  C_4
REMARK    2  A    between atoms: C_7  and  O_8
REMARK    3  A    between atoms: O_8  and  C_9
REMARK    4  A    between atoms: C_9  and  C_10
REMARK                            x       y       z     vdW  Elec       q    Type
REMARK                         _______ _______ _______ _____ _____    ______ ____
ROOT
ATOM      1  C   UNL     1       2.940   2.450  -0.539  0.00  0.00    +0.000 A 
ATOM      2  C   UNL     1       3.981   1.717  -0.002  0.00  0.00    +0.000 A 
ATOM      3  N   UNL     1       4.781   2.212   0.976  0.00  0.00    +0.000 NA
ATOM      4  C   UNL     1       4.504   3.466   1.404  0.00  0.00    +0.000 A 
ATOM      5  C   UNL     1       3.463   4.206   0.851  0.00  0.00    +0.000 A 
ATOM      6  N   UNL     1       2.646   3.719  -0.127  0.00  0.00    +0.000 NA
ENDROOT
BRANCH   1   8
ATOM      7  N   UNL     1       1.126   2.654  -2.128  0.00  0.00    +0.000 N 
ATOM      8  C   UNL     1       2.110   1.851  -1.620  0.00  0.00    +0.000 C 
ATOM      9  O   UNL     1       2.293   0.713  -2.033  0.00  0.00    +0.000 OA
ATOM     10  H   UNL     1       0.544   2.312  -2.881  0.00  0.00    +0.000 HD
ATOM     11  H   UNL     1       1.006   3.600  -1.775  0.00  0.00    +0.000 HD
ENDBRANCH   1   8
BRANCH   4  12
ATOM     12  O   UNL     1       5.361   3.883   2.374  0.00  0.00    +0.000 OA
BRANCH  12  13
ATOM     13  C   UNL     1       4.969   4.953   3.263  0.00  0.00    +0.000 C 
ATOM     14  C   UNL     1       5.033   4.483   4.718  0.00  0.00    +0.000 C 
ATOM     15  C   UNL     1       3.721   4.804   4.100  0.00  0.00    +0.000 C 
ATOM     16  F   UNL     1       3.082   5.933   4.582  0.00  0.00    +0.000 F 
BRANCH  13  17
ATOM     17  C   UNL     1       5.559   6.318   2.946  0.00  0.00    +0.000 A 
ATOM     18  C   UNL     1       6.936   6.505   3.002  0.00  0.00    +0.000 A 
ATOM     19  C   UNL     1       7.420   7.750   2.673  0.00  0.00    +0.000 A 
ATOM     20  N   UNL     1       6.635   8.777   2.322  0.00  0.00    +0.000 NA
ATOM     21  C   UNL     1       5.320   8.511   2.291  0.00  0.00    +0.000 A 
ATOM     22  N   UNL     1       4.744   7.326   2.563  0.00  0.00    +0.000 NA
ENDBRANCH  13  17
ENDBRANCH  12  13
ENDBRANCH   4  12
TORSDOF 4
