REMARK  Name = 
REMARK  4 active torsions:
REMARK  status: ('A' for Active; 'I' for Inactive)
REMARK    1  A    between atoms: C_2  and  C_4
REMARK    2  A    between atoms: N_8  and  C_9
REMARK    3  A    between atoms: C_9  and  C_10
REMARK    4  A    between atoms: C_14  and  C_15
REMARK                            x       y       z     vdW  Elec       q    Type
REMARK                         _______ _______ _______ _____ _____    ______ ____
ROOT
ATOM      1  C   UNL     1       5.258  -2.531   5.442  0.00  0.00    +0.000 C 
ENDROOT
BRANCH   1   6
ATOM      2  C   UNL     1       2.488   0.756   2.679  0.00  0.00    +0.000 A 
ATOM      3  C   UNL     1       2.140   0.093   3.852  0.00  0.00    +0.000 A 
ATOM      4  C   UNL     1       3.117  -0.622   4.543  0.00  0.00    +0.000 A 
ATOM      5  C   UNL     1       4.413  -0.688   4.040  0.00  0.00    +0.000 A 
ATOM      6  N   UNL     1       5.454  -1.292   4.713  0.00  0.00    +0.000 N 
ATOM      7  N   UNL     1       4.754  -0.070   2.893  0.00  0.00    +0.000 NA
ATOM      8  C   UNL     1       3.793   0.631   2.235  0.00  0.00    +0.000 A 
ATOM      9  H   UNL     1       6.267  -1.286   4.102  0.00  0.00    +0.000 HD
BRANCH   2  11
ATOM     10  N   UNL     1       0.478   2.114   2.594  0.00  0.00    +0.000 N 
ATOM     11  C   UNL     1       1.526   1.565   1.908  0.00  0.00    +0.000 C 
ATOM     12  O   UNL     1       1.677   1.767   0.713  0.00  0.00    +0.000 OA
ATOM     13  H   UNL     1      -0.116   2.748   2.077  0.00  0.00    +0.000 HD
ATOM     14  H   UNL     1       0.464   2.183   3.601  0.00  0.00    +0.000 HD
ENDBRANCH   2  11
ENDBRANCH   1   6
BRANCH   1  15
ATOM     15  C   UNL     1       6.306  -2.675   6.521  0.00  0.00    +0.000 A 
ATOM     16  C   UNL     1       6.668  -3.938   6.990  0.00  0.00    +0.000 A 
ATOM     17  C   UNL     1       7.592  -4.022   8.017  0.00  0.00    +0.000 A 
ATOM     18  N   UNL     1       8.167  -2.951   8.605  0.00  0.00    +0.000 NA
ATOM     19  C   UNL     1       7.800  -1.719   8.173  0.00  0.00    +0.000 A 
ATOM     20  C   UNL     1       6.874  -1.555   7.146  0.00  0.00    +0.000 A 
BRANCH  19  21
ATOM     21  C   UNL     1       8.437  -0.580   8.860  0.00  0.00    +0.000 A 
ATOM     22  C   UNL     1       9.760  -0.673   9.329  0.00  0.00    +0.000 A 
ATOM     23  C   UNL     1      10.364   0.399   9.982  0.00  0.00    +0.000 A 
ATOM     24  F   UNL     1      11.627   0.280  10.413  0.00  0.00    +0.000 F 
ATOM     25  C   UNL     1       9.682   1.586  10.195  0.00  0.00    +0.000 A 
ATOM     26  C   UNL     1       8.379   1.690   9.740  0.00  0.00    +0.000 A 
ATOM     27  F   UNL     1       7.699   2.827   9.940  0.00  0.00    +0.000 F 
ATOM     28  C   UNL     1       7.756   0.631   9.082  0.00  0.00    +0.000 A 
ENDBRANCH  19  21
ENDBRANCH   1  15
TORSDOF 4
