REMARK  Name = 
REMARK  6 active torsions:
REMARK  status: ('A' for Active; 'I' for Inactive)
REMARK    1  A    between atoms: C_2  and  O_3
REMARK    2  A    between atoms: C_2  and  C_4
REMARK    3  A    between atoms: N_8  and  C_9
REMARK    4  A    between atoms: C_9  and  C_10
REMARK    5  A    between atoms: C_10  and  O_11
REMARK    6  A    between atoms: C_10  and  C_12
REMARK                            x       y       z     vdW  Elec       q    Type
REMARK                         _______ _______ _______ _____ _____    ______ ____
ROOT
ATOM      1  C   UNL     1       2.779   1.196   0.615  0.00  0.00    +0.000 A 
ATOM      2  C   UNL     1       4.141   1.188   0.363  0.00  0.00    +0.000 A 
ATOM      3  C   UNL     1       4.960   2.115   1.009  0.00  0.00    +0.000 A 
ATOM      4  C   UNL     1       4.391   3.035   1.902  0.00  0.00    +0.000 A 
ATOM      5  N   UNL     1       5.217   3.907   2.582  0.00  0.00    +0.000 N 
ATOM      6  N   UNL     1       3.075   3.019   2.176  0.00  0.00    +0.000 NA
ATOM      7  C   UNL     1       2.296   2.115   1.535  0.00  0.00    +0.000 A 
ATOM      8  H   UNL     1       5.990   4.324   2.081  0.00  0.00    +0.000 HD
ENDROOT
BRANCH   1  10
ATOM      9  O   UNL     1       2.304  -0.907  -0.366  0.00  0.00    +0.000 OA
ATOM     10  C   UNL     1       1.909   0.215  -0.054  0.00  0.00    +0.000 C 
BRANCH  10  11
ATOM     11  O   UNL     1       0.676   0.667  -0.336  0.00  0.00    +0.000 OA
ATOM     12  H   UNL     1       0.539   1.629  -0.226  0.00  0.00    +0.000 HD
ENDBRANCH  10  11
ENDBRANCH   1  10
BRANCH   5  13
ATOM     13  C   UNL     1       4.823   4.444   3.885  0.00  0.00    +0.000 C 
BRANCH  13  14
ATOM     14  C   UNL     1       5.845   5.484   4.425  0.00  0.00    +0.000 C 
BRANCH  14  15
ATOM     15  C   UNL     1       5.534   5.938   5.849  0.00  0.00    +0.000 A 
ATOM     16  C   UNL     1       5.494   5.002   6.899  0.00  0.00    +0.000 A 
ATOM     17  C   UNL     1       5.253   5.402   8.217  0.00  0.00    +0.000 A 
ATOM     18  C   UNL     1       5.065   6.748   8.513  0.00  0.00    +0.000 A 
ATOM     19  C   UNL     1       5.103   7.692   7.491  0.00  0.00    +0.000 A 
ATOM     20  C   UNL     1       5.333   7.291   6.171  0.00  0.00    +0.000 A 
ENDBRANCH  14  15
BRANCH  14  21
ATOM     21  O   UNL     1       5.899   6.605   3.526  0.00  0.00    +0.000 OA
ATOM     22  H   UNL     1       4.982   6.909   3.409  0.00  0.00    +0.000 HD
ENDBRANCH  14  21
ENDBRANCH  13  14
ENDBRANCH   5  13
TORSDOF 6
