REMARK  Name = 
REMARK  3 active torsions:
REMARK  status: ('A' for Active; 'I' for Inactive)
REMARK    1  A    between atoms: C_2  and  C_4
REMARK    2  A    between atoms: N_8  and  C_9
REMARK    3  A    between atoms: C_9  and  C_10
REMARK                            x       y       z     vdW  Elec       q    Type
REMARK                         _______ _______ _______ _____ _____    ______ ____
ROOT
ATOM      1  C   UNL     1       3.165   0.685   1.032  0.00  0.00    +0.000 A 
ATOM      2  C   UNL     1       2.518   1.003   2.223  0.00  0.00    +0.000 A 
ATOM      3  C   UNL     1       3.207   1.724   3.197  0.00  0.00    +0.000 A 
ATOM      4  C   UNL     1       4.532   2.092   2.980  0.00  0.00    +0.000 A 
ATOM      5  N   UNL     1       5.255   2.863   3.857  0.00  0.00    +0.000 N 
ATOM      6  N   UNL     1       5.170   1.777   1.837  0.00  0.00    +0.000 NA
ATOM      7  C   UNL     1       4.485   1.079   0.893  0.00  0.00    +0.000 A 
ATOM      8  H   UNL     1       6.212   2.947   3.529  0.00  0.00    +0.000 HD
ENDROOT
BRANCH   1  10
ATOM      9  N   UNL     1       1.146   0.033  -0.149  0.00  0.00    +0.000 N 
ATOM     10  C   UNL     1       2.508  -0.051  -0.066  0.00  0.00    +0.000 C 
ATOM     11  O   UNL     1       3.156  -0.683  -0.889  0.00  0.00    +0.000 OA
ATOM     12  H   UNL     1       0.719  -0.393  -0.963  0.00  0.00    +0.000 HD
ATOM     13  H   UNL     1       0.610   0.733   0.344  0.00  0.00    +0.000 HD
ENDBRANCH   1  10
BRANCH   5  14
ATOM     14  C   UNL     1       5.083   2.783   5.293  0.00  0.00    +0.000 C 
BRANCH  14  15
ATOM     15  C   UNL     1       4.715   4.133   5.863  0.00  0.00    +0.000 A 
ATOM     16  C   UNL     1       3.982   5.076   5.131  0.00  0.00    +0.000 A 
ATOM     17  C   UNL     1       3.664   6.288   5.721  0.00  0.00    +0.000 A 
ATOM     18  N   UNL     1       4.002   6.618   6.986  0.00  0.00    +0.000 NA
ATOM     19  C   UNL     1       4.692   5.693   7.684  0.00  0.00    +0.000 A 
ATOM     20  C   UNL     1       5.059   4.454   7.180  0.00  0.00    +0.000 A 
ENDBRANCH  14  15
ENDBRANCH   5  14
TORSDOF 3
