REMARK  Name = 
REMARK  7 active torsions:
REMARK  status: ('A' for Active; 'I' for Inactive)
REMARK    1  A    between atoms: C_1  and  C_2
REMARK    2  A    between atoms: C_4  and  C_5
REMARK    3  A    between atoms: C_10  and  N_11
REMARK    4  A    between atoms: N_11  and  C_12
REMARK    5  A    between atoms: C_12  and  C_13
REMARK    6  A    between atoms: C_17  and  C_18
REMARK    7  A    between atoms: C_22  and  C_23
REMARK                            x       y       z     vdW  Elec       q    Type
REMARK                         _______ _______ _______ _____ _____    ______ ____
ROOT
ATOM      1  C   UNL     1       2.752  -3.973   0.120  0.00  0.00    +0.000 A 
ATOM      2  C   UNL     1       4.051  -4.254   0.560  0.00  0.00    +0.000 A 
ATOM      3  C   UNL     1       4.487  -5.573   0.669  0.00  0.00    +0.000 A 
ATOM      4  C   UNL     1       3.622  -6.624   0.358  0.00  0.00    +0.000 A 
ATOM      5  C   UNL     1       2.300  -6.386  -0.056  0.00  0.00    +0.000 A 
ATOM      6  C   UNL     1       1.889  -5.043  -0.178  0.00  0.00    +0.000 A 
ENDROOT
BRANCH   5   7
ATOM      7  C   UNL     1       1.369  -7.502  -0.316  0.00  0.00    +0.000 A 
ATOM      8  C   UNL     1       1.334  -8.634   0.503  0.00  0.00    +0.000 A 
ATOM      9  N   UNL     1       0.494  -9.687   0.348  0.00  0.00    +0.000 NA
ATOM     10  C   UNL     1      -0.382  -9.620  -0.677  0.00  0.00    +0.000 A 
ATOM     11  C   UNL     1      -0.448  -8.557  -1.562  0.00  0.00    +0.000 A 
ATOM     12  C   UNL     1       0.450  -7.493  -1.374  0.00  0.00    +0.000 A 
BRANCH  11  13
ATOM     13  C   UNL     1      -1.454  -8.545  -2.669  0.00  0.00    +0.000 C 
ATOM     14  F   UNL     1      -2.233  -9.662  -2.714  0.00  0.00    +0.000 F 
ATOM     15  F   UNL     1      -2.317  -7.496  -2.576  0.00  0.00    +0.000 F 
ATOM     16  F   UNL     1      -0.877  -8.445  -3.898  0.00  0.00    +0.000 F 
ENDBRANCH  11  13
ENDBRANCH   5   7
BRANCH   1  17
ATOM     17  C   UNL     1       2.287  -2.539  -0.023  0.00  0.00    +0.000 C 
BRANCH  17  18
ATOM     18  N   UNL     1       1.552  -2.124   1.170  0.00  0.00    +0.000 N 
ATOM     19  H   UNL     1       2.036  -2.396   2.018  0.00  0.00    +0.000 HD
BRANCH  18  26
ATOM     20  C   UNL     1       0.395  -0.969   3.592  0.00  0.00    +0.000 C 
ATOM     21  C   UNL     1       0.670  -0.180   2.345  0.00  0.00    +0.000 A 
ATOM     22  C   UNL     1       0.327   1.183   2.319  0.00  0.00    +0.000 A 
ATOM     23  C   UNL     1       0.557   1.953   1.178  0.00  0.00    +0.000 A 
ATOM     24  C   UNL     1       1.133   1.307   0.102  0.00  0.00    +0.000 A 
ATOM     25  N   UNL     1       1.473  -0.009   0.092  0.00  0.00    +0.000 NA
ATOM     26  C   UNL     1       1.252  -0.749   1.202  0.00  0.00    +0.000 A 
BRANCH  23  27
ATOM     27  C   UNL     1       0.174   3.386   1.184  0.00  0.00    +0.000 C 
ATOM     28  N   UNL     1       0.378   4.134   0.057  0.00  0.00    +0.000 N 
ATOM     29  O   UNL     1      -0.322   3.904   2.177  0.00  0.00    +0.000 OA
ATOM     30  H   UNL     1       0.743   3.808  -0.819  0.00  0.00    +0.000 HD
ATOM     31  H   UNL     1       0.080   5.105   0.108  0.00  0.00    +0.000 HD
ENDBRANCH  23  27
ENDBRANCH  18  26
ENDBRANCH  17  18
ENDBRANCH   1  17
TORSDOF 6
