REMARK  Name = 
REMARK  4 active torsions:
REMARK  status: ('A' for Active; 'I' for Inactive)
REMARK    1  A    between atoms: C_2  and  C_4
REMARK    2  A    between atoms: N_8  and  C_9
REMARK    3  A    between atoms: C_9  and  C_10
REMARK    4  A    between atoms: C_15  and  C_16
REMARK                            x       y       z     vdW  Elec       q    Type
REMARK                         _______ _______ _______ _____ _____    ______ ____
ROOT
ATOM      1  C   UNL     1       5.133   3.233   5.079  0.00  0.00    +0.000 C 
ATOM      2  C   UNL     1       5.001   2.188   6.181  0.00  0.00    +0.000 C 
ATOM      3  C   UNL     1       3.839   3.064   5.855  0.00  0.00    +0.000 C 
ENDROOT
BRANCH   1   8
ATOM      4  C   UNL     1       3.614   3.752   0.122  0.00  0.00    +0.000 A 
ATOM      5  C   UNL     1       2.837   3.823   1.276  0.00  0.00    +0.000 A 
ATOM      6  C   UNL     1       3.412   3.505   2.507  0.00  0.00    +0.000 A 
ATOM      7  C   UNL     1       4.744   3.116   2.566  0.00  0.00    +0.000 A 
ATOM      8  N   UNL     1       5.361   2.668   3.738  0.00  0.00    +0.000 N 
ATOM      9  N   UNL     1       5.507   3.046   1.452  0.00  0.00    +0.000 NA
ATOM     10  C   UNL     1       4.932   3.357   0.261  0.00  0.00    +0.000 A 
ATOM     11  H   UNL     1       6.335   2.507   3.486  0.00  0.00    +0.000 HD
BRANCH   4  13
ATOM     12  N   UNL     1       1.979   4.846  -1.304  0.00  0.00    +0.000 N 
ATOM     13  C   UNL     1       3.069   4.023  -1.227  0.00  0.00    +0.000 C 
ATOM     14  O   UNL     1       3.580   3.549  -2.228  0.00  0.00    +0.000 OA
ATOM     15  H   UNL     1       1.650   5.080  -2.233  0.00  0.00    +0.000 HD
ATOM     16  H   UNL     1       1.681   5.436  -0.541  0.00  0.00    +0.000 HD
ENDBRANCH   4  13
ENDBRANCH   1   8
BRANCH   1  17
ATOM     17  C   UNL     1       5.958   4.487   5.352  0.00  0.00    +0.000 A 
ATOM     18  C   UNL     1       7.247   4.420   5.902  0.00  0.00    +0.000 A 
ATOM     19  C   UNL     1       8.010   5.571   6.084  0.00  0.00    +0.000 A 
ATOM     20  C   UNL     1       7.495   6.813   5.719  0.00  0.00    +0.000 A 
ATOM     21  F   UNL     1       8.277   7.885   5.916  0.00  0.00    +0.000 F 
ATOM     22  C   UNL     1       6.211   6.951   5.170  0.00  0.00    +0.000 A 
ATOM     23  C   UNL     1       5.467   5.763   5.002  0.00  0.00    +0.000 A 
BRANCH  22  24
ATOM     24  C   UNL     1       5.655   8.261   4.759  0.00  0.00    +0.000 A 
ATOM     25  C   UNL     1       6.453   9.287   4.232  0.00  0.00    +0.000 A 
ATOM     26  C   UNL     1       5.892  10.505   3.846  0.00  0.00    +0.000 A 
ATOM     27  C   UNL     1       4.527  10.672   3.982  0.00  0.00    +0.000 A 
ATOM     28  N   UNL     1       3.708   9.722   4.474  0.00  0.00    +0.000 NA
ATOM     29  C   UNL     1       4.291   8.557   4.854  0.00  0.00    +0.000 A 
ENDBRANCH  22  24
ENDBRANCH   1  17
TORSDOF 4
