REMARK  Name = 
REMARK  5 active torsions:
REMARK  status: ('A' for Active; 'I' for Inactive)
REMARK    1  A    between atoms: C_2  and  C_18
REMARK    2  A    between atoms: N_3  and  C_4
REMARK    3  A    between atoms: C_4  and  C_5
REMARK    4  A    between atoms: C_8  and  C_9
REMARK    5  A    between atoms: C_9  and  C_10
REMARK                            x       y       z     vdW  Elec       q    Type
REMARK                         _______ _______ _______ _____ _____    ______ ____
ROOT
ATOM      1  O   UNL     1       3.780  -0.154  -0.541  0.00  0.00    +0.000 OA
ATOM      2  C   UNL     1       3.091  -0.869  -1.264  0.00  0.00    +0.000 C 
ATOM      3  N   UNL     1       2.350  -1.912  -0.774  0.00  0.00    +0.000 N 
ATOM      4  H   UNL     1       1.917  -2.559  -1.423  0.00  0.00    +0.000 HD
ENDROOT
BRANCH   2   5
ATOM      5  C   UNL     1       2.983  -0.623  -2.709  0.00  0.00    +0.000 A 
ATOM      6  C   UNL     1       3.287   0.630  -3.225  0.00  0.00    +0.000 A 
ATOM      7  S   UNL     1       3.109   0.732  -4.918  0.00  0.00    +0.000 S 
ATOM      8  C   UNL     1       2.664  -0.907  -5.027  0.00  0.00    +0.000 A 
ATOM      9  N   UNL     1       2.408  -1.485  -6.231  0.00  0.00    +0.000 NA
ATOM     10  C   UNL     1       2.128  -2.744  -6.171  0.00  0.00    +0.000 A 
ATOM     11  N   UNL     1       2.062  -3.473  -5.014  0.00  0.00    +0.000 N 
ATOM     12  C   UNL     1       2.221  -2.912  -3.771  0.00  0.00    +0.000 A 
ATOM     13  O   UNL     1       1.996  -3.558  -2.753  0.00  0.00    +0.000 OA
ATOM     14  C   UNL     1       2.610  -1.514  -3.785  0.00  0.00    +0.000 A 
ATOM     15  H   UNL     1       1.795  -4.447  -5.031  0.00  0.00    +0.000 HD
ENDBRANCH   2   5
BRANCH   3  16
ATOM     16  C   UNL     1       2.388  -2.327   0.604  0.00  0.00    +0.000 C 
BRANCH  16  17
ATOM     17  C   UNL     1       3.353  -3.458   0.814  0.00  0.00    +0.000 A 
ATOM     18  C   UNL     1       4.692  -3.221   1.129  0.00  0.00    +0.000 A 
ATOM     19  C   UNL     1       5.548  -4.294   1.370  0.00  0.00    +0.000 A 
ATOM     20  C   UNL     1       5.050  -5.591   1.267  0.00  0.00    +0.000 A 
ATOM     21  N   UNL     1       3.763  -5.847   0.917  0.00  0.00    +0.000 NA
ATOM     22  C   UNL     1       2.954  -4.784   0.697  0.00  0.00    +0.000 A 
BRANCH  20  23
ATOM     23  C   UNL     1       5.920  -6.776   1.626  0.00  0.00    +0.000 C 
BRANCH  23  24
ATOM     24  C   UNL     1       5.897  -7.099   3.104  0.00  0.00    +0.000 A 
ATOM     25  C   UNL     1       4.708  -7.504   3.722  0.00  0.00    +0.000 A 
ATOM     26  C   UNL     1       4.712  -7.741   5.087  0.00  0.00    +0.000 A 
ATOM     27  N   UNL     1       5.807  -7.622   5.867  0.00  0.00    +0.000 NA
ATOM     28  C   UNL     1       6.948  -7.249   5.250  0.00  0.00    +0.000 A 
ATOM     29  C   UNL     1       7.045  -6.982   3.892  0.00  0.00    +0.000 A 
ENDBRANCH  23  24
ENDBRANCH  20  23
ENDBRANCH  16  17
ENDBRANCH   3  16
TORSDOF 5
