REMARK  Name = 
REMARK  8 active torsions:
REMARK  status: ('A' for Active; 'I' for Inactive)
REMARK    1  A    between atoms: C_2  and  C_21
REMARK    2  A    between atoms: N_3  and  C_4
REMARK    3  A    between atoms: C_4  and  C_5
REMARK    4  A    between atoms: C_8  and  C_9
REMARK    5  A    between atoms: C_9  and  N_10
REMARK    6  A    between atoms: N_10  and  C_11
REMARK    7  A    between atoms: C_11  and  C_12
REMARK    8  A    between atoms: C_15  and  O_16
REMARK                            x       y       z     vdW  Elec       q    Type
REMARK                         _______ _______ _______ _____ _____    ______ ____
ROOT
ATOM      1  C   UNL     1      10.531 -11.376   2.876  0.00  0.00    +0.000 A 
ATOM      2  C   UNL     1       9.426 -10.610   3.270  0.00  0.00    +0.000 A 
ATOM      3  C   UNL     1       9.602  -9.441   4.017  0.00  0.00    +0.000 A 
ATOM      4  C   UNL     1      10.886  -9.008   4.376  0.00  0.00    +0.000 A 
ATOM      5  C   UNL     1      11.991  -9.758   3.952  0.00  0.00    +0.000 A 
ATOM      6  C   UNL     1      11.816 -10.924   3.202  0.00  0.00    +0.000 A 
ENDROOT
BRANCH   1   7
ATOM      7  C   UNL     1      10.337 -12.660   2.114  0.00  0.00    +0.000 C 
BRANCH   7  10
ATOM      8  O   UNL     1       7.974 -12.451   0.604  0.00  0.00    +0.000 OA
ATOM      9  C   UNL     1       9.054 -12.304   0.040  0.00  0.00    +0.000 C 
ATOM     10  N   UNL     1      10.251 -12.435   0.694  0.00  0.00    +0.000 N 
ATOM     11  H   UNL     1      11.108 -12.158   0.230  0.00  0.00    +0.000 HD
BRANCH   9  12
ATOM     12  C   UNL     1       9.129 -12.024  -1.399  0.00  0.00    +0.000 A 
ATOM     13  C   UNL     1       8.063 -12.361  -2.223  0.00  0.00    +0.000 A 
ATOM     14  S   UNL     1       8.300 -11.928  -3.856  0.00  0.00    +0.000 S 
ATOM     15  C   UNL     1       9.817 -11.245  -3.511  0.00  0.00    +0.000 A 
ATOM     16  N   UNL     1      10.549 -10.634  -4.484  0.00  0.00    +0.000 NA
ATOM     17  C   UNL     1      11.658 -10.120  -4.074  0.00  0.00    +0.000 A 
ATOM     18  N   UNL     1      12.118 -10.183  -2.784  0.00  0.00    +0.000 N 
ATOM     19  C   UNL     1      11.462 -10.867  -1.791  0.00  0.00    +0.000 A 
ATOM     20  O   UNL     1      11.982 -11.048  -0.697  0.00  0.00    +0.000 OA
ATOM     21  C   UNL     1      10.166 -11.390  -2.180  0.00  0.00    +0.000 A 
ATOM     22  H   UNL     1      13.022  -9.803  -2.539  0.00  0.00    +0.000 HD
ENDBRANCH   9  12
ENDBRANCH   7  10
ENDBRANCH   1   7
BRANCH   4  23
ATOM     23  C   UNL     1      11.084  -7.739   5.172  0.00  0.00    +0.000 C 
BRANCH  23  24
ATOM     24  N   UNL     1      10.451  -7.820   6.489  0.00  0.00    +0.000 NA
ATOM     25  H   UNL     1      10.824  -8.625   6.991  0.00  0.00    +0.000 HD
BRANCH  24  26
ATOM     26  C   UNL     1      10.675  -6.595   7.257  0.00  0.00    +0.000 C 
BRANCH  26  27
ATOM     27  C   UNL     1       9.960  -6.643   8.624  0.00  0.00    +0.000 C 
ATOM     28  C   UNL     1      10.230  -5.335   9.394  0.00  0.00    +0.000 C 
ATOM     29  C   UNL     1       9.436  -5.243  10.694  0.00  0.00    +0.000 C 
ATOM     30  C   UNL     1       7.944  -5.443  10.445  0.00  0.00    +0.000 C 
ATOM     31  C   UNL     1       7.686  -6.785   9.770  0.00  0.00    +0.000 C 
ATOM     32  C   UNL     1       8.450  -6.896   8.456  0.00  0.00    +0.000 C 
BRANCH  30  33
ATOM     33  O   UNL     1       7.238  -5.377  11.678  0.00  0.00    +0.000 OA
ATOM     34  H   UNL     1       7.496  -6.146  12.215  0.00  0.00    +0.000 HD
ENDBRANCH  30  33
ENDBRANCH  26  27
ENDBRANCH  24  26
ENDBRANCH  23  24
ENDBRANCH   4  23
TORSDOF 8
