REMARK  Name = 
REMARK  6 active torsions:
REMARK  status: ('A' for Active; 'I' for Inactive)
REMARK    1  A    between atoms: C_1  and  O_2
REMARK    2  A    between atoms: O_2  and  C_3
REMARK    3  A    between atoms: C_5  and  C_6
REMARK    4  A    between atoms: C_11  and  O_12
REMARK    5  A    between atoms: O_12  and  C_13
REMARK    6  A    between atoms: C_13  and  C_14
REMARK                            x       y       z     vdW  Elec       q    Type
REMARK                         _______ _______ _______ _____ _____    ______ ____
ROOT
ATOM      1  C   UNL     1       3.077  -0.764  -1.103  0.00  0.00    +0.000 A 
ATOM      2  C   UNL     1       2.780  -0.623  -2.465  0.00  0.00    +0.000 A 
ATOM      3  C   UNL     1       3.515  -1.311  -3.442  0.00  0.00    +0.000 A 
ATOM      4  C   UNL     1       4.547  -2.162  -3.045  0.00  0.00    +0.000 A 
ATOM      5  C   UNL     1       4.854  -2.305  -1.691  0.00  0.00    +0.000 A 
ATOM      6  C   UNL     1       4.153  -1.584  -0.716  0.00  0.00    +0.000 A 
ENDROOT
BRANCH   3   7
ATOM      7  C   UNL     1       3.149  -1.094  -4.870  0.00  0.00    +0.000 C 
ATOM      8  N   UNL     1       3.870  -1.732  -5.838  0.00  0.00    +0.000 N 
ATOM      9  O   UNL     1       2.221  -0.356  -5.185  0.00  0.00    +0.000 OA
ATOM     10  H   UNL     1       4.655  -2.343  -5.682  0.00  0.00    +0.000 HD
ATOM     11  H   UNL     1       3.596  -1.557  -6.795  0.00  0.00    +0.000 HD
ENDBRANCH   3   7
BRANCH   1  13
ATOM     12  C   UNL     1       1.114   0.412  -0.451  0.00  0.00    +0.000 C 
ATOM     13  O   UNL     1       2.396  -0.109  -0.105  0.00  0.00    +0.000 OA
ENDBRANCH   1  13
BRANCH   6  14
ATOM     14  O   UNL     1       4.459  -1.646   0.625  0.00  0.00    +0.000 OA
BRANCH  14  15
ATOM     15  C   UNL     1       5.789  -2.081   0.926  0.00  0.00    +0.000 C 
BRANCH  15  16
ATOM     16  C   UNL     1       6.226  -1.675   2.308  0.00  0.00    +0.000 A 
ATOM     17  C   UNL     1       5.672  -0.592   2.992  0.00  0.00    +0.000 A 
ATOM     18  C   UNL     1       6.204  -0.209   4.221  0.00  0.00    +0.000 A 
ATOM     19  C   UNL     1       7.280  -0.926   4.714  0.00  0.00    +0.000 A 
ATOM     20 CL   UNL     1       8.018  -0.495   6.201  0.00  0.00    +0.000 Cl
ATOM     21  N   UNL     1       7.849  -1.979   4.092  0.00  0.00    +0.000 NA
ATOM     22  C   UNL     1       7.309  -2.325   2.902  0.00  0.00    +0.000 A 
ENDBRANCH  15  16
ENDBRANCH  14  15
ENDBRANCH   6  14
TORSDOF 5
