REMARK  Name = 
REMARK  10 active torsions:
REMARK  status: ('A' for Active; 'I' for Inactive)
REMARK    1  A    between atoms: C_1  and  O_2
REMARK    2  A    between atoms: O_2  and  C_3
REMARK    3  A    between atoms: C_5  and  N_6
REMARK    4  A    between atoms: N_6  and  C_7
REMARK    5  A    between atoms: C_7  and  C_8
REMARK    6  A    between atoms: C_8  and  C_9
REMARK    7  A    between atoms: C_8  and  C_10
REMARK    8  A    between atoms: C_8  and  C_11
REMARK    9  A    between atoms: C_15  and  C_16
REMARK   10  A    between atoms: C_21  and  C_22
REMARK                            x       y       z     vdW  Elec       q    Type
REMARK                         _______ _______ _______ _____ _____    ______ ____
ROOT
ATOM      1  N   UNL     1       2.891   4.672  -0.983  0.00  0.00    +0.000 N 
ATOM      2  H   UNL     1       3.713   5.260  -0.875  0.00  0.00    +0.000 HD
ENDROOT
BRANCH   1   5
ATOM      3  C   UNL     1       2.653   0.970  -1.521  0.00  0.00    +0.000 A 
ATOM      4  C   UNL     1       2.338   2.278  -1.127  0.00  0.00    +0.000 A 
ATOM      5  C   UNL     1       3.248   3.338  -1.242  0.00  0.00    +0.000 A 
ATOM      6  C   UNL     1       4.508   3.054  -1.770  0.00  0.00    +0.000 A 
ATOM      7  C   UNL     1       4.849   1.752  -2.160  0.00  0.00    +0.000 A 
ATOM      8  C   UNL     1       3.920   0.701  -2.058  0.00  0.00    +0.000 A 
BRANCH   8   9
ATOM      9  C   UNL     1       4.341  -0.632  -2.593  0.00  0.00    +0.000 C 
ATOM     10  N   UNL     1       3.441  -1.657  -2.549  0.00  0.00    +0.000 N 
ATOM     11  O   UNL     1       5.453  -0.811  -3.078  0.00  0.00    +0.000 OA
ATOM     12  H   UNL     1       2.537  -1.542  -2.106  0.00  0.00    +0.000 HD
ATOM     13  H   UNL     1       3.713  -2.565  -2.896  0.00  0.00    +0.000 HD
ENDBRANCH   8   9
BRANCH   3  15
ATOM     14  C   UNL     1       0.382   0.263  -1.351  0.00  0.00    +0.000 C 
ATOM     15  O   UNL     1       1.765  -0.068  -1.352  0.00  0.00    +0.000 OA
ENDBRANCH   3  15
ENDBRANCH   1   5
BRANCH   1  16
ATOM     16  C   UNL     1       1.844   4.913   0.019  0.00  0.00    +0.000 C 
BRANCH  16  17
ATOM     17  C   UNL     1       1.519   6.417   0.273  0.00  0.00    +0.000 C 
ATOM     18  C   UNL     1       2.792   7.134   0.778  0.00  0.00    +0.000 C 
ATOM     19  C   UNL     1       1.058   7.051  -1.059  0.00  0.00    +0.000 C 
BRANCH  17  20
ATOM     20  C   UNL     1       0.407   6.589   1.342  0.00  0.00    +0.000 A 
ATOM     21  C   UNL     1      -0.215   5.500   1.985  0.00  0.00    +0.000 A 
ATOM     22  C   UNL     1      -1.162   5.687   2.997  0.00  0.00    +0.000 A 
ATOM     23  C   UNL     1      -1.512   6.971   3.399  0.00  0.00    +0.000 A 
ATOM     24  C   UNL     1      -0.927   8.073   2.773  0.00  0.00    +0.000 A 
ATOM     25  C   UNL     1       0.009   7.880   1.746  0.00  0.00    +0.000 A 
BRANCH  24  26
ATOM     26  C   UNL     1      -1.257   9.397   3.200  0.00  0.00    +0.000 C 
ATOM     27  N   UNL     1      -1.517  10.474   3.554  0.00  0.00    +0.000 NA
ENDBRANCH  24  26
ENDBRANCH  17  20
ENDBRANCH  16  17
ENDBRANCH   1  16
TORSDOF 7
