REMARK  Name = 
REMARK  6 active torsions:
REMARK  status: ('A' for Active; 'I' for Inactive)
REMARK    1  A    between atoms: C_1  and  C_2
REMARK    2  A    between atoms: C_2  and  C_3
REMARK    3  A    between atoms: C_2  and  C_4
REMARK    4  A    between atoms: C_2  and  C_5
REMARK    5  A    between atoms: N_7  and  C_8
REMARK    6  A    between atoms: C_8  and  C_9
REMARK                            x       y       z     vdW  Elec       q    Type
REMARK                         _______ _______ _______ _____ _____    ______ ____
ROOT
ATOM      1  C   UNL     1       2.885  -1.011   1.010  0.00  0.00    +0.000 A 
ATOM      2  C   UNL     1       3.574  -0.788   2.190  0.00  0.00    +0.000 A 
ATOM      3  N   UNL     1       3.701  -1.970   2.873  0.00  0.00    +0.000 N 
ATOM      4  C   UNL     1       3.152  -2.999   2.140  0.00  0.00    +0.000 A 
ATOM      5  C   UNL     1       3.053  -4.375   2.414  0.00  0.00    +0.000 A 
ATOM      6  C   UNL     1       2.420  -5.195   1.477  0.00  0.00    +0.000 A 
ATOM      7  C   UNL     1       1.901  -4.663   0.304  0.00  0.00    +0.000 A 
ATOM      8  C   UNL     1       2.002  -3.293   0.041  0.00  0.00    +0.000 A 
ATOM      9  C   UNL     1       2.637  -2.433   0.966  0.00  0.00    +0.000 A 
ENDROOT
BRANCH   1  11
ATOM     10  C   UNL     1       2.905   1.467   0.438  0.00  0.00    +0.000 C 
ATOM     11  C   UNL     1       2.452   0.053  -0.001  0.00  0.00    +0.000 C 
ATOM     12  C   UNL     1       0.913   0.082  -0.118  0.00  0.00    +0.000 C 
ATOM     13  C   UNL     1       3.062  -0.206  -1.392  0.00  0.00    +0.000 C 
ENDBRANCH   1  11
BRANCH   3  14
ATOM     14  C   UNL     1       4.258  -2.075   4.218  0.00  0.00    +0.000 C 
BRANCH  14  15
ATOM     15  C   UNL     1       5.711  -2.414   4.201  0.00  0.00    +0.000 A 
ATOM     16  C   UNL     1       6.674  -1.573   3.674  0.00  0.00    +0.000 A 
ATOM     17  N   UNL     1       7.987  -1.863   3.638  0.00  0.00    +0.000 NA
ATOM     18  C   UNL     1       8.335  -3.053   4.151  0.00  0.00    +0.000 A 
ATOM     19  N   UNL     1       7.501  -3.941   4.712  0.00  0.00    +0.000 NA
ATOM     20  C   UNL     1       6.200  -3.596   4.722  0.00  0.00    +0.000 A 
ENDBRANCH  14  15
ENDBRANCH   3  14
TORSDOF 3
