REMARK  Name = 
REMARK  6 active torsions:
REMARK  status: ('A' for Active; 'I' for Inactive)
REMARK    1  A    between atoms: C_2  and  C_3
REMARK    2  A    between atoms: C_6  and  N_7
REMARK    3  A    between atoms: N_7  and  C_8
REMARK    4  A    between atoms: C_8  and  C_9
REMARK    5  A    between atoms: C_9  and  C_12
REMARK    6  A    between atoms: C_16  and  C_17
REMARK                            x       y       z     vdW  Elec       q    Type
REMARK                         _______ _______ _______ _____ _____    ______ ____
ROOT
ATOM      1  C   UNL     1       6.041  -1.040   0.267  0.00  0.00    +0.000 C 
ATOM      2  F   UNL     1       6.445  -0.305  -0.811  0.00  0.00    +0.000 F 
ATOM      3  F   UNL     1       6.288  -0.235   1.351  0.00  0.00    +0.000 F 
ENDROOT
BRANCH   1   4
ATOM      4  C   UNL     1       6.777  -2.360   0.388  0.00  0.00    +0.000 A 
ATOM      5  C   UNL     1       7.041  -2.889   1.660  0.00  0.00    +0.000 A 
ATOM      6  C   UNL     1       7.651  -4.129   1.799  0.00  0.00    +0.000 A 
ATOM      7  C   UNL     1       7.954  -4.879   0.667  0.00  0.00    +0.000 A 
ATOM      8  C   UNL     1       7.670  -4.403  -0.626  0.00  0.00    +0.000 A 
ATOM      9  C   UNL     1       7.138  -3.107  -0.745  0.00  0.00    +0.000 A 
BRANCH   8  10
ATOM     10  C   UNL     1       7.835  -5.271  -1.808  0.00  0.00    +0.000 A 
ATOM     11  C   UNL     1       8.750  -6.322  -1.834  0.00  0.00    +0.000 A 
ATOM     12  C   UNL     1       8.803  -7.156  -2.941  0.00  0.00    +0.000 A 
ATOM     13  C   UNL     1       7.941  -6.920  -4.004  0.00  0.00    +0.000 A 
ATOM     14  C   UNL     1       7.057  -5.866  -3.909  0.00  0.00    +0.000 A 
ATOM     15  N   UNL     1       6.986  -5.037  -2.842  0.00  0.00    +0.000 NA
ENDBRANCH   8  10
ENDBRANCH   1   4
BRANCH   1  16
ATOM     16  C   UNL     1       4.504  -1.232   0.200  0.00  0.00    +0.000 C 
BRANCH  16  17
ATOM     17  N   UNL     1       4.000  -1.893  -1.014  0.00  0.00    +0.000 N 
ATOM     18  H   UNL     1       4.630  -2.538  -1.484  0.00  0.00    +0.000 HD
BRANCH  17  22
ATOM     19  C   UNL     1      -0.110  -2.397  -1.776  0.00  0.00    +0.000 A 
ATOM     20  C   UNL     1       0.305  -1.858  -0.556  0.00  0.00    +0.000 A 
ATOM     21  C   UNL     1       1.664  -1.721  -0.274  0.00  0.00    +0.000 A 
ATOM     22  C   UNL     1       2.645  -2.137  -1.191  0.00  0.00    +0.000 A 
ATOM     23  C   UNL     1       2.210  -2.686  -2.403  0.00  0.00    +0.000 A 
ATOM     24  C   UNL     1       0.851  -2.818  -2.696  0.00  0.00    +0.000 A 
BRANCH  19  26
ATOM     25  N   UNL     1      -2.638  -2.559  -2.323  0.00  0.00    +0.000 NA
ATOM     26  C   UNL     1      -1.505  -2.494  -2.078  0.00  0.00    +0.000 C 
ENDBRANCH  19  26
ENDBRANCH  17  22
ENDBRANCH  16  17
ENDBRANCH   1  16
TORSDOF 6
