REMARK  Name = 
REMARK  4 active torsions:
REMARK  status: ('A' for Active; 'I' for Inactive)
REMARK    1  A    between atoms: C_2  and  C_4
REMARK    2  A    between atoms: C_7  and  N_8
REMARK    3  A    between atoms: N_8  and  C_9
REMARK    4  A    between atoms: C_9  and  C_10
REMARK                            x       y       z     vdW  Elec       q    Type
REMARK                         _______ _______ _______ _____ _____    ______ ____
ROOT
ATOM      1  C   UNL     1       3.211  -1.266  -0.015  0.00  0.00    +0.000 A 
ATOM      2  N   UNL     1       3.946  -1.762   1.030  0.00  0.00    +0.000 NA
ATOM      3  C   UNL     1       4.634  -2.912   0.802  0.00  0.00    +0.000 A 
ATOM      4  C   UNL     1       4.619  -3.645  -0.388  0.00  0.00    +0.000 A 
ATOM      5  C   UNL     1       3.876  -3.083  -1.429  0.00  0.00    +0.000 A 
ATOM      6  C   UNL     1       3.157  -1.892  -1.257  0.00  0.00    +0.000 A 
ATOM      7 CL   UNL     1       2.288  -1.311  -2.628  0.00  0.00    +0.000 Cl
ENDROOT
BRANCH   1   9
ATOM      8  N   UNL     1       2.625   0.491   1.570  0.00  0.00    +0.000 N 
ATOM      9  C   UNL     1       2.480   0.017   0.290  0.00  0.00    +0.000 C 
ATOM     10  O   UNL     1       1.790   0.636  -0.507  0.00  0.00    +0.000 OA
ATOM     11  H   UNL     1       2.159   1.347   1.827  0.00  0.00    +0.000 HD
ATOM     12  H   UNL     1       3.194  -0.014   2.240  0.00  0.00    +0.000 HD
ENDBRANCH   1   9
BRANCH   4  13
ATOM     13  N   UNL     1       5.423  -4.774  -0.548  0.00  0.00    +0.000 N 
ATOM     14  H   UNL     1       5.813  -5.129   0.322  0.00  0.00    +0.000 HD
BRANCH  13  15
ATOM     15  C   UNL     1       5.001  -5.871  -1.423  0.00  0.00    +0.000 C 
BRANCH  15  16
ATOM     16  C   UNL     1       6.191  -6.599  -1.992  0.00  0.00    +0.000 A 
ATOM     17  C   UNL     1       7.408  -5.966  -2.271  0.00  0.00    +0.000 A 
ATOM     18  C   UNL     1       8.448  -6.684  -2.855  0.00  0.00    +0.000 A 
ATOM     19  C   UNL     1       8.233  -8.015  -3.163  0.00  0.00    +0.000 A 
ATOM     20  N   UNL     1       7.068  -8.658  -2.935  0.00  0.00    +0.000 NA
ATOM     21  C   UNL     1       6.077  -7.936  -2.364  0.00  0.00    +0.000 A 
ENDBRANCH  15  16
ENDBRANCH  13  15
ENDBRANCH   4  13
TORSDOF 4
