REMARK  Name = 
REMARK  3 active torsions:
REMARK  status: ('A' for Active; 'I' for Inactive)
REMARK    1  A    between atoms: C_2  and  C_4
REMARK    2  A    between atoms: N_8  and  C_9
REMARK    3  A    between atoms: C_9  and  C_10
REMARK                            x       y       z     vdW  Elec       q    Type
REMARK                         _______ _______ _______ _____ _____    ______ ____
ROOT
ATOM      1  C   UNL     1       2.975   1.059  -0.778  0.00  0.00    +0.000 A 
ATOM      2  C   UNL     1       2.507   2.369  -0.724  0.00  0.00    +0.000 A 
ATOM      3  C   UNL     1       3.235   3.383  -1.357  0.00  0.00    +0.000 A 
ATOM      4  C   UNL     1       4.417   3.072  -2.035  0.00  0.00    +0.000 A 
ATOM      5  N   UNL     1       5.219   4.026  -2.665  0.00  0.00    +0.000 N 
ATOM      6  N   UNL     1       4.877   1.807  -2.091  0.00  0.00    +0.000 NA
ATOM      7  C   UNL     1       4.161   0.834  -1.459  0.00  0.00    +0.000 A 
ATOM      8  H   UNL     1       5.939   3.529  -3.184  0.00  0.00    +0.000 HD
ENDROOT
BRANCH   1  10
ATOM      9  N   UNL     1       0.962   0.011   0.107  0.00  0.00    +0.000 N 
ATOM     10  C   UNL     1       2.308  -0.083  -0.119  0.00  0.00    +0.000 C 
ATOM     11  O   UNL     1       2.928  -1.093   0.188  0.00  0.00    +0.000 OA
ATOM     12  H   UNL     1       0.513  -0.821   0.470  0.00  0.00    +0.000 HD
ATOM     13  H   UNL     1       0.377   0.698  -0.345  0.00  0.00    +0.000 HD
ENDBRANCH   1  10
BRANCH   5  14
ATOM     14  C   UNL     1       4.721   5.329  -3.141  0.00  0.00    +0.000 C 
ATOM     15  C   UNL     1       3.656   5.319  -4.225  0.00  0.00    +0.000 C 
ATOM     16  C   UNL     1       5.031   5.788  -4.563  0.00  0.00    +0.000 C 
BRANCH  14  17
ATOM     17  C   UNL     1       4.816   6.478  -2.131  0.00  0.00    +0.000 A 
ATOM     18  C   UNL     1       6.069   7.010  -1.799  0.00  0.00    +0.000 A 
ATOM     19  N   UNL     1       6.246   8.150  -1.086  0.00  0.00    +0.000 NA
ATOM     20  C   UNL     1       5.109   8.749  -0.684  0.00  0.00    +0.000 A 
ATOM     21  C   UNL     1       3.860   8.215  -0.950  0.00  0.00    +0.000 A 
ATOM     22  N   UNL     1       3.685   7.079  -1.667  0.00  0.00    +0.000 NA
ENDBRANCH  14  17
ENDBRANCH   5  14
TORSDOF 3
