REMARK  Name = 
REMARK  8 active torsions:
REMARK  status: ('A' for Active; 'I' for Inactive)
REMARK    1  A    between atoms: C_2  and  C_3
REMARK    2  A    between atoms: C_3  and  N_4
REMARK    3  A    between atoms: C_5  and  C_7
REMARK    4  A    between atoms: N_17  and  C_18
REMARK    5  A    between atoms: C_18  and  C_19
REMARK    6  A    between atoms: C_22  and  C_23
REMARK    7  A    between atoms: C_23  and  N_24
REMARK    8  A    between atoms: C_25  and  C_27
REMARK                            x       y       z     vdW  Elec       q    Type
REMARK                         _______ _______ _______ _____ _____    ______ ____
ROOT
ATOM      1  O   UNL     1       1.677  -0.205  -0.001  0.00  0.00    +0.000 OA
ATOM      2  C   UNL     1       2.162  -0.036  -1.116  0.00  0.00    +0.000 C 
ATOM      3  N   UNL     1       3.449  -0.398  -1.451  0.00  0.00    +0.000 N 
ATOM      4  H   UNL     1       3.836  -0.043  -2.320  0.00  0.00    +0.000 HD
ENDROOT
BRANCH   2   5
ATOM      5  C   UNL     1       1.405   0.685  -2.231  0.00  0.00    +0.000 C 
BRANCH   5   6
ATOM      6  N   UNL     1       1.561   2.119  -2.114  0.00  0.00    +0.000 N 
ATOM      7  C   UNL     1       2.563   2.803  -2.751  0.00  0.00    +0.000 C 
ATOM      8  O   UNL     1       3.398   2.208  -3.431  0.00  0.00    +0.000 OA
ATOM      9  H   UNL     1       0.950   2.592  -1.454  0.00  0.00    +0.000 HD
BRANCH   7  10
ATOM     10  C   UNL     1       2.597   4.266  -2.590  0.00  0.00    +0.000 A 
ATOM     11  C   UNL     1       3.576   4.998  -3.251  0.00  0.00    +0.000 A 
ATOM     12  S   UNL     1       3.491   6.676  -2.973  0.00  0.00    +0.000 S 
ATOM     13  C   UNL     1       2.142   6.496  -1.956  0.00  0.00    +0.000 A 
ATOM     14  N   UNL     1       1.572   7.579  -1.363  0.00  0.00    +0.000 NA
ATOM     15  C   UNL     1       0.558   7.306  -0.613  0.00  0.00    +0.000 A 
ATOM     16  N   UNL     1       0.056   6.047  -0.411  0.00  0.00    +0.000 N 
ATOM     17  C   UNL     1       0.594   4.926  -0.995  0.00  0.00    +0.000 A 
ATOM     18  O   UNL     1       0.108   3.817  -0.796  0.00  0.00    +0.000 OA
ATOM     19  C   UNL     1       1.751   5.172  -1.838  0.00  0.00    +0.000 A 
ATOM     20  H   UNL     1      -0.746   5.900   0.184  0.00  0.00    +0.000 HD
ENDBRANCH   7  10
ENDBRANCH   5   6
ENDBRANCH   2   5
BRANCH   3  21
ATOM     21  C   UNL     1       4.342  -1.036  -0.510  0.00  0.00    +0.000 C 
BRANCH  21  22
ATOM     22  C   UNL     1       4.859  -2.349  -1.046  0.00  0.00    +0.000 A 
ATOM     23  C   UNL     1       6.010  -2.401  -1.843  0.00  0.00    +0.000 A 
ATOM     24  C   UNL     1       6.464  -3.619  -2.361  0.00  0.00    +0.000 A 
ATOM     25  C   UNL     1       5.768  -4.809  -2.107  0.00  0.00    +0.000 A 
ATOM     26  C   UNL     1       4.630  -4.760  -1.293  0.00  0.00    +0.000 A 
ATOM     27  C   UNL     1       4.175  -3.542  -0.776  0.00  0.00    +0.000 A 
BRANCH  25  28
ATOM     28  C   UNL     1       6.212  -6.110  -2.725  0.00  0.00    +0.000 C 
BRANCH  28  29
ATOM     29  N   UNL     1       7.119  -6.857  -1.881  0.00  0.00    +0.000 N 
ATOM     30  C   UNL     1       7.566  -8.093  -2.298  0.00  0.00    +0.000 C 
ATOM     31  O   UNL     1       7.186  -8.599  -3.350  0.00  0.00    +0.000 OA
ATOM     32  H   UNL     1       7.547  -6.386  -1.097  0.00  0.00    +0.000 HD
BRANCH  30  33
ATOM     33  C   UNL     1       8.609  -8.747  -1.398  0.00  0.00    +0.000 C 
ATOM     34  C   UNL     1       9.049 -10.101  -1.923  0.00  0.00    +0.000 C 
ATOM     35  C   UNL     1       7.971 -11.021  -1.390  0.00  0.00    +0.000 C 
ATOM     36  O   UNL     1       7.554 -10.469  -0.132  0.00  0.00    +0.000 OA
ATOM     37  C   UNL     1       8.049  -9.123  -0.040  0.00  0.00    +0.000 C 
ENDBRANCH  30  33
ENDBRANCH  28  29
ENDBRANCH  25  28
ENDBRANCH  21  22
ENDBRANCH   3  21
TORSDOF 8
