REMARK  Name = 
REMARK  7 active torsions:
REMARK  status: ('A' for Active; 'I' for Inactive)
REMARK    1  A    between atoms: C_1  and  O_2
REMARK    2  A    between atoms: O_2  and  C_3
REMARK    3  A    between atoms: C_8  and  C_9
REMARK    4  A    between atoms: C_9  and  C_10
REMARK    5  A    between atoms: C_13  and  C_14
REMARK    6  A    between atoms: C_14  and  N_15
REMARK    7  A    between atoms: C_16  and  C_18
REMARK                            x       y       z     vdW  Elec       q    Type
REMARK                         _______ _______ _______ _____ _____    ______ ____
ROOT
ATOM      1  C   UNL     1       0.440  -1.082  -4.358  0.00  0.00    +0.000 C 
ENDROOT
BRANCH   1   5
ATOM      2  C   UNL     1       3.621   0.824  -2.143  0.00  0.00    +0.000 A 
ATOM      3  C   UNL     1       2.378   1.454  -2.282  0.00  0.00    +0.000 A 
ATOM      4  C   UNL     1       1.366   0.873  -3.050  0.00  0.00    +0.000 A 
ATOM      5  C   UNL     1       1.575  -0.357  -3.686  0.00  0.00    +0.000 A 
ATOM      6  C   UNL     1       2.853  -0.929  -3.642  0.00  0.00    +0.000 A 
ATOM      7  C   UNL     1       3.865  -0.348  -2.872  0.00  0.00    +0.000 A 
BRANCH   2   8
ATOM      8  C   UNL     1       4.649   1.380  -1.185  0.00  0.00    +0.000 C 
BRANCH   8  14
ATOM      9  C   UNL     1       3.900   1.323   1.272  0.00  0.00    +0.000 A 
ATOM     10  C   UNL     1       4.012   0.763   2.553  0.00  0.00    +0.000 A 
ATOM     11  C   UNL     1       4.820  -0.352   2.778  0.00  0.00    +0.000 A 
ATOM     12  C   UNL     1       5.501  -0.939   1.719  0.00  0.00    +0.000 A 
ATOM     13  C   UNL     1       5.403  -0.389   0.441  0.00  0.00    +0.000 A 
ATOM     14  C   UNL     1       4.628   0.761   0.203  0.00  0.00    +0.000 A 
BRANCH   9  16
ATOM     15  C   UNL     1       2.657   3.186   2.077  0.00  0.00    +0.000 C 
ATOM     16  O   UNL     1       3.099   2.397   0.977  0.00  0.00    +0.000 OA
ENDBRANCH   9  16
ENDBRANCH   8  14
ENDBRANCH   2   8
ENDBRANCH   1   5
BRANCH   1  17
ATOM     17  N   UNL     1       0.317  -0.744  -5.750  0.00  0.00    +0.000 N 
ATOM     18  C   UNL     1      -0.702  -1.264  -6.509  0.00  0.00    +0.000 C 
ATOM     19  O   UNL     1      -1.567  -1.993  -6.032  0.00  0.00    +0.000 OA
ATOM     20  H   UNL     1       1.139  -0.361  -6.206  0.00  0.00    +0.000 HD
BRANCH  18  21
ATOM     21  C   UNL     1      -0.740  -0.853  -7.916  0.00  0.00    +0.000 A 
ATOM     22  C   UNL     1      -1.944  -0.873  -8.608  0.00  0.00    +0.000 A 
ATOM     23  S   UNL     1      -1.818  -0.312 -10.213  0.00  0.00    +0.000 S 
ATOM     24  C   UNL     1      -0.140  -0.076 -10.057  0.00  0.00    +0.000 A 
ATOM     25  N   UNL     1       0.602   0.373 -11.101  0.00  0.00    +0.000 NA
ATOM     26  C   UNL     1       1.869   0.475 -10.852  0.00  0.00    +0.000 A 
ATOM     27  N   UNL     1       2.453   0.178  -9.649  0.00  0.00    +0.000 N 
ATOM     28  C   UNL     1       1.737  -0.251  -8.555  0.00  0.00    +0.000 A 
ATOM     29  O   UNL     1       2.290  -0.469  -7.479  0.00  0.00    +0.000 OA
ATOM     30  C   UNL     1       0.316  -0.398  -8.788  0.00  0.00    +0.000 A 
ATOM     31  H   UNL     1       3.449   0.291  -9.515  0.00  0.00    +0.000 HD
ENDBRANCH  18  21
ENDBRANCH   1  17
TORSDOF 6
