REMARK  Name = 
REMARK  8 active torsions:
REMARK  status: ('A' for Active; 'I' for Inactive)
REMARK    1  A    between atoms: N_1  and  C_2
REMARK    2  A    between atoms: C_2  and  C_3
REMARK    3  A    between atoms: C_2  and  C_18
REMARK    4  A    between atoms: C_3  and  C_4
REMARK    5  A    between atoms: C_7  and  C_8
REMARK    6  A    between atoms: C_8  and  N_9
REMARK    7  A    between atoms: N_9  and  C_10
REMARK    8  A    between atoms: C_10  and  C_11
REMARK                            x       y       z     vdW  Elec       q    Type
REMARK                         _______ _______ _______ _____ _____    ______ ____
ROOT
ATOM      1  C   UNL     1       2.942  -0.393  -1.375  0.00  0.00    +0.000 C 
ENDROOT
BRANCH   1   2
ATOM      2  C   UNL     1       2.522  -1.803  -1.708  0.00  0.00    +0.000 A 
ATOM      3  C   UNL     1       3.387  -2.876  -1.460  0.00  0.00    +0.000 A 
ATOM      4  C   UNL     1       2.998  -4.181  -1.758  0.00  0.00    +0.000 A 
ATOM      5  C   UNL     1       1.729  -4.440  -2.295  0.00  0.00    +0.000 A 
ATOM      6  C   UNL     1       0.868  -3.363  -2.547  0.00  0.00    +0.000 A 
ATOM      7  C   UNL     1       1.263  -2.056  -2.262  0.00  0.00    +0.000 A 
BRANCH   5   8
ATOM      8  C   UNL     1       1.305  -5.852  -2.614  0.00  0.00    +0.000 C 
BRANCH   8   9
ATOM      9  N   UNL     1       1.304  -6.691  -1.413  0.00  0.00    +0.000 NA
ATOM     10  H   UNL     1       0.643  -6.284  -0.749  0.00  0.00    +0.000 HD
BRANCH   9  11
ATOM     11  C   UNL     1       0.866  -8.042  -1.746  0.00  0.00    +0.000 C 
BRANCH  11  12
ATOM     12  C   UNL     1       0.878  -8.903  -0.539  0.00  0.00    +0.000 A 
ATOM     13  C   UNL     1       0.102  -9.979  -0.167  0.00  0.00    +0.000 A 
ATOM     14  C   UNL     1       0.620 -10.383   1.078  0.00  0.00    +0.000 A 
ATOM     15  N   UNL     1       1.649  -9.631   1.468  0.00  0.00    +0.000 NA
ATOM     16  N   UNL     1       1.792  -8.743   0.468  0.00  0.00    +0.000 N 
ATOM     17  H   UNL     1       2.515  -8.034   0.530  0.00  0.00    +0.000 HD
ENDBRANCH  11  12
ENDBRANCH   9  11
ENDBRANCH   8   9
ENDBRANCH   5   8
ENDBRANCH   1   2
BRANCH   1  18
ATOM     18  C   UNL     1       3.731   0.323  -2.498  0.00  0.00    +0.000 C 
BRANCH  18  19
ATOM     19  C   UNL     1       4.101   1.734  -2.103  0.00  0.00    +0.000 A 
ATOM     20  C   UNL     1       3.573   2.863  -2.711  0.00  0.00    +0.000 A 
ATOM     21  S   UNL     1       4.154   4.323  -2.043  0.00  0.00    +0.000 S 
ATOM     22  C   UNL     1       5.139   3.493  -0.927  0.00  0.00    +0.000 A 
ATOM     23  N   UNL     1       5.921   4.164  -0.039  0.00  0.00    +0.000 NA
ATOM     24  C   UNL     1       6.607   3.400   0.745  0.00  0.00    +0.000 A 
ATOM     25  N   UNL     1       6.581   2.028   0.727  0.00  0.00    +0.000 N 
ATOM     26  C   UNL     1       5.830   1.306  -0.170  0.00  0.00    +0.000 A 
ATOM     27  O   UNL     1       5.868   0.078  -0.186  0.00  0.00    +0.000 OA
ATOM     28  C   UNL     1       5.025   2.123  -1.061  0.00  0.00    +0.000 A 
ATOM     29  H   UNL     1       7.150   1.490   1.363  0.00  0.00    +0.000 HD
ENDBRANCH  18  19
BRANCH  18  30
ATOM     30  N   UNL     1       4.967  -0.345  -2.916  0.00  0.00    +0.000 NA
ATOM     31  H   UNL     1       4.727  -1.269  -3.276  0.00  0.00    +0.000 HD
ATOM     32  H   UNL     1       5.523  -0.530  -2.075  0.00  0.00    +0.000 HD
ENDBRANCH  18  30
ENDBRANCH   1  18
TORSDOF 8
