REMARK  Name = 
REMARK  6 active torsions:
REMARK  status: ('A' for Active; 'I' for Inactive)
REMARK    1  A    between atoms: N_1  and  C_2
REMARK    2  A    between atoms: C_2  and  C_3
REMARK    3  A    between atoms: C_6  and  C_7
REMARK    4  A    between atoms: C_7  and  O_8
REMARK    5  A    between atoms: O_8  and  C_9
REMARK    6  A    between atoms: C_12  and  C_13
REMARK                            x       y       z     vdW  Elec       q    Type
REMARK                         _______ _______ _______ _____ _____    ______ ____
ROOT
ATOM      1  O   UNL     1       3.880  -3.581   5.087  0.00  0.00    +0.000 OA
ENDROOT
BRANCH   1   2
ATOM      2  C   UNL     1       4.200  -4.439   6.096  0.00  0.00    +0.000 A 
ATOM      3  C   UNL     1       4.239  -5.828   6.027  0.00  0.00    +0.000 A 
ATOM      4  C   UNL     1       4.598  -6.563   7.160  0.00  0.00    +0.000 A 
ATOM      5  C   UNL     1       4.909  -5.874   8.328  0.00  0.00    +0.000 A 
ATOM      6  N   UNL     1       4.875  -4.519   8.437  0.00  0.00    +0.000 NA
ATOM      7  C   UNL     1       4.519  -3.845   7.316  0.00  0.00    +0.000 A 
BRANCH   5   8
ATOM      8  C   UNL     1       5.323  -6.634   9.550  0.00  0.00    +0.000 C 
ATOM      9  N   UNL     1       5.620  -5.869  10.645  0.00  0.00    +0.000 N 
ATOM     10  O   UNL     1       5.402  -7.856   9.574  0.00  0.00    +0.000 OA
ATOM     11  H   UNL     1       5.553  -4.859  10.581  0.00  0.00    +0.000 HD
ATOM     12  H   UNL     1       5.925  -6.312  11.498  0.00  0.00    +0.000 HD
ENDBRANCH   5   8
ENDBRANCH   1   2
BRANCH   1  13
ATOM     13  C   UNL     1       3.624  -4.142   3.797  0.00  0.00    +0.000 C 
BRANCH  13  17
ATOM     14  C   UNL     1       2.766  -1.002   0.922  0.00  0.00    +0.000 A 
ATOM     15  C   UNL     1       3.635  -0.763   1.995  0.00  0.00    +0.000 A 
ATOM     16  C   UNL     1       3.925  -1.772   2.918  0.00  0.00    +0.000 A 
ATOM     17  C   UNL     1       3.336  -3.038   2.802  0.00  0.00    +0.000 A 
ATOM     18  C   UNL     1       2.497  -3.288   1.707  0.00  0.00    +0.000 A 
ATOM     19  C   UNL     1       2.211  -2.280   0.780  0.00  0.00    +0.000 A 
BRANCH  14  20
ATOM     20  C   UNL     1       2.405   0.106  -0.035  0.00  0.00    +0.000 C 
BRANCH  20  21
ATOM     21  N   UNL     1       3.583   0.672  -0.681  0.00  0.00    +0.000 NA
ATOM     22  H   UNL     1       3.284   1.316  -1.411  0.00  0.00    +0.000 HD
ATOM     23  H   UNL     1       4.092  -0.077  -1.147  0.00  0.00    +0.000 HD
ENDBRANCH  20  21
ENDBRANCH  14  20
ENDBRANCH  13  17
ENDBRANCH   1  13
TORSDOF 6
