REMARK  Name = 
REMARK  12 active torsions:
REMARK  status: ('A' for Active; 'I' for Inactive)
REMARK    1  A    between atoms: C_1  and  C_2
REMARK    2  A    between atoms: C_2  and  C_3
REMARK    3  A    between atoms: C_5  and  O_6
REMARK    4  A    between atoms: O_6  and  C_7
REMARK    5  A    between atoms: C_11  and  C_12
REMARK    6  A    between atoms: C_12  and  C_13
REMARK    7  A    between atoms: C_12  and  C_14
REMARK    8  A    between atoms: C_12  and  C_15
REMARK    9  A    between atoms: C_15  and  N_16
REMARK   10  A    between atoms: N_16  and  C_17
REMARK   11  A    between atoms: C_20  and  S_21
REMARK   12  A    between atoms: S_21  and  N_22
REMARK                            x       y       z     vdW  Elec       q    Type
REMARK                         _______ _______ _______ _____ _____    ______ ____
ROOT
ATOM      1  C   UNL     1      -7.619   0.838   0.959  0.00  0.00    +0.000 C 
ATOM      2  C   UNL     1      -7.667   2.142   0.129  0.00  0.00    +0.000 C 
ATOM      3  C   UNL     1      -8.041  -0.340   0.051  0.00  0.00    +0.000 C 
ENDROOT
BRANCH   1   8
ATOM      4  C   UNL     1      -4.615   0.147   3.291  0.00  0.00    +0.000 A 
ATOM      5  C   UNL     1      -3.583  -0.049   2.384  0.00  0.00    +0.000 A 
ATOM      6  C   UNL     1      -3.821   0.130   1.023  0.00  0.00    +0.000 A 
ATOM      7  C   UNL     1      -5.106   0.448   0.566  0.00  0.00    +0.000 A 
ATOM      8  C   UNL     1      -6.179   0.606   1.461  0.00  0.00    +0.000 A 
ATOM      9  C   UNL     1      -5.884   0.498   2.829  0.00  0.00    +0.000 A 
BRANCH   4  10
ATOM     10  O   UNL     1      -4.329  -0.054   4.621  0.00  0.00    +0.000 OA
BRANCH  10  15
ATOM     11  C   UNL     1      -6.395   2.395   7.788  0.00  0.00    +0.000 C 
ATOM     12  C   UNL     1      -5.029   2.102   7.166  0.00  0.00    +0.000 C 
ATOM     13  C   UNL     1      -3.920   2.930   7.802  0.00  0.00    +0.000 C 
ATOM     14  C   UNL     1      -5.040   2.165   5.620  0.00  0.00    +0.000 C 
ATOM     15  C   UNL     1      -5.171   0.623   5.584  0.00  0.00    +0.000 C 
ATOM     16  C   UNL     1      -4.675   0.594   7.044  0.00  0.00    +0.000 C 
ENDBRANCH  10  15
ENDBRANCH   4  10
ENDBRANCH   1   8
BRANCH   1  17
ATOM     17  C   UNL     1      -8.691   1.000   2.093  0.00  0.00    +0.000 C 
BRANCH  17  18
ATOM     18  N   UNL     1      -8.881  -0.218   2.891  0.00  0.00    +0.000 N 
ATOM     19  H   UNL     1      -8.091  -0.861   2.882  0.00  0.00    +0.000 HD
BRANCH  18  20
ATOM     20  C   UNL     1      -9.527  -0.155   4.126  0.00  0.00    +0.000 A 
ATOM     21  C   UNL     1     -10.393   0.887   4.481  0.00  0.00    +0.000 A 
ATOM     22  C   UNL     1     -11.145   0.839   5.657  0.00  0.00    +0.000 A 
ATOM     23  C   UNL     1     -11.055  -0.280   6.482  0.00  0.00    +0.000 A 
ATOM     24  C   UNL     1     -10.173  -1.316   6.178  0.00  0.00    +0.000 A 
ATOM     25  C   UNL     1      -9.426  -1.252   4.998  0.00  0.00    +0.000 A 
BRANCH  23  26
ATOM     26  S   UNL     1     -12.113  -0.406   7.894  0.00  0.00    +0.000 S 
ATOM     27  O   UNL     1     -11.523  -1.316   8.849  0.00  0.00    +0.000 OA
ATOM     28  O   UNL     1     -12.577   0.910   8.260  0.00  0.00    +0.000 OA
BRANCH  26  29
ATOM     29  N   UNL     1     -13.432  -1.204   7.234  0.00  0.00    +0.000 NA
ATOM     30  H   UNL     1     -13.549  -2.119   7.667  0.00  0.00    +0.000 HD
ATOM     31  H   UNL     1     -14.259  -0.611   7.262  0.00  0.00    +0.000 HD
ENDBRANCH  26  29
ENDBRANCH  23  26
ENDBRANCH  18  20
ENDBRANCH  17  18
ENDBRANCH   1  17
TORSDOF 8
