REMARK  Name = 
REMARK  5 active torsions:
REMARK  status: ('A' for Active; 'I' for Inactive)
REMARK    1  A    between atoms: N_1  and  C_2
REMARK    2  A    between atoms: C_2  and  C_3
REMARK    3  A    between atoms: C_3  and  C_4
REMARK    4  A    between atoms: C_7  and  C_8
REMARK    5  A    between atoms: C_8  and  N_9
REMARK                            x       y       z     vdW  Elec       q    Type
REMARK                         _______ _______ _______ _____ _____    ______ ____
ROOT
ATOM      1  C   UNL     1       4.340   0.423  -1.326  0.00  0.00    +0.000 A 
ATOM      2  C   UNL     1       5.021   0.873  -2.459  0.00  0.00    +0.000 A 
ATOM      3  C   UNL     1       6.415   0.901  -2.471  0.00  0.00    +0.000 A 
ATOM      4  C   UNL     1       7.107   0.476  -1.340  0.00  0.00    +0.000 A 
ATOM      5  N   UNL     1       6.466  -0.008  -0.244  0.00  0.00    +0.000 NA
ATOM      6  C   UNL     1       5.112  -0.023  -0.261  0.00  0.00    +0.000 A 
ENDROOT
BRANCH   1   7
ATOM      7  C   UNL     1       2.836   0.458  -1.253  0.00  0.00    +0.000 C 
BRANCH   7   8
ATOM      8  C   UNL     1       2.167  -0.817  -1.775  0.00  0.00    +0.000 C 
BRANCH   8   9
ATOM      9  N   UNL     1       0.710  -0.703  -1.708  0.00  0.00    +0.000 NA
ATOM     10  H   UNL     1       0.284  -1.554  -2.076  0.00  0.00    +0.000 HD
ATOM     11  H   UNL     1       0.392   0.055  -2.312  0.00  0.00    +0.000 HD
ENDBRANCH   8   9
ENDBRANCH   7   8
ENDBRANCH   1   7
BRANCH   4  12
ATOM     12  C   UNL     1       8.610   0.552  -1.263  0.00  0.00    +0.000 C 
BRANCH  12  13
ATOM     13  N   UNL     1       9.077   1.821  -0.722  0.00  0.00    +0.000 N 
ATOM     14  C   UNL     1       8.796   2.293   0.535  0.00  0.00    +0.000 A 
ATOM     15  N   UNL     1       9.450   3.400   0.801  0.00  0.00    +0.000 NA
ATOM     16  C   UNL     1      10.215   3.642  -0.313  0.00  0.00    +0.000 A 
ATOM     17  C   UNL     1      11.138   4.673  -0.549  0.00  0.00    +0.000 A 
ATOM     18  C   UNL     1      11.834   4.691  -1.764  0.00  0.00    +0.000 A 
ATOM     19  C   UNL     1      11.601   3.713  -2.730  0.00  0.00    +0.000 A 
ATOM     20  C   UNL     1      10.674   2.684  -2.520  0.00  0.00    +0.000 A 
ATOM     21  C   UNL     1       9.998   2.672  -1.291  0.00  0.00    +0.000 A 
ENDBRANCH  12  13
ENDBRANCH   4  12
TORSDOF 5
