REMARK  Name = 
REMARK  5 active torsions:
REMARK  status: ('A' for Active; 'I' for Inactive)
REMARK    1  A    between atoms: C_2  and  C_4
REMARK    2  A    between atoms: C_7  and  N_8
REMARK    3  A    between atoms: N_8  and  C_9
REMARK    4  A    between atoms: C_9  and  C_10
REMARK    5  A    between atoms: C_14  and  N_15
REMARK                            x       y       z     vdW  Elec       q    Type
REMARK                         _______ _______ _______ _____ _____    ______ ____
ROOT
ATOM      1  N   UNL     1       4.675   2.373  -4.671  0.00  0.00    +0.000 N 
ATOM      2  H   UNL     1       5.628   2.020  -4.537  0.00  0.00    +0.000 HD
ENDROOT
BRANCH   1   6
ATOM      3  C   UNL     1       1.969  -0.408  -6.289  0.00  0.00    +0.000 A 
ATOM      4  C   UNL     1       1.894   0.928  -6.677  0.00  0.00    +0.000 A 
ATOM      5  C   UNL     1       2.801   1.853  -6.162  0.00  0.00    +0.000 A 
ATOM      6  C   UNL     1       3.812   1.468  -5.270  0.00  0.00    +0.000 A 
ATOM      7  C   UNL     1       3.854   0.122  -4.872  0.00  0.00    +0.000 A 
ATOM      8  C   UNL     1       2.937  -0.809  -5.373  0.00  0.00    +0.000 A 
BRANCH   3  10
ATOM      9  N   UNL     1       0.507  -1.175  -8.061  0.00  0.00    +0.000 N 
ATOM     10  C   UNL     1       1.004  -1.402  -6.812  0.00  0.00    +0.000 C 
ATOM     11  O   UNL     1       0.693  -2.401  -6.172  0.00  0.00    +0.000 OA
ATOM     12  H   UNL     1      -0.073  -1.903  -8.459  0.00  0.00    +0.000 HD
ATOM     13  H   UNL     1       0.934  -0.516  -8.697  0.00  0.00    +0.000 HD
ENDBRANCH   3  10
ENDBRANCH   1   6
BRANCH   1  14
ATOM     14  C   UNL     1       4.599   3.794  -4.967  0.00  0.00    +0.000 C 
BRANCH  14  15
ATOM     15  C   UNL     1       5.418   4.237  -6.160  0.00  0.00    +0.000 A 
ATOM     16  C   UNL     1       5.391   5.601  -6.497  0.00  0.00    +0.000 A 
ATOM     17  C   UNL     1       6.153   6.079  -7.555  0.00  0.00    +0.000 A 
ATOM     18  C   UNL     1       6.983   5.210  -8.248  0.00  0.00    +0.000 A 
ATOM     19  C   UNL     1       7.059   3.844  -7.932  0.00  0.00    +0.000 A 
ATOM     20  C   UNL     1       6.218   3.365  -6.923  0.00  0.00    +0.000 A 
BRANCH  19  21
ATOM     21  N   UNL     1       7.986   3.053  -8.589  0.00  0.00    +0.000 N 
ATOM     22  C   UNL     1       7.778   1.633  -8.862  0.00  0.00    +0.000 C 
ATOM     23  C   UNL     1       8.678   0.752  -7.999  0.00  0.00    +0.000 C 
ATOM     24  C   UNL     1      10.135   1.211  -8.043  0.00  0.00    +0.000 C 
ATOM     25  C   UNL     1      10.245   2.688  -7.682  0.00  0.00    +0.000 C 
ATOM     26  C   UNL     1       9.375   3.540  -8.598  0.00  0.00    +0.000 C 
ENDBRANCH  19  21
ENDBRANCH  14  15
ENDBRANCH   1  14
TORSDOF 5
