REMARK  Name = 
REMARK  4 active torsions:
REMARK  status: ('A' for Active; 'I' for Inactive)
REMARK    1  A    between atoms: C_2  and  C_4
REMARK    2  A    between atoms: N_8  and  C_9
REMARK    3  A    between atoms: C_9  and  C_10
REMARK    4  A    between atoms: C_14  and  C_15
REMARK                            x       y       z     vdW  Elec       q    Type
REMARK                         _______ _______ _______ _____ _____    ______ ____
ROOT
ATOM      1  C   UNL     1       5.201  -1.019   5.877  0.00  0.00    +0.000 C 
ATOM      2  C   UNL     1       5.174  -2.529   6.072  0.00  0.00    +0.000 C 
ATOM      3  C   UNL     1       3.944  -1.730   6.335  0.00  0.00    +0.000 C 
ENDROOT
BRANCH   1   8
ATOM      4  C   UNL     1       3.513   2.555   2.488  0.00  0.00    +0.000 A 
ATOM      5  C   UNL     1       2.762   1.796   3.383  0.00  0.00    +0.000 A 
ATOM      6  C   UNL     1       3.385   0.767   4.098  0.00  0.00    +0.000 A 
ATOM      7  C   UNL     1       4.735   0.510   3.900  0.00  0.00    +0.000 A 
ATOM      8  N   UNL     1       5.405  -0.573   4.482  0.00  0.00    +0.000 N 
ATOM      9  N   UNL     1       5.474   1.242   3.037  0.00  0.00    +0.000 NA
ATOM     10  C   UNL     1       4.855   2.239   2.351  0.00  0.00    +0.000 A 
ATOM     11  H   UNL     1       6.379  -0.452   4.210  0.00  0.00    +0.000 HD
BRANCH   4  13
ATOM     12  N   UNL     1       1.806   4.239   2.115  0.00  0.00    +0.000 N 
ATOM     13  C   UNL     1       2.936   3.627   1.655  0.00  0.00    +0.000 C 
ATOM     14  O   UNL     1       3.459   3.970   0.600  0.00  0.00    +0.000 OA
ATOM     15  H   UNL     1       1.470   5.027   1.580  0.00  0.00    +0.000 HD
ATOM     16  H   UNL     1       1.486   4.157   3.069  0.00  0.00    +0.000 HD
ENDBRANCH   4  13
ENDBRANCH   1   8
BRANCH   1  17
ATOM     17  C   UNL     1       5.964  -0.161   6.882  0.00  0.00    +0.000 A 
ATOM     18  C   UNL     1       7.251  -0.496   7.330  0.00  0.00    +0.000 A 
ATOM     19  C   UNL     1       7.992   0.381   8.121  0.00  0.00    +0.000 A 
ATOM     20  C   UNL     1       7.471   1.632   8.455  0.00  0.00    +0.000 A 
ATOM     21  C   UNL     1       6.194   2.023   8.024  0.00  0.00    +0.000 A 
ATOM     22  C   UNL     1       5.448   1.087   7.282  0.00  0.00    +0.000 A 
BRANCH  21  23
ATOM     23  C   UNL     1       5.689   3.401   8.206  0.00  0.00    +0.000 A 
ATOM     24  C   UNL     1       6.547   4.505   8.060  0.00  0.00    +0.000 A 
ATOM     25  C   UNL     1       6.053   5.808   8.094  0.00  0.00    +0.000 A 
ATOM     26  F   UNL     1       6.897   6.833   7.924  0.00  0.00    +0.000 F 
ATOM     27  C   UNL     1       4.703   6.059   8.271  0.00  0.00    +0.000 A 
ATOM     28  C   UNL     1       3.849   4.981   8.437  0.00  0.00    +0.000 A 
ATOM     29  F   UNL     1       2.537   5.199   8.591  0.00  0.00    +0.000 F 
ATOM     30  C   UNL     1       4.325   3.670   8.419  0.00  0.00    +0.000 A 
ENDBRANCH  21  23
ENDBRANCH   1  17
TORSDOF 4
