REMARK  Name = 
REMARK  7 active torsions:
REMARK  status: ('A' for Active; 'I' for Inactive)
REMARK    1  A    between atoms: C_1  and  C_2
REMARK    2  A    between atoms: C_3  and  C_4
REMARK    3  A    between atoms: C_7  and  C_8
REMARK    4  A    between atoms: C_15  and  C_16
REMARK    5  A    between atoms: C_15  and  C_18
REMARK    6  A    between atoms: C_16  and  O_17
REMARK    7  A    between atoms: C_21  and  C_22
REMARK                            x       y       z     vdW  Elec       q    Type
REMARK                         _______ _______ _______ _____ _____    ______ ____
ROOT
ATOM      1  C   UNL     1       1.860   0.086   1.895  0.00  0.00    +0.000 C 
ATOM      2  C   UNL     1       0.848   0.108   0.756  0.00  0.00    +0.000 C 
ATOM      3  C   UNL     1      -0.028  -1.156   0.598  0.00  0.00    +0.000 C 
ATOM      4  C   UNL     1      -1.149  -0.696  -0.346  0.00  0.00    +0.000 C 
ATOM      5  C   UNL     1      -1.219   0.836  -0.301  0.00  0.00    +0.000 C 
ATOM      6  C   UNL     1      -0.098   1.355   0.650  0.00  0.00    +0.000 C 
ENDROOT
BRANCH   3   7
ATOM      7  C   UNL     1      -0.492  -1.928   1.824  0.00  0.00    +0.000 A 
ATOM      8  C   UNL     1       0.342  -2.913   2.354  0.00  0.00    +0.000 A 
ATOM      9  C   UNL     1      -0.135  -3.750   3.365  0.00  0.00    +0.000 A 
ATOM     10  C   UNL     1      -1.435  -3.596   3.845  0.00  0.00    +0.000 A 
ATOM     11  C   UNL     1      -2.180  -2.567   3.303  0.00  0.00    +0.000 A 
ATOM     12  N   UNL     1      -1.745  -1.744   2.306  0.00  0.00    +0.000 NA
BRANCH  10  13
ATOM     13  C   UNL     1      -1.936  -4.563   4.857  0.00  0.00    +0.000 C 
ATOM     14  N   UNL     1      -3.202  -4.421   5.350  0.00  0.00    +0.000 N 
ATOM     15  O   UNL     1      -1.241  -5.500   5.234  0.00  0.00    +0.000 OA
ATOM     16  H   UNL     1      -3.859  -3.695   5.116  0.00  0.00    +0.000 HD
ATOM     17  H   UNL     1      -3.504  -5.127   6.013  0.00  0.00    +0.000 HD
ENDBRANCH  10  13
ENDBRANCH   3   7
BRANCH   6  18
ATOM     18  C   UNL     1      -0.621   1.830   2.020  0.00  0.00    +0.000 A 
ATOM     19  C   UNL     1      -1.766   1.299   2.619  0.00  0.00    +0.000 A 
ATOM     20  C   UNL     1      -2.130   1.642   3.924  0.00  0.00    +0.000 A 
ATOM     21  C   UNL     1      -1.356   2.556   4.629  0.00  0.00    +0.000 A 
ATOM     22  N   UNL     1      -0.291   3.166   4.044  0.00  0.00    +0.000 NA
ATOM     23  C   UNL     1       0.047   2.789   2.786  0.00  0.00    +0.000 A 
BRANCH  21  24
ATOM     24  C   UNL     1      -1.664   2.848   6.092  0.00  0.00    +0.000 C 
ATOM     25  F   UNL     1      -2.698   2.099   6.584  0.00  0.00    +0.000 F 
ATOM     26  F   UNL     1      -0.610   2.585   6.919  0.00  0.00    +0.000 F 
ATOM     27  F   UNL     1      -2.013   4.145   6.326  0.00  0.00    +0.000 F 
ENDBRANCH  21  24
ENDBRANCH   6  18
BRANCH   6  28
ATOM     28  C   UNL     1       0.668   2.494  -0.101  0.00  0.00    +0.000 C 
BRANCH  28  29
ATOM     29  O   UNL     1      -0.180   3.580  -0.460  0.00  0.00    +0.000 OA
ATOM     30  H   UNL     1      -0.613   3.917   0.343  0.00  0.00    +0.000 HD
ENDBRANCH  28  29
ENDBRANCH   6  28
TORSDOF 6
