REMARK  Name = 
REMARK  7 active torsions:
REMARK  status: ('A' for Active; 'I' for Inactive)
REMARK    1  A    between atoms: C_1  and  C_2
REMARK    2  A    between atoms: C_2  and  N_3
REMARK    3  A    between atoms: C_2  and  C_16
REMARK    4  A    between atoms: C_4  and  C_6
REMARK    5  A    between atoms: C_19  and  C_20
REMARK    6  A    between atoms: C_20  and  N_21
REMARK    7  A    between atoms: C_22  and  C_24
REMARK                            x       y       z     vdW  Elec       q    Type
REMARK                         _______ _______ _______ _____ _____    ______ ____
ROOT
ATOM      1  C   UNL     1       3.174   0.250  -1.400  0.00  0.00    +0.000 C 
ATOM      2  C   UNL     1       2.523  -0.019  -0.036  0.00  0.00    +0.000 C 
ENDROOT
BRANCH   2   3
ATOM      3  C   UNL     1       2.969  -1.375   0.503  0.00  0.00    +0.000 A 
ATOM      4  C   UNL     1       3.694  -1.475   1.698  0.00  0.00    +0.000 A 
ATOM      5  C   UNL     1       4.082  -2.726   2.199  0.00  0.00    +0.000 A 
ATOM      6  C   UNL     1       3.760  -3.906   1.513  0.00  0.00    +0.000 A 
ATOM      7  C   UNL     1       3.027  -3.809   0.325  0.00  0.00    +0.000 A 
ATOM      8  C   UNL     1       2.641  -2.562  -0.175  0.00  0.00    +0.000 A 
BRANCH   6   9
ATOM      9  C   UNL     1       4.157  -5.255   2.057  0.00  0.00    +0.000 C 
BRANCH   9  10
ATOM     10  N   UNL     1       3.151  -5.779   2.949  0.00  0.00    +0.000 N 
ATOM     11  C   UNL     1       3.257  -7.038   3.488  0.00  0.00    +0.000 C 
ATOM     12  O   UNL     1       4.192  -7.789   3.225  0.00  0.00    +0.000 OA
ATOM     13  H   UNL     1       2.408  -5.161   3.241  0.00  0.00    +0.000 HD
BRANCH  11  14
ATOM     14  C   UNL     1       2.199  -7.419   4.389  0.00  0.00    +0.000 A 
ATOM     15  C   UNL     1       1.047  -6.787   4.816  0.00  0.00    +0.000 A 
ATOM     16  N   UNL     1       0.340  -7.567   5.696  0.00  0.00    +0.000 NA
ATOM     17  C   UNL     1       1.040  -8.671   5.814  0.00  0.00    +0.000 A 
ATOM     18  N   UNL     1       2.166  -8.631   5.045  0.00  0.00    +0.000 N 
ATOM     19  H   UNL     1       2.865  -9.358   4.958  0.00  0.00    +0.000 HD
ENDBRANCH  11  14
ENDBRANCH   9  10
ENDBRANCH   6   9
ENDBRANCH   2   3
BRANCH   2  20
ATOM     20  N   UNL     1       1.066   0.020  -0.090  0.00  0.00    +0.000 N 
ATOM     21  C   UNL     1       0.351   1.124  -0.480  0.00  0.00    +0.000 C 
ATOM     22  O   UNL     1       0.884   2.155  -0.878  0.00  0.00    +0.000 OA
ATOM     23  H   UNL     1       0.591  -0.664   0.493  0.00  0.00    +0.000 HD
BRANCH  21  24
ATOM     24  C   UNL     1      -1.112   0.994  -0.459  0.00  0.00    +0.000 A 
ATOM     25  C   UNL     1      -1.882   1.748  -1.336  0.00  0.00    +0.000 A 
ATOM     26  S   UNL     1      -3.559   1.485  -1.174  0.00  0.00    +0.000 S 
ATOM     27  C   UNL     1      -3.318   0.384   0.100  0.00  0.00    +0.000 A 
ATOM     28  N   UNL     1      -4.373  -0.191   0.737  0.00  0.00    +0.000 NA
ATOM     29  C   UNL     1      -4.045  -0.981   1.705  0.00  0.00    +0.000 A 
ATOM     30  N   UNL     1      -2.757  -1.262   2.082  0.00  0.00    +0.000 N 
ATOM     31  C   UNL     1      -1.660  -0.740   1.438  0.00  0.00    +0.000 A 
ATOM     32  O   UNL     1      -0.520  -1.069   1.746  0.00  0.00    +0.000 OA
ATOM     33  C   UNL     1      -1.975   0.188   0.370  0.00  0.00    +0.000 A 
ATOM     34  H   UNL     1      -2.569  -1.910   2.832  0.00  0.00    +0.000 HD
ENDBRANCH  21  24
ENDBRANCH   2  20
TORSDOF 6
