REMARK  Name = 
REMARK  8 active torsions:
REMARK  status: ('A' for Active; 'I' for Inactive)
REMARK    1  A    between atoms: C_1  and  O_2
REMARK    2  A    between atoms: O_2  and  C_3
REMARK    3  A    between atoms: C_8  and  C_9
REMARK    4  A    between atoms: N_11  and  C_12
REMARK    5  A    between atoms: C_12  and  C_13
REMARK    6  A    between atoms: C_16  and  C_17
REMARK    7  A    between atoms: C_17  and  N_18
REMARK    8  A    between atoms: C_19  and  C_21
REMARK                            x       y       z     vdW  Elec       q    Type
REMARK                         _______ _______ _______ _____ _____    ______ ____
ROOT
ATOM      1  C   UNL     1       2.798  -0.238   4.293  0.00  0.00    +0.000 A 
ATOM      2  C   UNL     1       1.777  -0.820   5.058  0.00  0.00    +0.000 A 
ATOM      3  C   UNL     1       0.877  -0.022   5.782  0.00  0.00    +0.000 A 
ATOM      4  C   UNL     1       0.967   1.377   5.737  0.00  0.00    +0.000 A 
ATOM      5  C   UNL     1       1.984   1.954   4.964  0.00  0.00    +0.000 A 
ATOM      6  C   UNL     1       2.879   1.158   4.240  0.00  0.00    +0.000 A 
ENDROOT
BRANCH   1   7
ATOM      7  C   UNL     1       3.794  -1.092   3.550  0.00  0.00    +0.000 C 
BRANCH   7  10
ATOM      8  C   UNL     1       4.122  -2.186   1.372  0.00  0.00    +0.000 C 
ATOM      9  O   UNL     1       5.223  -2.617   1.708  0.00  0.00    +0.000 OA
ATOM     10  N   UNL     1       3.360  -1.409   2.213  0.00  0.00    +0.000 N 
ATOM     11  H   UNL     1       2.469  -1.055   1.880  0.00  0.00    +0.000 HD
BRANCH   8  17
ATOM     12  C   UNL     1       2.293  -2.122  -0.449  0.00  0.00    +0.000 A 
ATOM     13  C   UNL     1       1.839  -2.588  -1.694  0.00  0.00    +0.000 A 
ATOM     14  C   UNL     1       2.619  -3.448  -2.468  0.00  0.00    +0.000 A 
ATOM     15  C   UNL     1       3.875  -3.836  -2.020  0.00  0.00    +0.000 A 
ATOM     16  C   UNL     1       4.339  -3.383  -0.784  0.00  0.00    +0.000 A 
ATOM     17  C   UNL     1       3.555  -2.535   0.024  0.00  0.00    +0.000 A 
BRANCH  12  19
ATOM     18  C   UNL     1       0.159  -1.233   0.110  0.00  0.00    +0.000 C 
ATOM     19  O   UNL     1       1.570  -1.233   0.308  0.00  0.00    +0.000 OA
ENDBRANCH  12  19
ENDBRANCH   8  17
ENDBRANCH   7  10
ENDBRANCH   1   7
BRANCH   4  20
ATOM     20  C   UNL     1       0.019   2.260   6.514  0.00  0.00    +0.000 C 
BRANCH  20  21
ATOM     21  N   UNL     1       0.529   2.565   7.829  0.00  0.00    +0.000 N 
ATOM     22  C   UNL     1      -0.177   3.334   8.722  0.00  0.00    +0.000 C 
ATOM     23  O   UNL     1      -1.294   3.773   8.470  0.00  0.00    +0.000 OA
ATOM     24  H   UNL     1       1.535   2.492   7.947  0.00  0.00    +0.000 HD
BRANCH  22  25
ATOM     25  C   UNL     1       0.456   3.551  10.031  0.00  0.00    +0.000 A 
ATOM     26  C   UNL     1      -0.323   3.792  11.155  0.00  0.00    +0.000 A 
ATOM     27  S   UNL     1       0.587   3.977  12.589  0.00  0.00    +0.000 S 
ATOM     28  C   UNL     1       2.059   3.790  11.749  0.00  0.00    +0.000 A 
ATOM     29  N   UNL     1       3.249   3.871  12.394  0.00  0.00    +0.000 NA
ATOM     30  C   UNL     1       4.283   3.736  11.628  0.00  0.00    +0.000 A 
ATOM     31  N   UNL     1       4.226   3.518  10.276  0.00  0.00    +0.000 N 
ATOM     32  C   UNL     1       3.044   3.394   9.589  0.00  0.00    +0.000 A 
ATOM     33  O   UNL     1       3.027   3.146   8.389  0.00  0.00    +0.000 OA
ATOM     34  C   UNL     1       1.852   3.561  10.399  0.00  0.00    +0.000 A 
ATOM     35  H   UNL     1       5.070   3.403   9.734  0.00  0.00    +0.000 HD
ENDBRANCH  22  25
ENDBRANCH  20  21
ENDBRANCH   4  20
TORSDOF 7
