REMARK  Name = 
REMARK  7 active torsions:
REMARK  status: ('A' for Active; 'I' for Inactive)
REMARK    1  A    between atoms: C_2  and  C_21
REMARK    2  A    between atoms: N_3  and  C_4
REMARK    3  A    between atoms: C_4  and  C_5
REMARK    4  A    between atoms: C_8  and  C_9
REMARK    5  A    between atoms: C_9  and  O_10
REMARK    6  A    between atoms: C_9  and  C_11
REMARK    7  A    between atoms: C_11  and  N_12
REMARK                            x       y       z     vdW  Elec       q    Type
REMARK                         _______ _______ _______ _____ _____    ______ ____
ROOT
ATOM      1  C   UNL     1       3.334  -0.191  -3.511  0.00  0.00    +0.000 A 
ATOM      2  C   UNL     1       3.751   1.057  -3.996  0.00  0.00    +0.000 A 
ATOM      3  C   UNL     1       4.697   1.140  -5.028  0.00  0.00    +0.000 A 
ATOM      4  C   UNL     1       5.243  -0.019  -5.605  0.00  0.00    +0.000 A 
ATOM      5  C   UNL     1       4.784  -1.260  -5.137  0.00  0.00    +0.000 A 
ATOM      6  C   UNL     1       3.841  -1.345  -4.112  0.00  0.00    +0.000 A 
ENDROOT
BRANCH   1   7
ATOM      7  C   UNL     1       2.298  -0.326  -2.417  0.00  0.00    +0.000 C 
BRANCH   7  10
ATOM      8  O   UNL     1       0.601  -2.540  -3.084  0.00  0.00    +0.000 OA
ATOM      9  C   UNL     1       0.298  -1.394  -3.393  0.00  0.00    +0.000 C 
ATOM     10  N   UNL     1       0.983  -0.268  -2.999  0.00  0.00    +0.000 N 
ATOM     11  H   UNL     1       0.769   0.595  -3.472  0.00  0.00    +0.000 HD
BRANCH   9  12
ATOM     12  C   UNL     1      -0.715  -1.078  -4.398  0.00  0.00    +0.000 A 
ATOM     13  C   UNL     1      -0.889  -1.825  -5.550  0.00  0.00    +0.000 A 
ATOM     14  S   UNL     1      -1.722  -0.937  -6.759  0.00  0.00    +0.000 S 
ATOM     15  C   UNL     1      -1.960   0.385  -5.708  0.00  0.00    +0.000 A 
ATOM     16  N   UNL     1      -2.478   1.572  -6.125  0.00  0.00    +0.000 NA
ATOM     17  C   UNL     1      -2.630   2.444  -5.183  0.00  0.00    +0.000 A 
ATOM     18  N   UNL     1      -2.364   2.223  -3.852  0.00  0.00    +0.000 N 
ATOM     19  C   UNL     1      -1.855   1.037  -3.380  0.00  0.00    +0.000 A 
ATOM     20  O   UNL     1      -1.695   0.828  -2.186  0.00  0.00    +0.000 OA
ATOM     21  C   UNL     1      -1.548   0.085  -4.428  0.00  0.00    +0.000 A 
ATOM     22  H   UNL     1      -2.586   2.916  -3.154  0.00  0.00    +0.000 HD
ENDBRANCH   9  12
ENDBRANCH   7  10
ENDBRANCH   1   7
BRANCH   4  23
ATOM     23  C   UNL     1       6.302   0.114  -6.694  0.00  0.00    +0.000 C 
BRANCH  23  24
ATOM     24  O   UNL     1       7.442   0.792  -6.143  0.00  0.00    +0.000 OA
ATOM     25  H   UNL     1       7.529   0.499  -5.220  0.00  0.00    +0.000 HD
ENDBRANCH  23  24
BRANCH  23  26
ATOM     26  C   UNL     1       6.770  -1.235  -7.292  0.00  0.00    +0.000 C 
BRANCH  26  27
ATOM     27  N   UNL     1       7.760  -1.058  -8.351  0.00  0.00    +0.000 N 
ATOM     28  C   UNL     1       8.235  -2.276  -8.829  0.00  0.00    +0.000 A 
ATOM     29  N   UNL     1       7.415  -3.338  -8.877  0.00  0.00    +0.000 NA
ATOM     30  C   UNL     1       7.923  -4.492  -9.343  0.00  0.00    +0.000 A 
ATOM     31  C   UNL     1       9.221  -4.629  -9.759  0.00  0.00    +0.000 A 
ATOM     32  C   UNL     1       9.984  -3.493  -9.667  0.00  0.00    +0.000 A 
ATOM     33  N   UNL     1       9.521  -2.314  -9.203  0.00  0.00    +0.000 NA
ATOM     34  H   UNL     1       8.566  -0.503  -8.082  0.00  0.00    +0.000 HD
ENDBRANCH  26  27
ENDBRANCH  23  26
ENDBRANCH   4  23
TORSDOF 7
