REMARK  Name = 
REMARK  10 active torsions:
REMARK  status: ('A' for Active; 'I' for Inactive)
REMARK    1  A    between atoms: C_1  and  O_2
REMARK    2  A    between atoms: O_2  and  C_3
REMARK    3  A    between atoms: C_10  and  C_11
REMARK    4  A    between atoms: N_13  and  C_14
REMARK    5  A    between atoms: C_14  and  C_15
REMARK    6  A    between atoms: C_18  and  C_19
REMARK    7  A    between atoms: C_19  and  N_20
REMARK    8  A    between atoms: N_20  and  C_21
REMARK    9  A    between atoms: C_21  and  C_22
REMARK   10  A    between atoms: C_21  and  C_23
REMARK                            x       y       z     vdW  Elec       q    Type
REMARK                         _______ _______ _______ _____ _____    ______ ____
ROOT
ATOM      1  C   UNL     1       1.748   3.373   1.060  0.00  0.00    +0.000 A 
ATOM      2  C   UNL     1       0.754   2.429   0.770  0.00  0.00    +0.000 A 
ATOM      3  C   UNL     1      -0.356   2.778  -0.005  0.00  0.00    +0.000 A 
ATOM      4  C   UNL     1      -0.500   4.078  -0.511  0.00  0.00    +0.000 A 
ATOM      5  C   UNL     1       0.481   5.029  -0.196  0.00  0.00    +0.000 A 
ATOM      6  C   UNL     1       1.594   4.679   0.578  0.00  0.00    +0.000 A 
ENDROOT
BRANCH   1   7
ATOM      7  C   UNL     1       2.978   2.974   1.832  0.00  0.00    +0.000 C 
BRANCH   7  10
ATOM      8  C   UNL     1       5.194   1.989   1.463  0.00  0.00    +0.000 C 
ATOM      9  O   UNL     1       5.420   2.027   2.673  0.00  0.00    +0.000 OA
ATOM     10  N   UNL     1       4.007   2.452   0.960  0.00  0.00    +0.000 N 
ATOM     11  H   UNL     1       3.817   2.405  -0.032  0.00  0.00    +0.000 HD
BRANCH   8  19
ATOM     12  C   UNL     1       5.274   1.566  -1.962  0.00  0.00    +0.000 A 
ATOM     13  N   UNL     1       5.558   1.259  -3.245  0.00  0.00    +0.000 NA
ATOM     14  C   UNL     1       6.741   0.698  -3.510  0.00  0.00    +0.000 A 
ATOM     15  N   UNL     1       7.699   0.402  -2.639  0.00  0.00    +0.000 NA
ATOM     16  C   UNL     1       7.370   0.710  -1.373  0.00  0.00    +0.000 A 
ATOM     17  S   UNL     1       8.480   0.405  -0.127  0.00  0.00    +0.000 S 
ATOM     18  C   UNL     1       7.406   1.008   1.042  0.00  0.00    +0.000 A 
ATOM     19  C   UNL     1       6.194   1.451   0.523  0.00  0.00    +0.000 A 
ATOM     20  C   UNL     1       6.180   1.282  -0.927  0.00  0.00    +0.000 A 
BRANCH  12  22
ATOM     21  C   UNL     1       3.520   2.850  -2.812  0.00  0.00    +0.000 C 
ATOM     22  O   UNL     1       4.053   2.149  -1.689  0.00  0.00    +0.000 OA
ENDBRANCH  12  22
ENDBRANCH   8  19
ENDBRANCH   7  10
ENDBRANCH   1   7
BRANCH   4  23
ATOM     23  C   UNL     1      -1.642   4.420  -1.445  0.00  0.00    +0.000 C 
BRANCH  23  24
ATOM     24  N   UNL     1      -2.947   4.177  -0.835  0.00  0.00    +0.000 NA
ATOM     25  H   UNL     1      -3.005   4.721   0.027  0.00  0.00    +0.000 HD
BRANCH  24  26
ATOM     26  C   UNL     1      -4.080   4.562  -1.693  0.00  0.00    +0.000 C 
ATOM     27  C   UNL     1      -4.155   3.752  -2.997  0.00  0.00    +0.000 C 
BRANCH  26  28
ATOM     28  C   UNL     1      -5.387   4.396  -0.925  0.00  0.00    +0.000 A 
ATOM     29  C   UNL     1      -6.269   5.478  -0.770  0.00  0.00    +0.000 A 
ATOM     30  C   UNL     1      -7.476   5.318  -0.083  0.00  0.00    +0.000 A 
ATOM     31  C   UNL     1      -7.818   4.079   0.455  0.00  0.00    +0.000 A 
ATOM     32  C   UNL     1      -6.953   2.997   0.311  0.00  0.00    +0.000 A 
ATOM     33  C   UNL     1      -5.746   3.155  -0.372  0.00  0.00    +0.000 A 
ENDBRANCH  26  28
ENDBRANCH  24  26
ENDBRANCH  23  24
ENDBRANCH   4  23
TORSDOF 8
