REMARK  Name = 
REMARK  9 active torsions:
REMARK  status: ('A' for Active; 'I' for Inactive)
REMARK    1  A    between atoms: C_1  and  O_2
REMARK    2  A    between atoms: O_2  and  C_3
REMARK    3  A    between atoms: C_5  and  C_6
REMARK    4  A    between atoms: C_6  and  N_7
REMARK    5  A    between atoms: C_8  and  C_10
REMARK    6  A    between atoms: C_22  and  C_23
REMARK    7  A    between atoms: C_23  and  N_24
REMARK    8  A    between atoms: N_24  and  C_25
REMARK    9  A    between atoms: C_25  and  C_26
REMARK                            x       y       z     vdW  Elec       q    Type
REMARK                         _______ _______ _______ _____ _____    ______ ____
ROOT
ATOM      1  C   UNL     1       3.093   0.563   1.025  0.00  0.00    +0.000 A 
ATOM      2  C   UNL     1       2.647   0.164   2.300  0.00  0.00    +0.000 A 
ATOM      3  C   UNL     1       3.364   0.488   3.466  0.00  0.00    +0.000 A 
ATOM      4  C   UNL     1       4.535   1.239   3.336  0.00  0.00    +0.000 A 
ATOM      5  C   UNL     1       4.956   1.679   2.080  0.00  0.00    +0.000 A 
ATOM      6  C   UNL     1       4.225   1.388   0.912  0.00  0.00    +0.000 A 
ENDROOT
BRANCH   1   8
ATOM      7  C   UNL     1       2.936  -0.378  -1.151  0.00  0.00    +0.000 C 
ATOM      8  O   UNL     1       2.279   0.189  -0.016  0.00  0.00    +0.000 OA
ENDBRANCH   1   8
BRANCH   3   9
ATOM      9  C   UNL     1       2.876   0.081   4.836  0.00  0.00    +0.000 C 
BRANCH   9  10
ATOM     10  N   UNL     1       2.056   1.105   5.437  0.00  0.00    +0.000 N 
ATOM     11  C   UNL     1       1.643   1.022   6.745  0.00  0.00    +0.000 C 
ATOM     12  O   UNL     1       2.005   0.108   7.483  0.00  0.00    +0.000 OA
ATOM     13  H   UNL     1       1.571   1.732   4.803  0.00  0.00    +0.000 HD
BRANCH  11  14
ATOM     14  C   UNL     1       0.790   2.113   7.245  0.00  0.00    +0.000 A 
ATOM     15  C   UNL     1       0.695   2.345   8.612  0.00  0.00    +0.000 A 
ATOM     16  S   UNL     1      -0.294   3.675   9.016  0.00  0.00    +0.000 S 
ATOM     17  C   UNL     1      -0.672   3.963   7.381  0.00  0.00    +0.000 A 
ATOM     18  N   UNL     1      -1.510   4.970   7.024  0.00  0.00    +0.000 NA
ATOM     19  C   UNL     1      -1.730   5.056   5.754  0.00  0.00    +0.000 A 
ATOM     20  N   UNL     1      -1.184   4.224   4.809  0.00  0.00    +0.000 N 
ATOM     21  C   UNL     1      -0.316   3.203   5.120  0.00  0.00    +0.000 A 
ATOM     22  O   UNL     1       0.168   2.491   4.255  0.00  0.00    +0.000 OA
ATOM     23  C   UNL     1      -0.038   3.061   6.539  0.00  0.00    +0.000 A 
ATOM     24  H   UNL     1      -1.390   4.343   3.829  0.00  0.00    +0.000 HD
ENDBRANCH  11  14
ENDBRANCH   9  10
ENDBRANCH   3   9
BRANCH   6  25
ATOM     25  C   UNL     1       4.674   2.052  -0.369  0.00  0.00    +0.000 C 
BRANCH  25  26
ATOM     26  N   UNL     1       3.642   2.844  -1.039  0.00  0.00    +0.000 NA
ATOM     27  H   UNL     1       2.802   2.270  -1.141  0.00  0.00    +0.000 HD
BRANCH  26  28
ATOM     28  C   UNL     1       3.224   4.021  -0.267  0.00  0.00    +0.000 C 
BRANCH  28  29
ATOM     29  C   UNL     1       2.162   4.808  -1.018  0.00  0.00    +0.000 A 
ATOM     30  C   UNL     1       2.449   5.325  -2.282  0.00  0.00    +0.000 A 
ATOM     31  C   UNL     1       1.456   6.013  -2.971  0.00  0.00    +0.000 A 
ATOM     32  C   UNL     1       0.205   6.164  -2.387  0.00  0.00    +0.000 A 
ATOM     33  C   UNL     1      -0.002   5.615  -1.132  0.00  0.00    +0.000 A 
ATOM     34  N   UNL     1       0.943   4.947  -0.435  0.00  0.00    +0.000 NA
ENDBRANCH  28  29
ENDBRANCH  26  28
ENDBRANCH  25  26
ENDBRANCH   6  25
TORSDOF 8
