REMARK  Name = 
REMARK  5 active torsions:
REMARK  status: ('A' for Active; 'I' for Inactive)
REMARK    1  A    between atoms: N_1  and  C_2
REMARK    2  A    between atoms: C_2  and  C_3
REMARK    3  A    between atoms: C_3  and  C_4
REMARK    4  A    between atoms: C_7  and  C_8
REMARK    5  A    between atoms: C_8  and  N_9
REMARK                            x       y       z     vdW  Elec       q    Type
REMARK                         _______ _______ _______ _____ _____    ______ ____
ROOT
ATOM      1  C   UNL     1       4.627  -0.916  -0.875  0.00  0.00    +0.000 A 
ATOM      2  C   UNL     1       5.423  -0.680  -2.001  0.00  0.00    +0.000 A 
ATOM      3  C   UNL     1       6.828  -0.621  -1.878  0.00  0.00    +0.000 A 
ATOM      4  C   UNL     1       7.453  -0.845  -0.643  0.00  0.00    +0.000 A 
ATOM      5  C   UNL     1       6.635  -1.094   0.473  0.00  0.00    +0.000 A 
ATOM      6  C   UNL     1       5.246  -1.138   0.359  0.00  0.00    +0.000 A 
ENDROOT
BRANCH   1   7
ATOM      7  C   UNL     1       3.119  -0.976  -0.989  0.00  0.00    +0.000 C 
BRANCH   7   8
ATOM      8  C   UNL     1       2.603  -2.402  -1.224  0.00  0.00    +0.000 C 
BRANCH   8   9
ATOM      9  N   UNL     1       1.140  -2.438  -1.261  0.00  0.00    +0.000 NA
ATOM     10  H   UNL     1       0.828  -3.388  -1.465  0.00  0.00    +0.000 HD
ATOM     11  H   UNL     1       0.801  -1.856  -2.026  0.00  0.00    +0.000 HD
ENDBRANCH   8   9
ENDBRANCH   7   8
ENDBRANCH   1   7
BRANCH   4  12
ATOM     12  C   UNL     1       8.949  -0.860  -0.529  0.00  0.00    +0.000 C 
BRANCH  12  13
ATOM     13  N   UNL     1       9.538   0.433  -0.202  0.00  0.00    +0.000 N 
ATOM     14  C   UNL     1      10.027   1.306  -1.145  0.00  0.00    +0.000 A 
ATOM     15  C   UNL     1      10.515   2.408  -0.485  0.00  0.00    +0.000 A 
ATOM     16  C   UNL     1      10.754   1.982   0.844  0.00  0.00    +0.000 A 
ATOM     17  C   UNL     1      11.589   2.443   1.876  0.00  0.00    +0.000 A 
ATOM     18  C   UNL     1      11.581   1.766   3.095  0.00  0.00    +0.000 A 
ATOM     19 BR   UNL     1      12.897   2.174   4.391  0.00  0.00    +0.000 Br
ATOM     20  C   UNL     1      10.659   0.752   3.349  0.00  0.00    +0.000 A 
ATOM     21  C   UNL     1       9.825   0.277   2.331  0.00  0.00    +0.000 A 
ATOM     22  C   UNL     1       9.975   0.836   1.052  0.00  0.00    +0.000 A 
ENDBRANCH  12  13
ENDBRANCH   4  12
TORSDOF 5
