REMARK  Name = 
REMARK  6 active torsions:
REMARK  status: ('A' for Active; 'I' for Inactive)
REMARK    1  A    between atoms: C_2  and  C_4
REMARK    2  A    between atoms: C_7  and  N_8
REMARK    3  A    between atoms: N_8  and  C_9
REMARK    4  A    between atoms: C_9  and  C_10
REMARK    5  A    between atoms: C_10  and  C_11
REMARK    6  A    between atoms: C_15  and  C_16
REMARK                            x       y       z     vdW  Elec       q    Type
REMARK                         _______ _______ _______ _____ _____    ______ ____
ROOT
ATOM      1  C   UNL     1       5.503   4.194  -6.093  0.00  0.00    +0.000 C 
ENDROOT
BRANCH   1   2
ATOM      2  C   UNL     1       5.078   5.542  -6.613  0.00  0.00    +0.000 A 
ATOM      3  C   UNL     1       5.692   6.701  -6.156  0.00  0.00    +0.000 A 
ATOM      4  N   UNL     1       5.344   7.939  -6.554  0.00  0.00    +0.000 NA
ATOM      5  C   UNL     1       4.336   8.029  -7.455  0.00  0.00    +0.000 A 
ATOM      6  C   UNL     1       3.621   6.949  -7.983  0.00  0.00    +0.000 A 
ATOM      7  C   UNL     1       4.021   5.682  -7.526  0.00  0.00    +0.000 A 
BRANCH   6   8
ATOM      8  C   UNL     1       2.531   7.140  -8.967  0.00  0.00    +0.000 A 
ATOM      9  C   UNL     1       1.700   8.282  -8.932  0.00  0.00    +0.000 A 
ATOM     10  C   UNL     1       0.703   8.497  -9.891  0.00  0.00    +0.000 A 
ATOM     11  C   UNL     1       0.508   7.561 -10.896  0.00  0.00    +0.000 A 
ATOM     12  F   UNL     1      -0.441   7.770 -11.817  0.00  0.00    +0.000 F 
ATOM     13  C   UNL     1       1.294   6.420 -10.942  0.00  0.00    +0.000 A 
ATOM     14  F   UNL     1       1.104   5.510 -11.908  0.00  0.00    +0.000 F 
ATOM     15  C   UNL     1       2.295   6.207  -9.994  0.00  0.00    +0.000 A 
ENDBRANCH   6   8
ENDBRANCH   1   2
BRANCH   1  16
ATOM     16  C   UNL     1       4.687   3.800  -4.860  0.00  0.00    +0.000 C 
BRANCH  16  17
ATOM     17  N   UNL     1       5.171   2.546  -4.291  0.00  0.00    +0.000 N 
ATOM     18  H   UNL     1       5.410   1.825  -4.970  0.00  0.00    +0.000 HD
BRANCH  17  22
ATOM     19  C   UNL     1       3.450   0.916  -0.793  0.00  0.00    +0.000 A 
ATOM     20  C   UNL     1       2.964   2.122  -1.302  0.00  0.00    +0.000 A 
ATOM     21  C   UNL     1       3.517   2.667  -2.465  0.00  0.00    +0.000 A 
ATOM     22  C   UNL     1       4.538   2.012  -3.163  0.00  0.00    +0.000 A 
ATOM     23  C   UNL     1       5.036   0.816  -2.622  0.00  0.00    +0.000 A 
ATOM     24  C   UNL     1       4.502   0.272  -1.446  0.00  0.00    +0.000 A 
BRANCH  19  26
ATOM     25  N   UNL     1       1.593   0.602   0.748  0.00  0.00    +0.000 N 
ATOM     26  C   UNL     1       2.899   0.322   0.450  0.00  0.00    +0.000 C 
ATOM     27  O   UNL     1       3.566  -0.413   1.165  0.00  0.00    +0.000 OA
ATOM     28  H   UNL     1       1.199   0.109   1.538  0.00  0.00    +0.000 HD
ATOM     29  H   UNL     1       0.954   0.988   0.067  0.00  0.00    +0.000 HD
ENDBRANCH  19  26
ENDBRANCH  17  22
ENDBRANCH  16  17
ENDBRANCH   1  16
TORSDOF 6
