REMARK  Name = 
REMARK  10 active torsions:
REMARK  status: ('A' for Active; 'I' for Inactive)
REMARK    1  A    between atoms: C_1  and  C_2
REMARK    2  A    between atoms: C_9  and  C_10
REMARK    3  A    between atoms: N_12  and  C_13
REMARK    4  A    between atoms: C_13  and  C_14
REMARK    5  A    between atoms: C_17  and  C_18
REMARK    6  A    between atoms: C_18  and  O_19
REMARK    7  A    between atoms: O_19  and  C_20
REMARK    8  A    between atoms: C_20  and  C_21
REMARK    9  A    between atoms: CA_25  and  C_26
REMARK   10  A    between atoms: C_26  and  O_27
REMARK                            x       y       z     vdW  Elec       q    Type
REMARK                         _______ _______ _______ _____ _____    ______ ____
ROOT
ATOM      1  C   UNL     1       0.091  -6.598   0.032  0.00  0.00    +0.000 A 
ATOM      2  C   UNL     1      -1.092  -7.343  -0.058  0.00  0.00    +0.000 A 
ATOM      3  C   UNL     1      -1.054  -8.741  -0.050  0.00  0.00    +0.000 A 
ATOM      4  C   UNL     1       0.167  -9.421   0.059  0.00  0.00    +0.000 A 
ATOM      5  C   UNL     1       1.348  -8.674   0.158  0.00  0.00    +0.000 A 
ATOM      6  C   UNL     1       1.310  -7.277   0.150  0.00  0.00    +0.000 A 
ENDROOT
BRANCH   1   7
ATOM      7  C   UNL     1       0.056  -5.095   0.013  0.00  0.00    +0.000 C 
BRANCH   7  10
ATOM      8  C   UNL     1      -0.179  -3.178   1.509  0.00  0.00    +0.000 C 
ATOM      9  O   UNL     1      -0.179  -2.411   0.554  0.00  0.00    +0.000 OA
ATOM     10  N   UNL     1      -0.088  -4.545   1.342  0.00  0.00    +0.000 N 
ATOM     11  H   UNL     1       0.087  -5.147   2.133  0.00  0.00    +0.000 HD
BRANCH   8  20
ATOM     12  C   UNL     1       1.361  -0.174   1.471  0.00  0.00    +0.000 C 
ATOM     13  C   UNL     1       0.889  -0.324   2.885  0.00  0.00    +0.000 A 
ATOM     14  N   UNL     1       1.182   0.726   3.702  0.00  0.00    +0.000 NA
ATOM     15  C   UNL     1       0.812   0.684   4.987  0.00  0.00    +0.000 A 
ATOM     16  N   UNL     1       0.169  -0.305   5.602  0.00  0.00    +0.000 NA
ATOM     17  C   UNL     1      -0.110  -1.330   4.781  0.00  0.00    +0.000 A 
ATOM     18  S   UNL     1      -0.929  -2.688   5.395  0.00  0.00    +0.000 S 
ATOM     19  C   UNL     1      -0.905  -3.458   3.879  0.00  0.00    +0.000 A 
ATOM     20  C   UNL     1      -0.273  -2.714   2.894  0.00  0.00    +0.000 A 
ATOM     21  C   UNL     1       0.197  -1.436   3.426  0.00  0.00    +0.000 A 
ENDBRANCH   8  20
ENDBRANCH   7  10
ENDBRANCH   1   7
BRANCH   4  22
ATOM     22  C   UNL     1       0.212 -10.928   0.093  0.00  0.00    +0.000 C 
BRANCH  22  23
ATOM     23  O   UNL     1      -0.362 -11.443  -1.102  0.00  0.00    +0.000 OA
BRANCH  23  24
ATOM     24  C   UNL     1      -0.269 -12.865  -1.166  0.00  0.00    +0.000 C 
BRANCH  24  25
ATOM     25  C   UNL     1      -0.830 -13.345  -2.480  0.00  0.00    +0.000 A 
ATOM     26  C   UNL     1      -1.436 -14.596  -2.591  0.00  0.00    +0.000 A 
ATOM     27  C   UNL     1      -1.911 -15.000  -3.830  0.00  0.00    +0.000 A 
ATOM     28  N   UNL     1      -1.815 -14.255  -4.954  0.00  0.00    +0.000 NA
ATOM     29  CA  UNL     1      -1.214 -13.041  -4.838  0.00  0.00    +0.000 A 
ATOM     30  C   UNL     1      -0.707 -12.565  -3.634  0.00  0.00    +0.000 A 
BRANCH  29  31
ATOM     31  C   UNL     1      -1.109 -12.184  -6.079  0.00  0.00    +0.000 C 
BRANCH  31  32
ATOM     32  O   UNL     1      -1.650 -12.849  -7.219  0.00  0.00    +0.000 OA
ATOM     33  H   UNL     1      -1.939 -13.722  -6.881  0.00  0.00    +0.000 HD
ENDBRANCH  31  32
ENDBRANCH  29  31
ENDBRANCH  24  25
ENDBRANCH  23  24
ENDBRANCH  22  23
ENDBRANCH   4  22
TORSDOF 9
