REMARK  Name = 
REMARK  5 active torsions:
REMARK  status: ('A' for Active; 'I' for Inactive)
REMARK    1  A    between atoms: C_2  and  C_3
REMARK    2  A    between atoms: C_6  and  N_7
REMARK    3  A    between atoms: N_7  and  C_8
REMARK    4  A    between atoms: C_8  and  C_9
REMARK    5  A    between atoms: C_13  and  C_14
REMARK                            x       y       z     vdW  Elec       q    Type
REMARK                         _______ _______ _______ _____ _____    ______ ____
ROOT
ATOM      1  C   UNL     1      10.145  -0.813  -1.030  0.00  0.00    +0.000 A 
ATOM      2  C   UNL     1      11.052  -1.841  -1.251  0.00  0.00    +0.000 A 
ATOM      3  N   UNL     1      12.349  -1.649  -1.568  0.00  0.00    +0.000 NA
ATOM      4  C   UNL     1      12.772  -0.363  -1.669  0.00  0.00    +0.000 A 
ATOM      5  C   UNL     1      11.978   0.764  -1.449  0.00  0.00    +0.000 A 
ATOM      6  C   UNL     1      10.642   0.498  -1.107  0.00  0.00    +0.000 A 
ENDROOT
BRANCH   5   7
ATOM      7  C   UNL     1      12.497   2.145  -1.561  0.00  0.00    +0.000 A 
ATOM      8  C   UNL     1      13.831   2.467  -1.237  0.00  0.00    +0.000 A 
ATOM      9  C   UNL     1      14.315   3.778  -1.333  0.00  0.00    +0.000 A 
ATOM     10  C   UNL     1      13.471   4.803  -1.749  0.00  0.00    +0.000 A 
ATOM     11  C   UNL     1      12.157   4.504  -2.073  0.00  0.00    +0.000 A 
ATOM     12  F   UNL     1      11.337   5.485  -2.472  0.00  0.00    +0.000 F 
ATOM     13  C   UNL     1      11.672   3.201  -1.991  0.00  0.00    +0.000 A 
ENDBRANCH   5   7
BRANCH   1  14
ATOM     14  C   UNL     1       8.727  -1.122  -0.623  0.00  0.00    +0.000 C 
BRANCH  14  15
ATOM     15  N   UNL     1       7.827  -0.057  -1.034  0.00  0.00    +0.000 N 
ATOM     16  H   UNL     1       7.694   0.011  -2.041  0.00  0.00    +0.000 HD
BRANCH  15  20
ATOM     17  C   UNL     1       4.167   0.580   0.691  0.00  0.00    +0.000 A 
ATOM     18  C   UNL     1       4.388   0.735  -0.667  0.00  0.00    +0.000 A 
ATOM     19  N   UNL     1       5.594   0.490  -1.248  0.00  0.00    +0.000 NA
ATOM     20  C   UNL     1       6.593   0.094  -0.432  0.00  0.00    +0.000 A 
ATOM     21  C   UNL     1       6.355  -0.041   0.938  0.00  0.00    +0.000 A 
ATOM     22  N   UNL     1       5.151   0.179   1.529  0.00  0.00    +0.000 NA
BRANCH  17  24
ATOM     23  N   UNL     1       1.828   1.067   1.698  0.00  0.00    +0.000 NA
ATOM     24  C   UNL     1       2.883   0.845   1.269  0.00  0.00    +0.000 C 
ENDBRANCH  17  24
ENDBRANCH  15  20
ENDBRANCH  14  15
ENDBRANCH   1  14
TORSDOF 5
