REMARK  Name = 
REMARK  8 active torsions:
REMARK  status: ('A' for Active; 'I' for Inactive)
REMARK    1  A    between atoms: N_1  and  C_2
REMARK    2  A    between atoms: C_2  and  C_3
REMARK    3  A    between atoms: C_3  and  N_4
REMARK    4  A    between atoms: C_3  and  C_22
REMARK    5  A    between atoms: C_5  and  C_7
REMARK    6  A    between atoms: C_10  and  C_11
REMARK    7  A    between atoms: C_11  and  N_12
REMARK    8  A    between atoms: C_13  and  C_15
REMARK                            x       y       z     vdW  Elec       q    Type
REMARK                         _______ _______ _______ _____ _____    ______ ____
ROOT
ATOM      1  N   UNL     1       2.442   1.745  -1.796  0.00  0.00    +0.000 N 
ATOM      2  C   UNL     1       1.096   1.949  -2.010  0.00  0.00    +0.000 C 
ATOM      3  O   UNL     1       0.266   1.048  -1.974  0.00  0.00    +0.000 OA
ATOM      4  H   UNL     1       3.023   2.535  -1.566  0.00  0.00    +0.000 HD
ENDROOT
BRANCH   2   5
ATOM      5  C   UNL     1       0.668   3.353  -2.294  0.00  0.00    +0.000 A 
ATOM      6  C   UNL     1       1.545   4.296  -2.844  0.00  0.00    +0.000 A 
ATOM      7  C   UNL     1       1.095   5.587  -3.146  0.00  0.00    +0.000 A 
ATOM      8  C   UNL     1      -0.235   5.958  -2.905  0.00  0.00    +0.000 A 
ATOM      9  C   UNL     1      -1.115   5.004  -2.373  0.00  0.00    +0.000 A 
ATOM     10  C   UNL     1      -0.667   3.712  -2.070  0.00  0.00    +0.000 A 
BRANCH   8  11
ATOM     11  C   UNL     1      -0.720   7.343  -3.255  0.00  0.00    +0.000 C 
BRANCH  11  12
ATOM     12  N   UNL     1      -1.194   7.411  -4.616  0.00  0.00    +0.000 N 
ATOM     13  C   UNL     1      -1.732   8.571  -5.121  0.00  0.00    +0.000 C 
ATOM     14  O   UNL     1      -1.843   9.591  -4.448  0.00  0.00    +0.000 OA
ATOM     15  H   UNL     1      -1.084   6.604  -5.211  0.00  0.00    +0.000 HD
BRANCH  13  16
ATOM     16  C   UNL     1      -2.155   8.511  -6.495  0.00  0.00    +0.000 A 
ATOM     17  C   UNL     1      -2.157   7.513  -7.451  0.00  0.00    +0.000 A 
ATOM     18  C   UNL     1      -2.710   8.104  -8.603  0.00  0.00    +0.000 A 
ATOM     19  N   UNL     1      -3.037   9.382  -8.408  0.00  0.00    +0.000 NA
ATOM     20  N   UNL     1      -2.695   9.603  -7.126  0.00  0.00    +0.000 N 
ATOM     21  H   UNL     1      -2.852  10.524  -6.726  0.00  0.00    +0.000 HD
ENDBRANCH  13  16
ENDBRANCH  11  12
ENDBRANCH   8  11
ENDBRANCH   2   5
BRANCH   1  22
ATOM     22  C   UNL     1       2.999   0.406  -1.599  0.00  0.00    +0.000 C 
BRANCH  22  23
ATOM     23  C   UNL     1       4.433   0.379  -2.108  0.00  0.00    +0.000 A 
ATOM     24  C   UNL     1       5.344   1.424  -2.058  0.00  0.00    +0.000 A 
ATOM     25  S   UNL     1       6.873   1.031  -2.712  0.00  0.00    +0.000 S 
ATOM     26  C   UNL     1       6.387  -0.567  -3.036  0.00  0.00    +0.000 A 
ATOM     27  N   UNL     1       7.247  -1.471  -3.579  0.00  0.00    +0.000 NA
ATOM     28  C   UNL     1       6.745  -2.649  -3.738  0.00  0.00    +0.000 A 
ATOM     29  N   UNL     1       5.459  -3.007  -3.415  0.00  0.00    +0.000 N 
ATOM     30  C   UNL     1       4.555  -2.131  -2.858  0.00  0.00    +0.000 A 
ATOM     31  O   UNL     1       3.425  -2.487  -2.545  0.00  0.00    +0.000 OA
ATOM     32  C   UNL     1       5.075  -0.789  -2.665  0.00  0.00    +0.000 A 
ATOM     33  H   UNL     1       5.132  -3.950  -3.557  0.00  0.00    +0.000 HD
ENDBRANCH  22  23
BRANCH  22  34
ATOM     34  C   UNL     1       2.895  -0.058  -0.119  0.00  0.00    +0.000 C 
BRANCH  34  35
ATOM     35  N   UNL     1       3.624   0.800   0.835  0.00  0.00    +0.000 NA
ATOM     36  H   UNL     1       3.357   0.532   1.782  0.00  0.00    +0.000 HD
ATOM     37  H   UNL     1       3.319   1.763   0.714  0.00  0.00    +0.000 HD
ENDBRANCH  34  35
ENDBRANCH  22  34
ENDBRANCH   1  22
TORSDOF 8
