REMARK  Name = 
REMARK  8 active torsions:
REMARK  status: ('A' for Active; 'I' for Inactive)
REMARK    1  A    between atoms: C_1  and  O_2
REMARK    2  A    between atoms: O_2  and  C_3
REMARK    3  A    between atoms: C_8  and  C_9
REMARK    4  A    between atoms: N_11  and  C_12
REMARK    5  A    between atoms: C_12  and  C_13
REMARK    6  A    between atoms: C_16  and  C_17
REMARK    7  A    between atoms: C_17  and  N_18
REMARK    8  A    between atoms: C_19  and  C_21
REMARK                            x       y       z     vdW  Elec       q    Type
REMARK                         _______ _______ _______ _____ _____    ______ ____
ROOT
ATOM      1  C   UNL     1       3.030   0.862  -4.289  0.00  0.00    +0.000 A 
ATOM      2  C   UNL     1       3.062  -0.522  -4.504  0.00  0.00    +0.000 A 
ATOM      3  C   UNL     1       2.104  -1.146  -5.316  0.00  0.00    +0.000 A 
ATOM      4  C   UNL     1       1.103  -0.394  -5.947  0.00  0.00    +0.000 A 
ATOM      5  C   UNL     1       1.065   0.989  -5.717  0.00  0.00    +0.000 A 
ATOM      6  C   UNL     1       2.023   1.611  -4.909  0.00  0.00    +0.000 A 
ENDROOT
BRANCH   1   7
ATOM      7  C   UNL     1       4.079   1.530  -3.437  0.00  0.00    +0.000 C 
BRANCH   7  10
ATOM      8  C   UNL     1       6.335   2.501  -3.647  0.00  0.00    +0.000 C 
ATOM      9  O   UNL     1       6.377   2.776  -2.451  0.00  0.00    +0.000 OA
ATOM     10  N   UNL     1       5.234   1.906  -4.216  0.00  0.00    +0.000 N 
ATOM     11  H   UNL     1       5.248   1.706  -5.210  0.00  0.00    +0.000 HD
BRANCH   8  17
ATOM     12  C   UNL     1       7.581   2.486  -5.913  0.00  0.00    +0.000 A 
ATOM     13  C   UNL     1       8.794   2.670  -6.595  0.00  0.00    +0.000 A 
ATOM     14  C   UNL     1       9.918   3.180  -5.941  0.00  0.00    +0.000 A 
ATOM     15  C   UNL     1       9.841   3.530  -4.599  0.00  0.00    +0.000 A 
ATOM     16  C   UNL     1       8.652   3.325  -3.900  0.00  0.00    +0.000 A 
ATOM     17  C   UNL     1       7.520   2.775  -4.533  0.00  0.00    +0.000 A 
BRANCH  12  19
ATOM     18  C   UNL     1       6.477   1.849  -7.941  0.00  0.00    +0.000 C 
ATOM     19  O   UNL     1       6.438   2.041  -6.531  0.00  0.00    +0.000 OA
ENDBRANCH  12  19
ENDBRANCH   8  17
ENDBRANCH   7  10
ENDBRANCH   1   7
BRANCH   4  20
ATOM     20  C   UNL     1       0.079  -1.040  -6.850  0.00  0.00    +0.000 C 
BRANCH  20  21
ATOM     21  N   UNL     1      -1.097  -1.454  -6.128  0.00  0.00    +0.000 N 
ATOM     22  C   UNL     1      -2.145  -2.085  -6.754  0.00  0.00    +0.000 C 
ATOM     23  O   UNL     1      -2.129  -2.363  -7.949  0.00  0.00    +0.000 OA
ATOM     24  H   UNL     1      -1.262  -0.999  -5.235  0.00  0.00    +0.000 HD
BRANCH  22  25
ATOM     25  C   UNL     1      -3.272  -2.465  -5.889  0.00  0.00    +0.000 A 
ATOM     26  C   UNL     1      -4.080  -3.544  -6.226  0.00  0.00    +0.000 A 
ATOM     27  S   UNL     1      -5.306  -3.863  -5.083  0.00  0.00    +0.000 S 
ATOM     28  C   UNL     1      -4.837  -2.536  -4.126  0.00  0.00    +0.000 A 
ATOM     29  N   UNL     1      -5.515  -2.215  -2.989  0.00  0.00    +0.000 NA
ATOM     30  C   UNL     1      -5.064  -1.168  -2.378  0.00  0.00    +0.000 A 
ATOM     31  N   UNL     1      -3.996  -0.422  -2.793  0.00  0.00    +0.000 N 
ATOM     32  C   UNL     1      -3.257  -0.732  -3.910  0.00  0.00    +0.000 A 
ATOM     33  O   UNL     1      -2.262  -0.087  -4.211  0.00  0.00    +0.000 OA
ATOM     34  C   UNL     1      -3.739  -1.882  -4.652  0.00  0.00    +0.000 A 
ATOM     35  H   UNL     1      -3.679   0.376  -2.259  0.00  0.00    +0.000 HD
ENDBRANCH  22  25
ENDBRANCH  20  21
ENDBRANCH   4  20
TORSDOF 7
