REMARK  Name = 
REMARK  9 active torsions:
REMARK  status: ('A' for Active; 'I' for Inactive)
REMARK    1  A    between atoms: N_1  and  C_2
REMARK    2  A    between atoms: C_2  and  C_3
REMARK    3  A    between atoms: C_3  and  N_4
REMARK    4  A    between atoms: C_3  and  C_26
REMARK    5  A    between atoms: N_4  and  C_5
REMARK    6  A    between atoms: C_5  and  C_6
REMARK    7  A    between atoms: C_9  and  C_10
REMARK    8  A    between atoms: C_10  and  N_11
REMARK    9  A    between atoms: C_12  and  C_14
REMARK                            x       y       z     vdW  Elec       q    Type
REMARK                         _______ _______ _______ _____ _____    ______ ____
ROOT
ATOM      1  C   UNL     1       0.651  -0.231  -3.862  0.00  0.00    +0.000 A 
ATOM      2  C   UNL     1       0.198  -1.227  -4.726  0.00  0.00    +0.000 A 
ATOM      3  C   UNL     1      -0.210  -0.873  -6.006  0.00  0.00    +0.000 A 
ATOM      4  C   UNL     1      -0.182   0.470  -6.388  0.00  0.00    +0.000 A 
ATOM      5  C   UNL     1       0.297   1.392  -5.463  0.00  0.00    +0.000 A 
ATOM      6  N   UNL     1       0.715   1.077  -4.216  0.00  0.00    +0.000 NA
ENDROOT
BRANCH   1   7
ATOM      7  C   UNL     1       1.103  -0.606  -2.466  0.00  0.00    +0.000 C 
BRANCH   7   8
ATOM      8  N   UNL     1       0.288   0.048  -1.446  0.00  0.00    +0.000 NA
ATOM      9  H   UNL     1       0.371   1.055  -1.611  0.00  0.00    +0.000 HD
BRANCH   8  10
ATOM     10  C   UNL     1       0.727  -0.236  -0.060  0.00  0.00    +0.000 C 
BRANCH  10  11
ATOM     11  C   UNL     1      -0.104   0.593   0.934  0.00  0.00    +0.000 A 
ATOM     12  C   UNL     1      -1.465   0.821   0.709  0.00  0.00    +0.000 A 
ATOM     13  C   UNL     1      -2.187   1.603   1.607  0.00  0.00    +0.000 A 
ATOM     14  C   UNL     1      -1.539   2.134   2.712  0.00  0.00    +0.000 A 
ATOM     15  C   UNL     1      -0.191   1.859   2.873  0.00  0.00    +0.000 A 
ATOM     16  N   UNL     1       0.537   1.101   2.019  0.00  0.00    +0.000 NA
ENDBRANCH  10  11
BRANCH  10  17
ATOM     17  C   UNL     1       0.651  -1.743   0.366  0.00  0.00    +0.000 C 
BRANCH  17  18
ATOM     18  N   UNL     1       1.498  -2.679  -0.397  0.00  0.00    +0.000 NA
ATOM     19  H   UNL     1       1.344  -3.629  -0.066  0.00  0.00    +0.000 HD
ATOM     20  H   UNL     1       2.481  -2.458  -0.246  0.00  0.00    +0.000 HD
ENDBRANCH  17  18
ENDBRANCH  10  17
ENDBRANCH   8  10
ENDBRANCH   7   8
ENDBRANCH   1   7
BRANCH   4  21
ATOM     21  C   UNL     1      -0.582   0.906  -7.766  0.00  0.00    +0.000 C 
BRANCH  21  22
ATOM     22  N   UNL     1       0.558   0.883  -8.642  0.00  0.00    +0.000 N 
ATOM     23  C   UNL     1       0.507   1.329  -9.937  0.00  0.00    +0.000 C 
ATOM     24  O   UNL     1      -0.507   1.804 -10.433  0.00  0.00    +0.000 OA
ATOM     25  H   UNL     1       1.303   0.248  -8.380  0.00  0.00    +0.000 HD
BRANCH  23  26
ATOM     26  C   UNL     1       1.783   1.268 -10.663  0.00  0.00    +0.000 A 
ATOM     27  C   UNL     1       2.030   2.137 -11.717  0.00  0.00    +0.000 A 
ATOM     28  S   UNL     1       3.604   1.982 -12.364  0.00  0.00    +0.000 S 
ATOM     29  C   UNL     1       3.986   0.710 -11.296  0.00  0.00    +0.000 A 
ATOM     30  N   UNL     1       5.201   0.103 -11.327  0.00  0.00    +0.000 NA
ATOM     31  C   UNL     1       5.345  -0.851 -10.466  0.00  0.00    +0.000 A 
ATOM     32  N   UNL     1       4.380  -1.257  -9.583  0.00  0.00    +0.000 N 
ATOM     33  C   UNL     1       3.138  -0.670  -9.512  0.00  0.00    +0.000 A 
ATOM     34  O   UNL     1       2.308  -1.050  -8.699  0.00  0.00    +0.000 OA
ATOM     35  C   UNL     1       2.929   0.417 -10.452  0.00  0.00    +0.000 A 
ATOM     36  H   UNL     1       4.552  -2.007  -8.934  0.00  0.00    +0.000 HD
ENDBRANCH  23  26
ENDBRANCH  21  22
ENDBRANCH   4  21
TORSDOF 9
