REMARK  Name = 
REMARK  5 active torsions:
REMARK  status: ('A' for Active; 'I' for Inactive)
REMARK    1  A    between atoms: N_1  and  C_2
REMARK    2  A    between atoms: C_2  and  C_3
REMARK    3  A    between atoms: C_6  and  O_7
REMARK    4  A    between atoms: O_7  and  C_8
REMARK    5  A    between atoms: C_8  and  C_9
REMARK                            x       y       z     vdW  Elec       q    Type
REMARK                         _______ _______ _______ _____ _____    ______ ____
ROOT
ATOM      1  C   UNL     1       2.892   0.308  -1.278  0.00  0.00    +0.000 A 
ATOM      2  C   UNL     1       2.936   1.602  -1.817  0.00  0.00    +0.000 A 
ATOM      3  C   UNL     1       3.487   1.827  -3.082  0.00  0.00    +0.000 A 
ATOM      4  C   UNL     1       4.011   0.765  -3.818  0.00  0.00    +0.000 A 
ATOM      5  C   UNL     1       3.922  -0.533  -3.310  0.00  0.00    +0.000 A 
ATOM      6  C   UNL     1       3.377  -0.758  -2.044  0.00  0.00    +0.000 A 
ENDROOT
BRANCH   1   7
ATOM      7  C   UNL     1       2.349   0.064   0.106  0.00  0.00    +0.000 C 
BRANCH   7   8
ATOM      8  N   UNL     1       0.943   0.429   0.203  0.00  0.00    +0.000 NA
ATOM      9  H   UNL     1       0.587   0.141   1.111  0.00  0.00    +0.000 HD
ATOM     10  H   UNL     1       0.419  -0.100  -0.494  0.00  0.00    +0.000 HD
ENDBRANCH   7   8
ENDBRANCH   1   7
BRANCH   4  11
ATOM     11  O   UNL     1       4.588   1.096  -5.016  0.00  0.00    +0.000 OA
BRANCH  11  12
ATOM     12  C   UNL     1       5.549   0.151  -5.496  0.00  0.00    +0.000 C 
BRANCH  12  13
ATOM     13  C   UNL     1       6.487   0.772  -6.500  0.00  0.00    +0.000 A 
ATOM     14  C   UNL     1       6.783   2.138  -6.493  0.00  0.00    +0.000 A 
ATOM     15  C   UNL     1       7.718   2.620  -7.395  0.00  0.00    +0.000 A 
ATOM     16  N   UNL     1       8.377   1.846  -8.283  0.00  0.00    +0.000 NA
ATOM     17  C   UNL     1       8.086   0.528  -8.268  0.00  0.00    +0.000 A 
ATOM     18  C   UNL     1       7.166  -0.048  -7.407  0.00  0.00    +0.000 A 
ENDBRANCH  12  13
ENDBRANCH  11  12
ENDBRANCH   4  11
TORSDOF 5
