REMARK  Name = 
REMARK  7 active torsions:
REMARK  status: ('A' for Active; 'I' for Inactive)
REMARK    1  A    between atoms: N_1  and  C_2
REMARK    2  A    between atoms: C_2  and  C_3
REMARK    3  A    between atoms: C_6  and  C_7
REMARK    4  A    between atoms: C_7  and  C_8
REMARK    5  A    between atoms: C_8  and  N_9
REMARK    6  A    between atoms: N_9  and  C_10
REMARK    7  A    between atoms: C_13  and  C_14
REMARK                            x       y       z     vdW  Elec       q    Type
REMARK                         _______ _______ _______ _____ _____    ______ ____
ROOT
ATOM      1  N   UNL     1       3.527   7.468  -2.335  0.00  0.00    +0.000 N 
ATOM      2  H   UNL     1       3.688   7.454  -3.339  0.00  0.00    +0.000 HD
ENDROOT
BRANCH   1   3
ATOM      3  C   UNL     1       2.581   8.471  -2.038  0.00  0.00    +0.000 A 
ATOM      4  N   UNL     1       1.525   8.129  -1.267  0.00  0.00    +0.000 NA
ATOM      5  C   UNL     1       0.610   9.072  -0.946  0.00  0.00    +0.000 A 
ATOM      6  C   UNL     1       0.690  10.391  -1.343  0.00  0.00    +0.000 A 
ATOM      7  C   UNL     1       1.786  10.757  -2.124  0.00  0.00    +0.000 A 
ATOM      8  C   UNL     1       2.737   9.792  -2.483  0.00  0.00    +0.000 A 
ATOM      9  I   UNL     1       4.339  10.397  -3.686  0.00  0.00    +0.000 I 
BRANCH   6  10
ATOM     10  C   UNL     1      -0.330  11.406  -0.979  0.00  0.00    +0.000 C 
ATOM     11  N   UNL     1      -1.444  11.009  -0.290  0.00  0.00    +0.000 N 
ATOM     12  O   UNL     1      -0.188  12.580  -1.295  0.00  0.00    +0.000 OA
ATOM     13  H   UNL     1      -1.684  10.066  -0.029  0.00  0.00    +0.000 HD
ATOM     14  H   UNL     1      -2.122  11.731  -0.081  0.00  0.00    +0.000 HD
ENDBRANCH   6  10
ENDBRANCH   1   3
BRANCH   1  15
ATOM     15  C   UNL     1       3.153   6.156  -1.786  0.00  0.00    +0.000 C 
BRANCH  15  16
ATOM     16  C   UNL     1       4.182   5.078  -2.129  0.00  0.00    +0.000 C 
BRANCH  16  20
ATOM     17  C   UNL     1       3.050   1.228  -0.466  0.00  0.00    +0.000 A 
ATOM     18  C   UNL     1       2.621   1.612  -1.744  0.00  0.00    +0.000 A 
ATOM     19  C   UNL     1       2.982   2.852  -2.280  0.00  0.00    +0.000 A 
ATOM     20  C   UNL     1       3.784   3.738  -1.549  0.00  0.00    +0.000 A 
ATOM     21  C   UNL     1       4.182   3.372  -0.256  0.00  0.00    +0.000 A 
ATOM     22  C   UNL     1       3.822   2.130   0.278  0.00  0.00    +0.000 A 
BRANCH  17  23
ATOM     23  C   UNL     1       2.675  -0.120   0.097  0.00  0.00    +0.000 C 
BRANCH  23  24
ATOM     24  N   UNL     1       3.150  -1.210  -0.751  0.00  0.00    +0.000 NA
ATOM     25  H   UNL     1       2.959  -2.098  -0.293  0.00  0.00    +0.000 HD
ATOM     26  H   UNL     1       4.163  -1.139  -0.834  0.00  0.00    +0.000 HD
ENDBRANCH  23  24
ENDBRANCH  17  23
ENDBRANCH  16  20
ENDBRANCH  15  16
ENDBRANCH   1  15
TORSDOF 7
