REMARK  Name = 
REMARK  10 active torsions:
REMARK  status: ('A' for Active; 'I' for Inactive)
REMARK    1  A    between atoms: C_1  and  C_2
REMARK    2  A    between atoms: C_2  and  C_3
REMARK    3  A    between atoms: C_5  and  N_6
REMARK    4  A    between atoms: N_6  and  C_7
REMARK    5  A    between atoms: C_9  and  C_10
REMARK    6  A    between atoms: C_10  and  C_11
REMARK    7  A    between atoms: C_11  and  N_12
REMARK    8  A    between atoms: N_12  and  C_13
REMARK    9  A    between atoms: C_16  and  C_17
REMARK   10  A    between atoms: C_23  and  C_24
REMARK                            x       y       z     vdW  Elec       q    Type
REMARK                         _______ _______ _______ _____ _____    ______ ____
ROOT
ATOM      1  C   UNL     1      -1.606  -1.068  -2.934  0.00  0.00    +0.000 A 
ATOM      2  C   UNL     1      -0.466  -0.632  -3.619  0.00  0.00    +0.000 A 
ATOM      3  C   UNL     1      -0.393  -0.665  -5.023  0.00  0.00    +0.000 A 
ATOM      4  C   UNL     1      -1.519  -1.069  -5.750  0.00  0.00    +0.000 A 
ATOM      5  C   UNL     1      -2.693  -1.462  -5.090  0.00  0.00    +0.000 A 
ATOM      6  C   UNL     1      -2.719  -1.464  -3.684  0.00  0.00    +0.000 A 
ENDROOT
BRANCH   5   7
ATOM      7  C   UNL     1      -3.920  -1.880  -5.863  0.00  0.00    +0.000 C 
ATOM      8  F   UNL     1      -3.747  -1.861  -7.214  0.00  0.00    +0.000 F 
ATOM      9  F   UNL     1      -4.320  -3.146  -5.558  0.00  0.00    +0.000 F 
ATOM     10  F   UNL     1      -4.993  -1.079  -5.614  0.00  0.00    +0.000 F 
ENDBRANCH   5   7
BRANCH   1  11
ATOM     11  N   UNL     1      -1.693  -1.037  -1.534  0.00  0.00    +0.000 N 
ATOM     12  H   UNL     1      -2.374  -1.660  -1.114  0.00  0.00    +0.000 HD
BRANCH  11  17
ATOM     13  C   UNL     1       0.726  -1.864   0.130  0.00  0.00    +0.000 C 
ATOM     14  C   UNL     1       0.247  -0.436   0.107  0.00  0.00    +0.000 C 
ATOM     15  C   UNL     1       1.348   0.592   0.161  0.00  0.00    +0.000 C 
ATOM     16  C   UNL     1      -1.068  -0.124   0.782  0.00  0.00    +0.000 C 
ATOM     17  C   UNL     1      -0.970  -0.072  -0.717  0.00  0.00    +0.000 C 
ENDBRANCH  11  17
ENDBRANCH   1  11
BRANCH   3  18
ATOM     18  C   UNL     1       0.898  -0.317  -5.734  0.00  0.00    +0.000 C 
BRANCH  18  19
ATOM     19  C   UNL     1       2.006  -1.321  -5.385  0.00  0.00    +0.000 C 
BRANCH  19  20
ATOM     20  N   UNL     1       3.252  -1.018  -6.099  0.00  0.00    +0.000 N 
ATOM     21  H   UNL     1       3.510  -0.035  -6.028  0.00  0.00    +0.000 HD
BRANCH  20  22
ATOM     22  C   UNL     1       4.349  -1.858  -5.831  0.00  0.00    +0.000 A 
ATOM     23  C   UNL     1       4.215  -3.215  -5.512  0.00  0.00    +0.000 A 
ATOM     24  C   UNL     1       5.337  -4.015  -5.314  0.00  0.00    +0.000 A 
ATOM     25  C   UNL     1       6.587  -3.449  -5.476  0.00  0.00    +0.000 A 
ATOM     26  N   UNL     1       6.787  -2.149  -5.830  0.00  0.00    +0.000 NA
ATOM     27  C   UNL     1       5.663  -1.408  -6.017  0.00  0.00    +0.000 A 
BRANCH  25  28
ATOM     28  C   UNL     1       7.805  -4.290  -5.266  0.00  0.00    +0.000 C 
ATOM     29  N   UNL     1       9.002  -3.655  -5.460  0.00  0.00    +0.000 N 
ATOM     30  O   UNL     1       7.750  -5.474  -4.943  0.00  0.00    +0.000 OA
ATOM     31  H   UNL     1       9.005  -2.681  -5.736  0.00  0.00    +0.000 HD
ATOM     32  H   UNL     1       9.863  -4.168  -5.350  0.00  0.00    +0.000 HD
ENDBRANCH  25  28
ENDBRANCH  20  22
ENDBRANCH  19  20
ENDBRANCH  18  19
ENDBRANCH   3  18
TORSDOF 8
