REMARK  Name = 
REMARK  8 active torsions:
REMARK  status: ('A' for Active; 'I' for Inactive)
REMARK    1  A    between atoms: C_1  and  C_2
REMARK    2  A    between atoms: C_2  and  C_3
REMARK    3  A    between atoms: C_2  and  C_4
REMARK    4  A    between atoms: C_2  and  C_5
REMARK    5  A    between atoms: C_9  and  C_10
REMARK    6  A    between atoms: N_16  and  C_17
REMARK    7  A    between atoms: C_17  and  C_18
REMARK    8  A    between atoms: C_22  and  C_23
REMARK                            x       y       z     vdW  Elec       q    Type
REMARK                         _______ _______ _______ _____ _____    ______ ____
ROOT
ATOM      1  C   UNL     1       2.943   1.393   0.100  0.00  0.00    +0.000 A 
ATOM      2  N   UNL     1       2.184   2.464  -0.079  0.00  0.00    +0.000 NA
ATOM      3  C   UNL     1       2.976   3.560   0.113  0.00  0.00    +0.000 A 
ATOM      4  C   UNL     1       2.639   4.924   0.045  0.00  0.00    +0.000 A 
ATOM      5  C   UNL     1       3.637   5.882   0.282  0.00  0.00    +0.000 A 
ATOM      6  C   UNL     1       4.948   5.464   0.559  0.00  0.00    +0.000 A 
ATOM      7  C   UNL     1       5.297   4.108   0.624  0.00  0.00    +0.000 A 
ATOM      8  C   UNL     1       4.274   3.175   0.412  0.00  0.00    +0.000 A 
ATOM      9  N   UNL     1       4.222   1.789   0.470  0.00  0.00    +0.000 N 
ENDROOT
BRANCH   5  10
ATOM     10  C   UNL     1       3.376   7.353   0.268  0.00  0.00    +0.000 C 
ATOM     11  N   UNL     1       2.122   7.804  -0.038  0.00  0.00    +0.000 N 
ATOM     12  O   UNL     1       4.263   8.160   0.527  0.00  0.00    +0.000 OA
ATOM     13  H   UNL     1       1.337   7.223  -0.285  0.00  0.00    +0.000 HD
ATOM     14  H   UNL     1       1.990   8.805  -0.044  0.00  0.00    +0.000 HD
ENDBRANCH   5  10
BRANCH   1  16
ATOM     15  C   UNL     1       0.924   0.018  -0.472  0.00  0.00    +0.000 C 
ATOM     16  C   UNL     1       2.424  -0.035  -0.083  0.00  0.00    +0.000 C 
ATOM     17  C   UNL     1       2.517  -0.847   1.218  0.00  0.00    +0.000 C 
ATOM     18  C   UNL     1       3.144  -0.759  -1.235  0.00  0.00    +0.000 C 
ENDBRANCH   1  16
BRANCH   9  19
ATOM     19  C   UNL     1       5.364   0.956   0.826  0.00  0.00    +0.000 C 
BRANCH  19  20
ATOM     20  C   UNL     1       5.503   0.643   2.302  0.00  0.00    +0.000 A 
ATOM     21  C   UNL     1       5.108   1.532   3.312  0.00  0.00    +0.000 A 
ATOM     22  C   UNL     1       5.390   1.263   4.653  0.00  0.00    +0.000 A 
ATOM     23  C   UNL     1       6.069   0.099   5.010  0.00  0.00    +0.000 A 
ATOM     24  C   UNL     1       6.442  -0.819   4.028  0.00  0.00    +0.000 A 
ATOM     25  C   UNL     1       6.160  -0.546   2.682  0.00  0.00    +0.000 A 
BRANCH  24  26
ATOM     26  C   UNL     1       7.132  -2.026   4.391  0.00  0.00    +0.000 C 
ATOM     27  N   UNL     1       7.691  -2.999   4.675  0.00  0.00    +0.000 NA
ENDBRANCH  24  26
ENDBRANCH  19  20
ENDBRANCH   9  19
TORSDOF 5
