REMARK  Name = 
REMARK  5 active torsions:
REMARK  status: ('A' for Active; 'I' for Inactive)
REMARK    1  A    between atoms: C_2  and  C_3
REMARK    2  A    between atoms: C_6  and  N_7
REMARK    3  A    between atoms: N_7  and  C_8
REMARK    4  A    between atoms: C_8  and  C_9
REMARK    5  A    between atoms: C_13  and  N_14
REMARK                            x       y       z     vdW  Elec       q    Type
REMARK                         _______ _______ _______ _____ _____    ______ ____
ROOT
ATOM      1  C   UNL     1       8.737  -0.910   0.005  0.00  0.00    +0.000 C 
ATOM      2  C   UNL     1       8.946  -1.537  -1.357  0.00  0.00    +0.000 C 
ATOM      3  C   UNL     1       9.088  -2.381  -0.134  0.00  0.00    +0.000 C 
ENDROOT
BRANCH   1   4
ATOM      4  C   UNL     1       9.792  -0.018   0.660  0.00  0.00    +0.000 A 
ATOM      5  C   UNL     1      10.367  -0.304   1.907  0.00  0.00    +0.000 A 
ATOM      6  C   UNL     1      11.192   0.622   2.553  0.00  0.00    +0.000 A 
ATOM      7  C   UNL     1      11.411   1.882   1.985  0.00  0.00    +0.000 A 
ATOM      8  C   UNL     1      10.850   2.221   0.752  0.00  0.00    +0.000 A 
ATOM      9  C   UNL     1      10.129   1.218   0.086  0.00  0.00    +0.000 A 
BRANCH   8  10
ATOM     10  N   UNL     1      10.936   3.488   0.218  0.00  0.00    +0.000 N 
ATOM     11  C   UNL     1       9.851   4.063  -0.596  0.00  0.00    +0.000 C 
ATOM     12  C   UNL     1      10.406   4.538  -1.954  0.00  0.00    +0.000 C 
ATOM     13  N   UNL     1      11.543   5.477  -1.817  0.00  0.00    +0.000 NA
ATOM     14  C   UNL     1      12.592   4.836  -0.989  0.00  0.00    +0.000 C 
ATOM     15  C   UNL     1      12.098   4.361   0.400  0.00  0.00    +0.000 C 
ATOM     16  H   UNL     1      11.205   6.297  -1.312  0.00  0.00    +0.000 HD
ENDBRANCH   8  10
ENDBRANCH   1   4
BRANCH   1  17
ATOM     17  N   UNL     1       7.342  -0.546   0.361  0.00  0.00    +0.000 N 
ATOM     18  H   UNL     1       7.023  -0.853   1.276  0.00  0.00    +0.000 HD
BRANCH  17  22
ATOM     19  C   UNL     1       5.386   2.849  -1.103  0.00  0.00    +0.000 A 
ATOM     20  N   UNL     1       6.403   2.337  -1.844  0.00  0.00    +0.000 NA
ATOM     21  C   UNL     1       7.017   1.233  -1.340  0.00  0.00    +0.000 A 
ATOM     22  C   UNL     1       6.702   0.614  -0.127  0.00  0.00    +0.000 A 
ATOM     23  C   UNL     1       5.663   1.191   0.604  0.00  0.00    +0.000 A 
ATOM     24  C   UNL     1       4.998   2.317   0.118  0.00  0.00    +0.000 A 
ATOM     25  F   UNL     1       3.997   2.853   0.823  0.00  0.00    +0.000 F 
BRANCH  19  27
ATOM     26  N   UNL     1       4.153   4.914  -2.100  0.00  0.00    +0.000 NA
ATOM     27  C   UNL     1       4.716   3.998  -1.653  0.00  0.00    +0.000 C 
ENDBRANCH  19  27
ENDBRANCH  17  22
ENDBRANCH   1  17
TORSDOF 5
