REMARK  Name = 
REMARK  7 active torsions:
REMARK  status: ('A' for Active; 'I' for Inactive)
REMARK    1  A    between atoms: C_2  and  C_3
REMARK    2  A    between atoms: C_5  and  C_6
REMARK    3  A    between atoms: C_6  and  N_7
REMARK    4  A    between atoms: C_8  and  C_10
REMARK    5  A    between atoms: C_17  and  C_18
REMARK    6  A    between atoms: C_18  and  N_19
REMARK    7  A    between atoms: C_20  and  C_22
REMARK                            x       y       z     vdW  Elec       q    Type
REMARK                         _______ _______ _______ _____ _____    ______ ____
ROOT
ATOM      1  C   UNL     1      -0.544  -0.099  -0.141  0.00  0.00    +0.000 A 
ATOM      2  C   UNL     1       0.180  -1.308  -0.105  0.00  0.00    +0.000 A 
ATOM      3  C   UNL     1       1.580  -1.319  -0.023  0.00  0.00    +0.000 A 
ATOM      4  C   UNL     1       2.252  -0.092   0.026  0.00  0.00    +0.000 A 
ATOM      5  C   UNL     1       1.542   1.112   0.010  0.00  0.00    +0.000 A 
ATOM      6  C   UNL     1       0.139   1.131  -0.089  0.00  0.00    +0.000 A 
ENDROOT
BRANCH   1   8
ATOM      7  N   UNL     1      -3.124  -0.284  -0.393  0.00  0.00    +0.000 NA
ATOM      8  C   UNL     1      -1.979  -0.186  -0.266  0.00  0.00    +0.000 C 
ENDBRANCH   1   8
BRANCH   3   9
ATOM      9  C   UNL     1       2.337  -2.622   0.014  0.00  0.00    +0.000 C 
BRANCH   9  10
ATOM     10  N   UNL     1       2.656  -3.123  -1.297  0.00  0.00    +0.000 N 
ATOM     11  C   UNL     1       3.326  -4.316  -1.459  0.00  0.00    +0.000 C 
ATOM     12  O   UNL     1       3.691  -5.017  -0.520  0.00  0.00    +0.000 OA
ATOM     13  H   UNL     1       2.413  -2.615  -2.143  0.00  0.00    +0.000 HD
BRANCH  11  14
ATOM     14  C   UNL     1       3.559  -4.672  -2.861  0.00  0.00    +0.000 A 
ATOM     15  C   UNL     1       4.209  -5.800  -3.330  0.00  0.00    +0.000 A 
ATOM     16  N   UNL     1       4.186  -5.700  -4.691  0.00  0.00    +0.000 N 
ATOM     17  C   UNL     1       3.535  -4.543  -5.008  0.00  0.00    +0.000 A 
ATOM     18  N   UNL     1       3.141  -3.893  -3.933  0.00  0.00    +0.000 NA
ATOM     19  H   UNL     1       4.575  -6.360  -5.349  0.00  0.00    +0.000 HD
ENDBRANCH  11  14
ENDBRANCH   9  10
ENDBRANCH   3   9
BRANCH   6  20
ATOM     20  C   UNL     1      -0.557   2.472  -0.125  0.00  0.00    +0.000 C 
BRANCH  20  21
ATOM     21  N   UNL     1      -0.950   2.920   1.188  0.00  0.00    +0.000 N 
ATOM     22  C   UNL     1      -0.238   3.815   1.945  0.00  0.00    +0.000 C 
ATOM     23  O   UNL     1       0.846   4.267   1.588  0.00  0.00    +0.000 OA
ATOM     24  H   UNL     1      -1.742   2.444   1.603  0.00  0.00    +0.000 HD
BRANCH  22  25
ATOM     25  C   UNL     1      -0.889   4.261   3.191  0.00  0.00    +0.000 A 
ATOM     26  C   UNL     1      -0.539   5.473   3.770  0.00  0.00    +0.000 A 
ATOM     27  S   UNL     1      -1.463   5.863   5.153  0.00  0.00    +0.000 S 
ATOM     28  C   UNL     1      -2.343   4.409   5.043  0.00  0.00    +0.000 A 
ATOM     29  N   UNL     1      -3.326   4.112   5.935  0.00  0.00    +0.000 NA
ATOM     30  C   UNL     1      -3.912   2.980   5.728  0.00  0.00    +0.000 A 
ATOM     31  N   UNL     1      -3.600   2.114   4.714  0.00  0.00    +0.000 N 
ATOM     32  C   UNL     1      -2.605   2.365   3.800  0.00  0.00    +0.000 A 
ATOM     33  O   UNL     1      -2.351   1.567   2.903  0.00  0.00    +0.000 OA
ATOM     34  C   UNL     1      -1.934   3.639   3.970  0.00  0.00    +0.000 A 
ATOM     35  H   UNL     1      -4.096   1.241   4.600  0.00  0.00    +0.000 HD
ENDBRANCH  22  25
ENDBRANCH  20  21
ENDBRANCH   6  20
TORSDOF 7
