REMARK  Name = 
REMARK  9 active torsions:
REMARK  status: ('A' for Active; 'I' for Inactive)
REMARK    1  A    between atoms: C_1  and  C_2
REMARK    2  A    between atoms: C_2  and  C_3
REMARK    3  A    between atoms: C_9  and  C_10
REMARK    4  A    between atoms: C_10  and  N_11
REMARK    5  A    between atoms: N_14  and  C_15
REMARK    6  A    between atoms: C_15  and  C_16
REMARK    7  A    between atoms: C_19  and  C_20
REMARK    8  A    between atoms: C_20  and  N_21
REMARK    9  A    between atoms: C_22  and  C_24
REMARK                            x       y       z     vdW  Elec       q    Type
REMARK                         _______ _______ _______ _____ _____    ______ ____
ROOT
ATOM      1  C   UNL     1       4.960  -5.611   8.746  0.00  0.00    +0.000 A 
ATOM      2  C   UNL     1       3.999  -5.139   9.653  0.00  0.00    +0.000 A 
ATOM      3  C   UNL     1       4.380  -4.379  10.757  0.00  0.00    +0.000 A 
ATOM      4  C   UNL     1       5.727  -4.053  10.955  0.00  0.00    +0.000 A 
ATOM      5  C   UNL     1       6.687  -4.540  10.056  0.00  0.00    +0.000 A 
ATOM      6  C   UNL     1       6.306  -5.305   8.953  0.00  0.00    +0.000 A 
ENDROOT
BRANCH   1   7
ATOM      7  C   UNL     1       4.529  -6.472   7.598  0.00  0.00    +0.000 C 
BRANCH   7  11
ATOM      8  N   UNL     1       2.656  -7.337   5.682  0.00  0.00    +0.000 N 
ATOM      9  C   UNL     1       3.175  -6.094   5.516  0.00  0.00    +0.000 C 
ATOM     10  O   UNL     1       2.883  -5.348   4.580  0.00  0.00    +0.000 OA
ATOM     11  N   UNL     1       4.074  -5.706   6.460  0.00  0.00    +0.000 N 
ATOM     12  H   UNL     1       2.739  -7.748   6.593  0.00  0.00    +0.000 HD
ATOM     13  H   UNL     1       4.516  -4.814   6.269  0.00  0.00    +0.000 HD
BRANCH   8  14
ATOM     14  C   UNL     1       1.494  -7.795   4.973  0.00  0.00    +0.000 C 
BRANCH  14  21
ATOM     15  C   UNL     1       1.409 -12.584   6.787  0.00  0.00    +0.000 A 
ATOM     16  C   UNL     1       1.145 -12.204   8.056  0.00  0.00    +0.000 A 
ATOM     17  N   UNL     1       1.016 -10.882   8.430  0.00  0.00    +0.000 N 
ATOM     18  C   UNL     1       1.161  -9.800   7.573  0.00  0.00    +0.000 A 
ATOM     19  O   UNL     1       1.147  -8.645   7.987  0.00  0.00    +0.000 OA
ATOM     20  C   UNL     1       1.368 -10.155   6.167  0.00  0.00    +0.000 A 
ATOM     21  C   UNL     1       1.514  -9.294   5.009  0.00  0.00    +0.000 A 
ATOM     22  C   UNL     1       1.718 -10.056   3.871  0.00  0.00    +0.000 A 
ATOM     23  S   UNL     1       1.723 -11.728   4.170  0.00  0.00    +0.000 S 
ATOM     24  C   UNL     1       1.480 -11.501   5.844  0.00  0.00    +0.000 A 
ATOM     25  H   UNL     1       0.859 -10.652   9.404  0.00  0.00    +0.000 HD
BRANCH  15  27
ATOM     26  C   UNL     1       3.105 -14.412   6.529  0.00  0.00    +0.000 C 
ATOM     27  C   UNL     1       1.626 -14.052   6.473  0.00  0.00    +0.000 C 
ENDBRANCH  15  27
ENDBRANCH  14  21
ENDBRANCH   8  14
ENDBRANCH   7  11
ENDBRANCH   1   7
BRANCH   4  28
ATOM     28  C   UNL     1       6.149  -3.225  12.138  0.00  0.00    +0.000 C 
BRANCH  28  29
ATOM     29  N   UNL     1       6.456  -4.061  13.267  0.00  0.00    +0.000 N 
ATOM     30  C   UNL     1       6.827  -3.519  14.470  0.00  0.00    +0.000 C 
ATOM     31  O   UNL     1       6.872  -2.306  14.655  0.00  0.00    +0.000 OA
ATOM     32  H   UNL     1       6.667  -5.034  13.073  0.00  0.00    +0.000 HD
BRANCH  30  33
ATOM     33  C   UNL     1       7.092  -4.473  15.552  0.00  0.00    +0.000 A 
ATOM     34  C   UNL     1       6.961  -4.072  16.874  0.00  0.00    +0.000 A 
ATOM     35  S   UNL     1       7.205  -5.334  17.995  0.00  0.00    +0.000 S 
ATOM     36  C   UNL     1       7.554  -6.444  16.754  0.00  0.00    +0.000 A 
ATOM     37  N   UNL     1       7.858  -7.740  17.035  0.00  0.00    +0.000 NA
ATOM     38  C   UNL     1       8.136  -8.460  16.000  0.00  0.00    +0.000 A 
ATOM     39  N   UNL     1       8.140  -8.002  14.708  0.00  0.00    +0.000 N 
ATOM     40  C   UNL     1       7.817  -6.708  14.374  0.00  0.00    +0.000 A 
ATOM     41  O   UNL     1       7.804  -6.338  13.205  0.00  0.00    +0.000 OA
ATOM     42  C   UNL     1       7.488  -5.859  15.502  0.00  0.00    +0.000 A 
ATOM     43  H   UNL     1       8.371  -8.615  13.941  0.00  0.00    +0.000 HD
ENDBRANCH  30  33
ENDBRANCH  28  29
ENDBRANCH   4  28
TORSDOF 8
