REMARK  Name = 
REMARK  7 active torsions:
REMARK  status: ('A' for Active; 'I' for Inactive)
REMARK    1  A    between atoms: C_2  and  C_3
REMARK    2  A    between atoms: C_7  and  C_8
REMARK    3  A    between atoms: C_8  and  O_9
REMARK    4  A    between atoms: O_9  and  C_10
REMARK    5  A    between atoms: C_13  and  C_14
REMARK    6  A    between atoms: C_14  and  N_15
REMARK    7  A    between atoms: C_16  and  C_18
REMARK                            x       y       z     vdW  Elec       q    Type
REMARK                         _______ _______ _______ _____ _____    ______ ____
ROOT
ATOM      1  C   UNL     1       4.610   3.371   0.078  0.00  0.00    +0.000 A 
ATOM      2  C   UNL     1       4.309   4.429   0.930  0.00  0.00    +0.000 A 
ATOM      3  C   UNL     1       5.166   5.537   0.946  0.00  0.00    +0.000 A 
ATOM      4  C   UNL     1       6.318   5.541   0.161  0.00  0.00    +0.000 A 
ATOM      5  C   UNL     1       6.533   4.415  -0.632  0.00  0.00    +0.000 A 
ATOM      6  N   UNL     1       5.711   3.343  -0.692  0.00  0.00    +0.000 NA
ENDROOT
BRANCH   1   7
ATOM      7  O   UNL     1       3.792   2.257   0.056  0.00  0.00    +0.000 OA
BRANCH   7   8
ATOM      8  C   UNL     1       3.817   1.604  -1.227  0.00  0.00    +0.000 C 
BRANCH   8  13
ATOM      9  C   UNL     1       0.072   0.942  -1.595  0.00  0.00    +0.000 A 
ATOM     10  C   UNL     1       0.045  -0.432  -1.819  0.00  0.00    +0.000 A 
ATOM     11  C   UNL     1       1.235  -1.159  -1.855  0.00  0.00    +0.000 A 
ATOM     12  C   UNL     1       2.457  -0.508  -1.666  0.00  0.00    +0.000 A 
ATOM     13  C   UNL     1       2.504   0.875  -1.434  0.00  0.00    +0.000 A 
ATOM     14  C   UNL     1       1.299   1.596  -1.412  0.00  0.00    +0.000 A 
BRANCH   9  16
ATOM     15  N   UNL     1      -2.141   2.293  -1.476  0.00  0.00    +0.000 NA
ATOM     16  C   UNL     1      -1.143   1.686  -1.533  0.00  0.00    +0.000 C 
ENDBRANCH   9  16
ENDBRANCH   8  13
ENDBRANCH   7   8
ENDBRANCH   1   7
BRANCH   4  17
ATOM     17  C   UNL     1       7.319   6.667   0.136  0.00  0.00    +0.000 C 
BRANCH  17  18
ATOM     18  N   UNL     1       7.033   7.696  -0.841  0.00  0.00    +0.000 N 
ATOM     19  C   UNL     1       6.978   7.427  -2.186  0.00  0.00    +0.000 C 
ATOM     20  O   UNL     1       7.148   6.302  -2.648  0.00  0.00    +0.000 OA
ATOM     21  H   UNL     1       7.281   8.648  -0.587  0.00  0.00    +0.000 HD
BRANCH  19  22
ATOM     22  C   UNL     1       6.653   8.554  -3.060  0.00  0.00    +0.000 A 
ATOM     23  C   UNL     1       5.969   8.328  -4.246  0.00  0.00    +0.000 A 
ATOM     24  S   UNL     1       5.713   9.743  -5.163  0.00  0.00    +0.000 S 
ATOM     25  C   UNL     1       6.525  10.702  -4.014  0.00  0.00    +0.000 A 
ATOM     26  N   UNL     1       6.709  12.034  -4.216  0.00  0.00    +0.000 NA
ATOM     27  C   UNL     1       7.358  12.634  -3.275  0.00  0.00    +0.000 A 
ATOM     28  N   UNL     1       7.824  12.024  -2.138  0.00  0.00    +0.000 N 
ATOM     29  C   UNL     1       7.610  10.695  -1.867  0.00  0.00    +0.000 A 
ATOM     30  O   UNL     1       7.941  10.195  -0.790  0.00  0.00    +0.000 OA
ATOM     31  C   UNL     1       6.940   9.961  -2.921  0.00  0.00    +0.000 A 
ATOM     32  H   UNL     1       8.288  12.564  -1.421  0.00  0.00    +0.000 HD
ENDBRANCH  19  22
ENDBRANCH  17  18
ENDBRANCH   4  17
TORSDOF 7
