REMARK  Name = 
REMARK  12 active torsions:
REMARK  status: ('A' for Active; 'I' for Inactive)
REMARK    1  A    between atoms: N_1  and  C_2
REMARK    2  A    between atoms: C_2  and  C_3
REMARK    3  A    between atoms: C_3  and  N_4
REMARK    4  A    between atoms: N_4  and  C_5
REMARK    5  A    between atoms: C_5  and  C_6
REMARK    6  A    between atoms: C_8  and  C_9
REMARK    7  A    between atoms: C_9  and  N_10
REMARK    8  A    between atoms: C_11  and  C_13
REMARK    9  A    between atoms: C_25  and  C_26
REMARK   10  A    between atoms: C_26  and  N_27
REMARK   11  A    between atoms: N_27  and  C_28
REMARK   12  A    between atoms: C_28  and  C_29
REMARK                            x       y       z     vdW  Elec       q    Type
REMARK                         _______ _______ _______ _____ _____    ______ ____
ROOT
ATOM      1  C   UNL     1       6.385   2.838  -0.306  0.00  0.00    +0.000 A 
ATOM      2  C   UNL     1       7.102   1.620  -0.312  0.00  0.00    +0.000 A 
ATOM      3  C   UNL     1       8.495   1.569  -0.450  0.00  0.00    +0.000 A 
ATOM      4  C   UNL     1       9.195   2.768  -0.569  0.00  0.00    +0.000 A 
ATOM      5  C   UNL     1       8.513   3.987  -0.521  0.00  0.00    +0.000 A 
ATOM      6  C   UNL     1       7.112   4.050  -0.356  0.00  0.00    +0.000 A 
ENDROOT
BRANCH   1   7
ATOM      7  C   UNL     1       4.872   2.737  -0.235  0.00  0.00    +0.000 C 
BRANCH   7   8
ATOM      8  N   UNL     1       4.215   3.255  -1.437  0.00  0.00    +0.000 NA
ATOM      9  H   UNL     1       4.396   4.252  -1.512  0.00  0.00    +0.000 HD
BRANCH   8  10
ATOM     10  C   UNL     1       2.757   3.085  -1.339  0.00  0.00    +0.000 C 
BRANCH  10  11
ATOM     11  C   UNL     1       2.030   3.657  -2.571  0.00  0.00    +0.000 C 
BRANCH  11  12
ATOM     12  N   UNL     1       2.317   5.080  -2.778  0.00  0.00    +0.000 NA
ATOM     13  H   UNL     1       1.811   5.397  -3.605  0.00  0.00    +0.000 HD
ATOM     14  H   UNL     1       3.303   5.175  -3.015  0.00  0.00    +0.000 HD
ENDBRANCH  11  12
ENDBRANCH  10  11
ENDBRANCH   8  10
ENDBRANCH   7   8
ENDBRANCH   1   7
BRANCH   3  15
ATOM     15  C   UNL     1       9.210   0.244  -0.436  0.00  0.00    +0.000 C 
BRANCH  15  16
ATOM     16  N   UNL     1       9.618  -0.119   0.899  0.00  0.00    +0.000 N 
ATOM     17  C   UNL     1      10.355  -1.252   1.132  0.00  0.00    +0.000 C 
ATOM     18  O   UNL     1      10.744  -1.973   0.217  0.00  0.00    +0.000 OA
ATOM     19  H   UNL     1       9.125   0.325   1.668  0.00  0.00    +0.000 HD
BRANCH  17  20
ATOM     20  C   UNL     1      10.713  -1.532   2.529  0.00  0.00    +0.000 A 
ATOM     21  C   UNL     1      11.817  -2.327   2.807  0.00  0.00    +0.000 A 
ATOM     22  S   UNL     1      12.123  -2.519   4.473  0.00  0.00    +0.000 S 
ATOM     23  C   UNL     1      10.759  -1.589   4.885  0.00  0.00    +0.000 A 
ATOM     24  N   UNL     1      10.423  -1.384   6.187  0.00  0.00    +0.000 NA
ATOM     25  C   UNL     1       9.352  -0.685   6.355  0.00  0.00    +0.000 A 
ATOM     26  N   UNL     1       8.584  -0.170   5.343  0.00  0.00    +0.000 N 
ATOM     27  C   UNL     1       8.905  -0.325   4.013  0.00  0.00    +0.000 A 
ATOM     28  O   UNL     1       8.225   0.189   3.129  0.00  0.00    +0.000 OA
ATOM     29  C   UNL     1      10.093  -1.119   3.767  0.00  0.00    +0.000 A 
ATOM     30  H   UNL     1       7.763   0.381   5.543  0.00  0.00    +0.000 HD
ENDBRANCH  17  20
ENDBRANCH  15  16
ENDBRANCH   3  15
BRANCH   6  31
ATOM     31  C   UNL     1       6.496   5.434  -0.240  0.00  0.00    +0.000 C 
BRANCH  31  32
ATOM     32  N   UNL     1       5.742   5.699   0.984  0.00  0.00    +0.000 NA
ATOM     33  H   UNL     1       4.931   5.094   1.040  0.00  0.00    +0.000 HD
BRANCH  32  34
ATOM     34  C   UNL     1       6.536   5.551   2.203  0.00  0.00    +0.000 C 
BRANCH  34  35
ATOM     35  C   UNL     1       5.656   5.767   3.406  0.00  0.00    +0.000 A 
ATOM     36  C   UNL     1       4.923   6.890   3.741  0.00  0.00    +0.000 A 
ATOM     37  C   UNL     1       4.194   6.725   4.954  0.00  0.00    +0.000 A 
ATOM     38  C   UNL     1       4.399   5.484   5.512  0.00  0.00    +0.000 A 
ATOM     39  S   UNL     1       5.461   4.525   4.574  0.00  0.00    +0.000 S 
ENDBRANCH  34  35
ENDBRANCH  32  34
ENDBRANCH  31  32
ENDBRANCH   6  31
TORSDOF 12
