REMARK  Name = 
REMARK  9 active torsions:
REMARK  status: ('A' for Active; 'I' for Inactive)
REMARK    1  A    between atoms: C_1  and  O_2
REMARK    2  A    between atoms: O_2  and  C_3
REMARK    3  A    between atoms: C_10  and  C_11
REMARK    4  A    between atoms: N_13  and  C_14
REMARK    5  A    between atoms: C_14  and  C_15
REMARK    6  A    between atoms: C_18  and  C_19
REMARK    7  A    between atoms: C_19  and  O_20
REMARK    8  A    between atoms: O_20  and  C_21
REMARK    9  A    between atoms: C_21  and  C_22
REMARK                            x       y       z     vdW  Elec       q    Type
REMARK                         _______ _______ _______ _____ _____    ______ ____
ROOT
ATOM      1  C   UNL     1       2.897  -2.479  -2.360  0.00  0.00    +0.000 C 
ENDROOT
BRANCH   1   2
ATOM      2  C   UNL     1       1.764  -3.042  -1.543  0.00  0.00    +0.000 A 
ATOM      3  C   UNL     1       1.740  -4.394  -1.178  0.00  0.00    +0.000 A 
ATOM      4  C   UNL     1       0.737  -4.886  -0.334  0.00  0.00    +0.000 A 
ATOM      5  C   UNL     1      -0.267  -4.036   0.154  0.00  0.00    +0.000 A 
ATOM      6  C   UNL     1      -0.274  -2.699  -0.263  0.00  0.00    +0.000 A 
ATOM      7  C   UNL     1       0.726  -2.209  -1.108  0.00  0.00    +0.000 A 
BRANCH   5   8
ATOM      8  C   UNL     1      -1.308  -4.543   1.122  0.00  0.00    +0.000 C 
BRANCH   8   9
ATOM      9  O   UNL     1      -0.655  -5.001   2.303  0.00  0.00    +0.000 OA
BRANCH   9  10
ATOM     10  C   UNL     1      -1.583  -5.438   3.295  0.00  0.00    +0.000 C 
BRANCH  10  11
ATOM     11  C   UNL     1      -0.840  -5.913   4.519  0.00  0.00    +0.000 A 
ATOM     12  C   UNL     1      -1.420  -5.817   5.788  0.00  0.00    +0.000 A 
ATOM     13  C   UNL     1      -0.710  -6.288   6.884  0.00  0.00    +0.000 A 
ATOM     14  N   UNL     1       0.513  -6.851   6.804  0.00  0.00    +0.000 NA
ATOM     15  C   UNL     1       1.052  -6.947   5.570  0.00  0.00    +0.000 A 
ATOM     16  C   UNL     1       0.421  -6.509   4.417  0.00  0.00    +0.000 A 
ENDBRANCH  10  11
ENDBRANCH   9  10
ENDBRANCH   8   9
ENDBRANCH   5   8
ENDBRANCH   1   2
BRANCH   1  19
ATOM     17  C   UNL     1       3.560  -2.077  -4.677  0.00  0.00    +0.000 C 
ATOM     18  O   UNL     1       4.616  -1.575  -4.301  0.00  0.00    +0.000 OA
ATOM     19  N   UNL     1       2.638  -2.541  -3.775  0.00  0.00    +0.000 N 
ATOM     20  H   UNL     1       1.764  -2.940  -4.087  0.00  0.00    +0.000 HD
BRANCH  17  28
ATOM     21  C   UNL     1       0.880  -3.357  -6.432  0.00  0.00    +0.000 A 
ATOM     22  N   UNL     1       0.015  -3.829  -7.354  0.00  0.00    +0.000 NA
ATOM     23  C   UNL     1       0.333  -3.693  -8.643  0.00  0.00    +0.000 A 
ATOM     24  N   UNL     1       1.427  -3.126  -9.140  0.00  0.00    +0.000 NA
ATOM     25  C   UNL     1       2.269  -2.685  -8.190  0.00  0.00    +0.000 A 
ATOM     26  S   UNL     1       3.717  -1.927  -8.648  0.00  0.00    +0.000 S 
ATOM     27  C   UNL     1       4.169  -1.709  -7.026  0.00  0.00    +0.000 A 
ATOM     28  C   UNL     1       3.245  -2.201  -6.109  0.00  0.00    +0.000 A 
ATOM     29  C   UNL     1       2.098  -2.769  -6.811  0.00  0.00    +0.000 A 
BRANCH  21  31
ATOM     30  C   UNL     1      -0.878  -3.534  -4.910  0.00  0.00    +0.000 C 
ATOM     31  O   UNL     1       0.535  -3.479  -5.101  0.00  0.00    +0.000 OA
ENDBRANCH  21  31
ENDBRANCH  17  28
ENDBRANCH   1  19
TORSDOF 8
