REMARK  Name = 
REMARK  8 active torsions:
REMARK  status: ('A' for Active; 'I' for Inactive)
REMARK    1  A    between atoms: C_1  and  C_2
REMARK    2  A    between atoms: C_2  and  N_3
REMARK    3  A    between atoms: C_2  and  C_16
REMARK    4  A    between atoms: C_4  and  C_6
REMARK    5  A    between atoms: C_19  and  C_20
REMARK    6  A    between atoms: C_20  and  N_21
REMARK    7  A    between atoms: N_21  and  C_22
REMARK    8  A    between atoms: C_22  and  C_23
REMARK                            x       y       z     vdW  Elec       q    Type
REMARK                         _______ _______ _______ _____ _____    ______ ____
ROOT
ATOM      1  C   UNL     1       3.430  -0.162  -1.215  0.00  0.00    +0.000 C 
ATOM      2  C   UNL     1       2.418   0.116  -0.096  0.00  0.00    +0.000 C 
ENDROOT
BRANCH   2   3
ATOM      3  C   UNL     1       2.805  -0.662   1.154  0.00  0.00    +0.000 A 
ATOM      4  C   UNL     1       3.167   0.006   2.330  0.00  0.00    +0.000 A 
ATOM      5  C   UNL     1       3.470  -0.716   3.491  0.00  0.00    +0.000 A 
ATOM      6  C   UNL     1       3.409  -2.117   3.505  0.00  0.00    +0.000 A 
ATOM      7  C   UNL     1       3.074  -2.787   2.324  0.00  0.00    +0.000 A 
ATOM      8  C   UNL     1       2.775  -2.068   1.164  0.00  0.00    +0.000 A 
BRANCH   6   9
ATOM      9  C   UNL     1       3.677  -2.886   4.779  0.00  0.00    +0.000 C 
BRANCH   9  10
ATOM     10  N   UNL     1       2.715  -2.508   5.812  0.00  0.00    +0.000 NA
ATOM     11  H   UNL     1       1.772  -2.678   5.463  0.00  0.00    +0.000 HD
BRANCH  10  12
ATOM     12  C   UNL     1       2.916  -3.259   7.046  0.00  0.00    +0.000 C 
BRANCH  12  13
ATOM     13  C   UNL     1       1.887  -2.862   8.078  0.00  0.00    +0.000 A 
ATOM     14  C   UNL     1       1.000  -3.801   8.614  0.00  0.00    +0.000 A 
ATOM     15  C   UNL     1       0.068  -3.377   9.550  0.00  0.00    +0.000 A 
ATOM     16  N   UNL     1      -0.038  -2.103   9.984  0.00  0.00    +0.000 NA
ATOM     17  C   UNL     1       0.829  -1.212   9.459  0.00  0.00    +0.000 A 
ATOM     18  C   UNL     1       1.797  -1.539   8.521  0.00  0.00    +0.000 A 
ENDBRANCH  12  13
ENDBRANCH  10  12
ENDBRANCH   9  10
ENDBRANCH   6   9
ENDBRANCH   2   3
BRANCH   2  19
ATOM     19  N   UNL     1       1.052  -0.230  -0.464  0.00  0.00    +0.000 N 
ATOM     20  C   UNL     1       0.390   0.336  -1.523  0.00  0.00    +0.000 C 
ATOM     21  O   UNL     1       0.917   1.145  -2.280  0.00  0.00    +0.000 OA
ATOM     22  H   UNL     1       0.486  -0.624   0.283  0.00  0.00    +0.000 HD
BRANCH  20  23
ATOM     23  C   UNL     1      -0.980  -0.134  -1.760  0.00  0.00    +0.000 A 
ATOM     24  C   UNL     1      -1.496  -0.116  -3.049  0.00  0.00    +0.000 A 
ATOM     25  S   UNL     1      -3.091  -0.710  -3.157  0.00  0.00    +0.000 S 
ATOM     26  C   UNL     1      -3.165  -0.968  -1.476  0.00  0.00    +0.000 A 
ATOM     27  N   UNL     1      -4.300  -1.439  -0.891  0.00  0.00    +0.000 NA
ATOM     28  C   UNL     1      -4.228  -1.554   0.393  0.00  0.00    +0.000 A 
ATOM     29  N   UNL     1      -3.119  -1.256   1.143  0.00  0.00    +0.000 N 
ATOM     30  C   UNL     1      -1.938  -0.818   0.590  0.00  0.00    +0.000 A 
ATOM     31  O   UNL     1      -0.939  -0.625   1.276  0.00  0.00    +0.000 OA
ATOM     32  C   UNL     1      -1.977  -0.639  -0.848  0.00  0.00    +0.000 A 
ATOM     33  H   UNL     1      -3.123  -1.383   2.144  0.00  0.00    +0.000 HD
ENDBRANCH  20  23
ENDBRANCH   2  19
TORSDOF 7
