REMARK  Name = 
REMARK  6 active torsions:
REMARK  status: ('A' for Active; 'I' for Inactive)
REMARK    1  A    between atoms: C_2  and  C_4
REMARK    2  A    between atoms: C_7  and  N_8
REMARK    3  A    between atoms: N_8  and  C_9
REMARK    4  A    between atoms: C_9  and  C_10
REMARK    5  A    between atoms: C_14  and  O_15
REMARK    6  A    between atoms: O_15  and  C_16
REMARK                            x       y       z     vdW  Elec       q    Type
REMARK                         _______ _______ _______ _____ _____    ______ ____
ROOT
ATOM      1  N   UNL     1       5.633  -4.166   2.228  0.00  0.00    +0.000 N 
ATOM      2  H   UNL     1       6.016  -3.799   3.096  0.00  0.00    +0.000 HD
ENDROOT
BRANCH   1   6
ATOM      3  C   UNL     1       3.550  -1.334  -0.034  0.00  0.00    +0.000 A 
ATOM      4  N   UNL     1       4.571  -0.930   0.782  0.00  0.00    +0.000 NA
ATOM      5  C   UNL     1       5.191  -1.894   1.513  0.00  0.00    +0.000 A 
ATOM      6  C   UNL     1       4.855  -3.252   1.518  0.00  0.00    +0.000 A 
ATOM      7  C   UNL     1       3.815  -3.615   0.655  0.00  0.00    +0.000 A 
ATOM      8  C   UNL     1       3.139  -2.661  -0.121  0.00  0.00    +0.000 A 
ATOM      9 CL   UNL     1       1.858  -3.242  -1.121  0.00  0.00    +0.000 Cl
BRANCH   3  11
ATOM     10  N   UNL     1       3.474   1.020  -0.631  0.00  0.00    +0.000 N 
ATOM     11  C   UNL     1       2.929  -0.220  -0.844  0.00  0.00    +0.000 C 
ATOM     12  O   UNL     1       2.018  -0.356  -1.646  0.00  0.00    +0.000 OA
ATOM     13  H   UNL     1       3.132   1.810  -1.161  0.00  0.00    +0.000 HD
ATOM     14  H   UNL     1       4.251   1.128   0.013  0.00  0.00    +0.000 HD
ENDBRANCH   3  11
ENDBRANCH   1   6
BRANCH   1  15
ATOM     15  C   UNL     1       5.245  -5.571   2.321  0.00  0.00    +0.000 C 
BRANCH  15  16
ATOM     16  C   UNL     1       6.248  -6.352   3.141  0.00  0.00    +0.000 A 
ATOM     17  C   UNL     1       5.851  -7.039   4.294  0.00  0.00    +0.000 A 
ATOM     18  C   UNL     1       6.777  -7.784   5.028  0.00  0.00    +0.000 A 
ATOM     19  C   UNL     1       8.107  -7.870   4.609  0.00  0.00    +0.000 A 
ATOM     20  C   UNL     1       8.508  -7.238   3.434  0.00  0.00    +0.000 A 
ATOM     21  C   UNL     1       7.587  -6.454   2.729  0.00  0.00    +0.000 A 
BRANCH  20  22
ATOM     22  O   UNL     1       9.761  -7.268   2.903  0.00  0.00    +0.000 OA
BRANCH  22  23
ATOM     23  C   UNL     1      10.555  -8.438   3.057  0.00  0.00    +0.000 C 
ATOM     24  F   UNL     1       9.893  -9.498   3.567  0.00  0.00    +0.000 F 
ATOM     25  F   UNL     1      11.029  -8.797   1.842  0.00  0.00    +0.000 F 
ATOM     26  F   UNL     1      11.610  -8.160   3.853  0.00  0.00    +0.000 F 
ENDBRANCH  22  23
ENDBRANCH  20  22
ENDBRANCH  15  16
ENDBRANCH   1  15
TORSDOF 6
