REMARK  Name = 
REMARK  4 active torsions:
REMARK  status: ('A' for Active; 'I' for Inactive)
REMARK    1  A    between atoms: C_2  and  C_4
REMARK    2  A    between atoms: N_8  and  C_9
REMARK    3  A    between atoms: C_9  and  C_10
REMARK    4  A    between atoms: C_12  and  N_13
REMARK                            x       y       z     vdW  Elec       q    Type
REMARK                         _______ _______ _______ _____ _____    ______ ____
ROOT
ATOM      1  C   UNL     1       7.476   0.603  -1.369  0.00  0.00    +0.000 A 
ATOM      2  C   UNL     1       7.157  -0.228  -2.437  0.00  0.00    +0.000 A 
ATOM      3  C   UNL     1       6.536   0.320  -3.559  0.00  0.00    +0.000 A 
ATOM      4  C   UNL     1       6.238   1.678  -3.592  0.00  0.00    +0.000 A 
ATOM      5  N   UNL     1       5.607   2.292  -4.633  0.00  0.00    +0.000 N 
ATOM      6  N   UNL     1       6.548   2.490  -2.561  0.00  0.00    +0.000 NA
ATOM      7  C   UNL     1       7.146   1.943  -1.470  0.00  0.00    +0.000 A 
ATOM      8  H   UNL     1       5.494   3.288  -4.512  0.00  0.00    +0.000 HD
ENDROOT
BRANCH   1  10
ATOM      9  N   UNL     1       8.914  -1.009  -0.261  0.00  0.00    +0.000 N 
ATOM     10  C   UNL     1       8.131   0.103  -0.141  0.00  0.00    +0.000 C 
ATOM     11  O   UNL     1       8.004   0.681   0.929  0.00  0.00    +0.000 OA
ATOM     12  H   UNL     1       9.435  -1.286   0.563  0.00  0.00    +0.000 HD
ATOM     13  H   UNL     1       9.234  -1.360  -1.154  0.00  0.00    +0.000 HD
ENDBRANCH   1  10
BRANCH   5  14
ATOM     14  C   UNL     1       5.047   1.638  -5.796  0.00  0.00    +0.000 C 
BRANCH  14  15
ATOM     15  C   UNL     1       6.029   1.579  -6.949  0.00  0.00    +0.000 A 
ATOM     16  C   UNL     1       6.507   2.770  -7.498  0.00  0.00    +0.000 A 
ATOM     17  C   UNL     1       7.362   2.762  -8.602  0.00  0.00    +0.000 A 
ATOM     18  C   UNL     1       7.719   1.507  -9.095  0.00  0.00    +0.000 A 
ATOM     19  C   UNL     1       7.215   0.360  -8.494  0.00  0.00    +0.000 A 
ATOM     20  N   UNL     1       6.377   0.365  -7.436  0.00  0.00    +0.000 NA
BRANCH  17  21
ATOM     21  N   UNL     1       7.838   3.939  -9.135  0.00  0.00    +0.000 N 
ATOM     22  C   UNL     1       9.106   4.040  -9.869  0.00  0.00    +0.000 C 
ATOM     23  C   UNL     1       9.846   5.310  -9.405  0.00  0.00    +0.000 C 
ATOM     24  O   UNL     1       9.035   6.489  -9.551  0.00  0.00    +0.000 OA
ATOM     25  C   UNL     1       7.827   6.364  -8.780  0.00  0.00    +0.000 C 
ATOM     26  C   UNL     1       7.004   5.149  -9.232  0.00  0.00    +0.000 C 
ENDBRANCH  17  21
ENDBRANCH  14  15
ENDBRANCH   5  14
TORSDOF 4
