REMARK  Name = 
REMARK  7 active torsions:
REMARK  status: ('A' for Active; 'I' for Inactive)
REMARK    1  A    between atoms: C_2  and  C_4
REMARK    2  A    between atoms: C_7  and  C_8
REMARK    3  A    between atoms: C_8  and  N_9
REMARK    4  A    between atoms: C_10  and  C_12
REMARK    5  A    between atoms: C_23  and  C_24
REMARK    6  A    between atoms: C_24  and  N_25
REMARK    7  A    between atoms: C_26  and  C_28
REMARK                            x       y       z     vdW  Elec       q    Type
REMARK                         _______ _______ _______ _____ _____    ______ ____
ROOT
ATOM      1  C   UNL     1       3.234  -1.265  -0.005  0.00  0.00    +0.000 A 
ATOM      2  C   UNL     1       2.877  -2.387  -0.774  0.00  0.00    +0.000 A 
ATOM      3  C   UNL     1       3.603  -3.573  -0.698  0.00  0.00    +0.000 A 
ATOM      4  C   UNL     1       4.708  -3.663   0.147  0.00  0.00    +0.000 A 
ATOM      5  C   UNL     1       5.024  -2.571   0.972  0.00  0.00    +0.000 A 
ATOM      6  C   UNL     1       4.286  -1.366   0.929  0.00  0.00    +0.000 A 
ENDROOT
BRANCH   1   8
ATOM      7  N   UNL     1       1.988   0.209  -1.486  0.00  0.00    +0.000 N 
ATOM      8  C   UNL     1       2.462  -0.004  -0.217  0.00  0.00    +0.000 C 
ATOM      9  O   UNL     1       2.267   0.824   0.658  0.00  0.00    +0.000 OA
ATOM     10  H   UNL     1       1.504   1.079  -1.663  0.00  0.00    +0.000 HD
ATOM     11  H   UNL     1       2.269  -0.349  -2.280  0.00  0.00    +0.000 HD
ENDBRANCH   1   8
BRANCH   4  12
ATOM     12  C   UNL     1       5.508  -4.936   0.198  0.00  0.00    +0.000 C 
BRANCH  12  13
ATOM     13  N   UNL     1       5.016  -5.819   1.222  0.00  0.00    +0.000 N 
ATOM     14  C   UNL     1       4.173  -6.866   0.968  0.00  0.00    +0.000 C 
ATOM     15  O   UNL     1       3.779  -7.145  -0.162  0.00  0.00    +0.000 OA
ATOM     16  H   UNL     1       5.131  -5.493   2.174  0.00  0.00    +0.000 HD
BRANCH  14  17
ATOM     17  C   UNL     1       3.819  -7.698   2.129  0.00  0.00    +0.000 A 
ATOM     18  C   UNL     1       3.389  -9.006   1.938  0.00  0.00    +0.000 A 
ATOM     19  S   UNL     1       3.115  -9.854   3.392  0.00  0.00    +0.000 S 
ATOM     20  C   UNL     1       3.503  -8.487   4.328  0.00  0.00    +0.000 A 
ATOM     21  N   UNL     1       3.460  -8.534   5.687  0.00  0.00    +0.000 NA
ATOM     22  C   UNL     1       3.743  -7.416   6.269  0.00  0.00    +0.000 A 
ATOM     23  N   UNL     1       4.067  -6.256   5.616  0.00  0.00    +0.000 N 
ATOM     24  C   UNL     1       4.171  -6.175   4.249  0.00  0.00    +0.000 A 
ATOM     25  O   UNL     1       4.542  -5.141   3.703  0.00  0.00    +0.000 OA
ATOM     26  C   UNL     1       3.846  -7.401   3.543  0.00  0.00    +0.000 A 
ATOM     27  H   UNL     1       4.292  -5.416   6.129  0.00  0.00    +0.000 HD
ENDBRANCH  14  17
ENDBRANCH  12  13
ENDBRANCH   4  12
BRANCH   6  28
ATOM     28  C   UNL     1       4.677  -0.271   1.892  0.00  0.00    +0.000 C 
BRANCH  28  29
ATOM     29  N   UNL     1       5.668   0.628   1.352  0.00  0.00    +0.000 N 
ATOM     30  C   UNL     1       7.005   0.545   1.667  0.00  0.00    +0.000 C 
ATOM     31  O   UNL     1       7.482  -0.334   2.382  0.00  0.00    +0.000 OA
ATOM     32  H   UNL     1       5.384   1.337   0.683  0.00  0.00    +0.000 HD
BRANCH  30  33
ATOM     33  C   UNL     1       7.856   1.706   1.131  0.00  0.00    +0.000 C 
ATOM     34  C   UNL     1       8.113   2.738   2.220  0.00  0.00    +0.000 C 
ATOM     35  C   UNL     1       8.394   3.981   1.417  0.00  0.00    +0.000 C 
ATOM     36  C   UNL     1       7.435   3.831   0.257  0.00  0.00    +0.000 C 
ATOM     37  O   UNL     1       7.241   2.424   0.046  0.00  0.00    +0.000 OA
ENDBRANCH  30  33
ENDBRANCH  28  29
ENDBRANCH   6  28
TORSDOF 7
