REMARK  Name = 
REMARK  6 active torsions:
REMARK  status: ('A' for Active; 'I' for Inactive)
REMARK    1  A    between atoms: C_1  and  C_2
REMARK    2  A    between atoms: C_2  and  N_3
REMARK    3  A    between atoms: C_2  and  C_16
REMARK    4  A    between atoms: C_4  and  C_6
REMARK    5  A    between atoms: C_19  and  O_20
REMARK    6  A    between atoms: O_20  and  C_21
REMARK                            x       y       z     vdW  Elec       q    Type
REMARK                         _______ _______ _______ _____ _____    ______ ____
ROOT
ATOM      1  C   UNL     1       2.978   1.542  -0.265  0.00  0.00    +0.000 C 
ATOM      2  C   UNL     1       2.505   0.102  -0.053  0.00  0.00    +0.000 C 
ENDROOT
BRANCH   2   3
ATOM      3  C   UNL     1       2.967  -0.521   1.253  0.00  0.00    +0.000 A 
ATOM      4  C   UNL     1       3.167  -1.910   1.305  0.00  0.00    +0.000 A 
ATOM      5  C   UNL     1       3.598  -2.527   2.480  0.00  0.00    +0.000 A 
ATOM      6  C   UNL     1       3.873  -1.763   3.614  0.00  0.00    +0.000 A 
ATOM      7  C   UNL     1       3.613  -0.393   3.598  0.00  0.00    +0.000 A 
ATOM      8  C   UNL     1       3.156   0.222   2.428  0.00  0.00    +0.000 A 
BRANCH   6   9
ATOM      9  O   UNL     1       4.322  -2.292   4.803  0.00  0.00    +0.000 OA
BRANCH   9  10
ATOM     10  C   UNL     1       5.259  -3.319   4.753  0.00  0.00    +0.000 A 
ATOM     11  C   UNL     1       5.333  -4.140   5.868  0.00  0.00    +0.000 A 
ATOM     12  C   UNL     1       6.229  -5.205   5.843  0.00  0.00    +0.000 A 
ATOM     13  C   UNL     1       7.019  -5.406   4.716  0.00  0.00    +0.000 A 
ATOM     14  C   UNL     1       6.900  -4.514   3.664  0.00  0.00    +0.000 A 
ATOM     15  N   UNL     1       6.050  -3.468   3.666  0.00  0.00    +0.000 NA
ENDBRANCH   9  10
ENDBRANCH   6   9
ENDBRANCH   2   3
BRANCH   2  16
ATOM     16  N   UNL     1       1.059   0.026  -0.125  0.00  0.00    +0.000 N 
ATOM     17  C   UNL     1       0.384  -0.058  -1.313  0.00  0.00    +0.000 C 
ATOM     18  O   UNL     1       0.959  -0.153  -2.393  0.00  0.00    +0.000 OA
ATOM     19  H   UNL     1       0.555   0.258   0.724  0.00  0.00    +0.000 HD
BRANCH  17  20
ATOM     20  C   UNL     1      -1.080  -0.085  -1.223  0.00  0.00    +0.000 A 
ATOM     21  C   UNL     1      -1.820  -0.705  -2.219  0.00  0.00    +0.000 A 
ATOM     22  S   UNL     1      -3.503  -0.653  -1.951  0.00  0.00    +0.000 S 
ATOM     23  C   UNL     1      -3.303   0.246  -0.520  0.00  0.00    +0.000 A 
ATOM     24  N   UNL     1      -4.379   0.665   0.198  0.00  0.00    +0.000 NA
ATOM     25  C   UNL     1      -4.082   1.371   1.236  0.00  0.00    +0.000 A 
ATOM     26  N   UNL     1      -2.807   1.687   1.630  0.00  0.00    +0.000 N 
ATOM     27  C   UNL     1      -1.688   1.238   0.970  0.00  0.00    +0.000 A 
ATOM     28  O   UNL     1      -0.562   1.462   1.403  0.00  0.00    +0.000 OA
ATOM     29  C   UNL     1      -1.968   0.472  -0.231  0.00  0.00    +0.000 A 
ATOM     30  H   UNL     1      -2.643   2.223   2.469  0.00  0.00    +0.000 HD
ENDBRANCH  17  20
ENDBRANCH   2  16
TORSDOF 5
