REMARK  Name = 
REMARK  5 active torsions:
REMARK  status: ('A' for Active; 'I' for Inactive)
REMARK    1  A    between atoms: C_2  and  C_4
REMARK    2  A    between atoms: C_7  and  N_8
REMARK    3  A    between atoms: N_8  and  C_9
REMARK    4  A    between atoms: C_9  and  C_10
REMARK    5  A    between atoms: C_14  and  C_15
REMARK                            x       y       z     vdW  Elec       q    Type
REMARK                         _______ _______ _______ _____ _____    ______ ____
ROOT
ATOM      1  C   UNL     1       5.880  -3.796   3.958  0.00  0.00    +0.000 C 
ENDROOT
BRANCH   1   2
ATOM      2  C   UNL     1       6.212  -5.075   4.679  0.00  0.00    +0.000 A 
ATOM      3  C   UNL     1       5.872  -6.305   4.134  0.00  0.00    +0.000 A 
ATOM      4  N   UNL     1       6.109  -7.486   4.742  0.00  0.00    +0.000 NA
ATOM      5  C   UNL     1       6.708  -7.440   5.958  0.00  0.00    +0.000 A 
ATOM      6  C   UNL     1       7.114  -6.275   6.616  0.00  0.00    +0.000 A 
ATOM      7  C   UNL     1       6.838  -5.076   5.936  0.00  0.00    +0.000 A 
BRANCH   6   8
ATOM      8  C   UNL     1       7.799  -6.305   7.931  0.00  0.00    +0.000 A 
ATOM      9  C   UNL     1       8.636  -7.380   8.303  0.00  0.00    +0.000 A 
ATOM     10  C   UNL     1       9.302  -7.403   9.535  0.00  0.00    +0.000 A 
ATOM     11  C   UNL     1       9.152  -6.342  10.416  0.00  0.00    +0.000 A 
ATOM     12  F   UNL     1       9.802  -6.358  11.586  0.00  0.00    +0.000 F 
ATOM     13  C   UNL     1       8.335  -5.274  10.079  0.00  0.00    +0.000 A 
ATOM     14  F   UNL     1       8.190  -4.244  10.923  0.00  0.00    +0.000 F 
ATOM     15  C   UNL     1       7.659  -5.254   8.859  0.00  0.00    +0.000 A 
ENDBRANCH   6   8
ENDBRANCH   1   2
BRANCH   1  16
ATOM     16  N   UNL     1       4.533  -3.373   4.327  0.00  0.00    +0.000 N 
ATOM     17  H   UNL     1       4.354  -3.481   5.325  0.00  0.00    +0.000 HD
BRANCH  16  21
ATOM     18  C   UNL     1       2.809   0.067   2.833  0.00  0.00    +0.000 A 
ATOM     19  N   UNL     1       3.782  -0.493   2.078  0.00  0.00    +0.000 NA
ATOM     20  C   UNL     1       4.341  -1.615   2.593  0.00  0.00    +0.000 A 
ATOM     21  C   UNL     1       4.015  -2.184   3.816  0.00  0.00    +0.000 A 
ATOM     22  C   UNL     1       2.970  -1.527   4.453  0.00  0.00    +0.000 A 
ATOM     23  N   UNL     1       2.365  -0.404   4.011  0.00  0.00    +0.000 NA
BRANCH  18  25
ATOM     24  N   UNL     1       2.645   1.770   1.082  0.00  0.00    +0.000 N 
ATOM     25  C   UNL     1       2.172   1.329   2.297  0.00  0.00    +0.000 C 
ATOM     26  O   UNL     1       1.290   1.954   2.878  0.00  0.00    +0.000 OA
ATOM     27  H   UNL     1       2.247   2.605   0.676  0.00  0.00    +0.000 HD
ATOM     28  H   UNL     1       3.365   1.252   0.595  0.00  0.00    +0.000 HD
ENDBRANCH  18  25
ENDBRANCH  16  21
ENDBRANCH   1  16
TORSDOF 5
