REMARK  Name = 
REMARK  8 active torsions:
REMARK  status: ('A' for Active; 'I' for Inactive)
REMARK    1  A    between atoms: C_1  and  C_2
REMARK    2  A    between atoms: C_5  and  N_6
REMARK    3  A    between atoms: C_9  and  C_10
REMARK    4  A    between atoms: C_10  and  C_11
REMARK    5  A    between atoms: C_10  and  C_12
REMARK    6  A    between atoms: C_10  and  C_13
REMARK    7  A    between atoms: C_13  and  N_14
REMARK    8  A    between atoms: N_14  and  C_15
REMARK                            x       y       z     vdW  Elec       q    Type
REMARK                         _______ _______ _______ _____ _____    ______ ____
ROOT
ATOM      1  N   UNL     1       2.354   1.431   2.011  0.00  0.00    +0.000 N 
ATOM      2  C   UNL     1       1.366   2.437   1.902  0.00  0.00    +0.000 A 
ATOM      3  C   UNL     1       0.249   2.198   1.099  0.00  0.00    +0.000 A 
ATOM      4  C   UNL     1      -0.692   3.219   0.851  0.00  0.00    +0.000 A 
ATOM      5  C   UNL     1      -0.492   4.424   1.529  0.00  0.00    +0.000 A 
ATOM      6  C   UNL     1       0.620   4.566   2.346  0.00  0.00    +0.000 A 
ATOM      7  N   UNL     1       1.557   3.611   2.526  0.00  0.00    +0.000 NA
ATOM      8  H   UNL     1       1.973   0.665   2.568  0.00  0.00    +0.000 HD
ENDROOT
BRANCH   1  13
ATOM      9  C   UNL     1       4.474  -0.711   1.775  0.00  0.00    +0.000 C 
ATOM     10  C   UNL     1       4.704   0.611   2.476  0.00  0.00    +0.000 C 
ATOM     11  O   UNL     1       4.478   0.494   3.915  0.00  0.00    +0.000 OA
ATOM     12  C   UNL     1       3.920   1.842   3.923  0.00  0.00    +0.000 C 
ATOM     13  C   UNL     1       3.700   1.785   2.404  0.00  0.00    +0.000 C 
ENDBRANCH   1  13
BRANCH   4  14
ATOM     14  C   UNL     1      -1.837   3.006  -0.159  0.00  0.00    +0.000 C 
ATOM     15  C   UNL     1      -1.245   2.609  -1.534  0.00  0.00    +0.000 C 
ATOM     16  C   UNL     1      -2.727   1.839   0.336  0.00  0.00    +0.000 C 
BRANCH  14  17
ATOM     17  C   UNL     1      -2.803   4.227  -0.355  0.00  0.00    +0.000 C 
BRANCH  17  18
ATOM     18  N   UNL     1      -2.150   5.419  -0.917  0.00  0.00    +0.000 N 
ATOM     19  H   UNL     1      -1.567   5.213  -1.728  0.00  0.00    +0.000 HD
BRANCH  18  20
ATOM     20  C   UNL     1      -2.910   6.576  -1.106  0.00  0.00    +0.000 A 
ATOM     21  C   UNL     1      -4.041   6.931  -0.385  0.00  0.00    +0.000 A 
ATOM     22  N   UNL     1      -4.732   8.089  -0.534  0.00  0.00    +0.000 NA
ATOM     23  C   UNL     1      -4.237   8.941  -1.440  0.00  0.00    +0.000 A 
ATOM     24  N   UNL     1      -3.133   8.753  -2.174  0.00  0.00    +0.000 NA
ATOM     25  C   UNL     1      -2.495   7.577  -1.972  0.00  0.00    +0.000 A 
ENDBRANCH  18  20
ENDBRANCH  17  18
ENDBRANCH  14  17
ENDBRANCH   4  14
TORSDOF 5
