REMARK  Name = 
REMARK  6 active torsions:
REMARK  status: ('A' for Active; 'I' for Inactive)
REMARK    1  A    between atoms: C_1  and  O_2
REMARK    2  A    between atoms: O_2  and  C_3
REMARK    3  A    between atoms: C_5  and  C_6
REMARK    4  A    between atoms: C_6  and  N_7
REMARK    5  A    between atoms: C_11  and  C_12
REMARK    6  A    between atoms: C_21  and  C_22
REMARK                            x       y       z     vdW  Elec       q    Type
REMARK                         _______ _______ _______ _____ _____    ______ ____
ROOT
ATOM      1  C   UNL     1       5.828   3.182  -0.857  0.00  0.00    +0.000 C 
ATOM      2  C   UNL     1       7.297   3.320  -0.504  0.00  0.00    +0.000 C 
ATOM      3  C   UNL     1       6.484   4.556  -0.695  0.00  0.00    +0.000 C 
ENDROOT
BRANCH   1   4
ATOM      4  N   UNL     1       5.385   2.872  -2.218  0.00  0.00    +0.000 N 
ATOM      5  C   UNL     1       5.598   1.706  -2.946  0.00  0.00    +0.000 A 
ATOM      6  C   UNL     1       5.867   0.445  -2.411  0.00  0.00    +0.000 A 
ATOM      7  N   UNL     1       6.021  -0.691  -3.154  0.00  0.00    +0.000 NA
ATOM      8  C   UNL     1       5.887  -0.508  -4.495  0.00  0.00    +0.000 A 
ATOM      9  C   UNL     1       5.623   0.733  -5.044  0.00  0.00    +0.000 A 
ATOM     10  N   UNL     1       5.476   1.852  -4.285  0.00  0.00    +0.000 NA
ATOM     11  H   UNL     1       5.268   3.634  -2.882  0.00  0.00    +0.000 HD
BRANCH   8  12
ATOM     12  C   UNL     1       6.032  -1.689  -5.390  0.00  0.00    +0.000 C 
ATOM     13  N   UNL     1       6.291  -2.885  -4.776  0.00  0.00    +0.000 N 
ATOM     14  O   UNL     1       5.931  -1.602  -6.605  0.00  0.00    +0.000 OA
ATOM     15  H   UNL     1       6.365  -2.938  -3.767  0.00  0.00    +0.000 HD
ATOM     16  H   UNL     1       6.399  -3.715  -5.340  0.00  0.00    +0.000 HD
ENDBRANCH   8  12
ENDBRANCH   1   4
BRANCH   1  19
ATOM     17  C   UNL     1       2.917   3.272   1.691  0.00  0.00    +0.000 A 
ATOM     18  C   UNL     1       3.776   3.588   0.622  0.00  0.00    +0.000 A 
ATOM     19  C   UNL     1       4.857   2.768   0.250  0.00  0.00    +0.000 A 
ATOM     20  C   UNL     1       5.023   1.575   0.967  0.00  0.00    +0.000 A 
ATOM     21  C   UNL     1       4.143   1.213   1.988  0.00  0.00    +0.000 A 
ATOM     22  C   UNL     1       3.091   2.056   2.363  0.00  0.00    +0.000 A 
BRANCH  17  24
ATOM     23  C   UNL     1       1.602   4.488   3.263  0.00  0.00    +0.000 C 
ATOM     24  O   UNL     1       1.946   4.211   1.908  0.00  0.00    +0.000 OA
ENDBRANCH  17  24
BRANCH  22  25
ATOM     25  C   UNL     1       2.238   1.596   3.413  0.00  0.00    +0.000 C 
ATOM     26  N   UNL     1       1.581   1.208   4.289  0.00  0.00    +0.000 NA
ENDBRANCH  22  25
ENDBRANCH   1  19
TORSDOF 5
