REMARK  Name = 
REMARK  7 active torsions:
REMARK  status: ('A' for Active; 'I' for Inactive)
REMARK    1  A    between atoms: N_1  and  C_2
REMARK    2  A    between atoms: C_2  and  N_3
REMARK    3  A    between atoms: C_2  and  C_11
REMARK    4  A    between atoms: C_4  and  C_6
REMARK    5  A    between atoms: C_14  and  C_15
REMARK    6  A    between atoms: C_15  and  N_16
REMARK    7  A    between atoms: C_17  and  C_19
REMARK                            x       y       z     vdW  Elec       q    Type
REMARK                         _______ _______ _______ _____ _____    ______ ____
ROOT
ATOM      1  C   UNL     1       2.988  -1.174  -0.838  0.00  0.00    +0.000 A 
ATOM      2  C   UNL     1       3.900  -0.858  -1.859  0.00  0.00    +0.000 A 
ATOM      3  C   UNL     1       4.309  -1.827  -2.786  0.00  0.00    +0.000 A 
ATOM      4  C   UNL     1       3.805  -3.132  -2.720  0.00  0.00    +0.000 A 
ATOM      5  C   UNL     1       2.940  -3.462  -1.668  0.00  0.00    +0.000 A 
ATOM      6  C   UNL     1       2.533  -2.496  -0.743  0.00  0.00    +0.000 A 
ENDROOT
BRANCH   1   7
ATOM      7  C   UNL     1       2.503  -0.087   0.101  0.00  0.00    +0.000 C 
BRANCH   7   8
ATOM      8  N   UNL     1       2.774  -0.375   1.471  0.00  0.00    +0.000 N 
ATOM      9  C   UNL     1       3.953   0.013   2.061  0.00  0.00    +0.000 C 
ATOM     10  O   UNL     1       4.827   0.640   1.472  0.00  0.00    +0.000 OA
ATOM     11  H   UNL     1       2.227  -1.086   1.920  0.00  0.00    +0.000 HD
BRANCH   9  12
ATOM     12  C   UNL     1       4.081  -0.350   3.449  0.00  0.00    +0.000 A 
ATOM     13  C   UNL     1       3.236  -0.968   4.351  0.00  0.00    +0.000 A 
ATOM     14  C   UNL     1       3.940  -0.979   5.569  0.00  0.00    +0.000 A 
ATOM     15  N   UNL     1       5.147  -0.424   5.461  0.00  0.00    +0.000 NA
ATOM     16  N   UNL     1       5.209  -0.051   4.170  0.00  0.00    +0.000 N 
ATOM     17  H   UNL     1       6.047   0.413   3.830  0.00  0.00    +0.000 HD
ENDBRANCH   9  12
ENDBRANCH   7   8
BRANCH   7  18
ATOM     18  N   UNL     1       1.063   0.062   0.051  0.00  0.00    +0.000 NA
ATOM     19  H   UNL     1       0.800   0.806   0.690  0.00  0.00    +0.000 HD
ATOM     20  H   UNL     1       0.613  -0.786   0.366  0.00  0.00    +0.000 HD
ENDBRANCH   7  18
ENDBRANCH   1   7
BRANCH   4  21
ATOM     21  C   UNL     1       4.165  -4.178  -3.747  0.00  0.00    +0.000 C 
BRANCH  21  22
ATOM     22  N   UNL     1       5.329  -4.930  -3.362  0.00  0.00    +0.000 N 
ATOM     23  C   UNL     1       5.834  -5.930  -4.155  0.00  0.00    +0.000 C 
ATOM     24  O   UNL     1       5.345  -6.222  -5.244  0.00  0.00    +0.000 OA
ATOM     25  H   UNL     1       5.548  -4.943  -2.372  0.00  0.00    +0.000 HD
BRANCH  23  26
ATOM     26  C   UNL     1       7.044  -6.593  -3.653  0.00  0.00    +0.000 A 
ATOM     27  C   UNL     1       7.950  -7.161  -4.532  0.00  0.00    +0.000 A 
ATOM     28  S   UNL     1       9.329  -7.813  -3.763  0.00  0.00    +0.000 S 
ATOM     29  C   UNL     1       8.728  -7.410  -2.225  0.00  0.00    +0.000 A 
ATOM     30  N   UNL     1       9.424  -7.714  -1.097  0.00  0.00    +0.000 NA
ATOM     31  C   UNL     1       8.835  -7.374   0.002  0.00  0.00    +0.000 A 
ATOM     32  N   UNL     1       7.615  -6.750   0.076  0.00  0.00    +0.000 N 
ATOM     33  C   UNL     1       6.892  -6.398  -1.035  0.00  0.00    +0.000 A 
ATOM     34  O   UNL     1       5.826  -5.802  -0.935  0.00  0.00    +0.000 OA
ATOM     35  C   UNL     1       7.505  -6.769  -2.297  0.00  0.00    +0.000 A 
ATOM     36  H   UNL     1       7.214  -6.497   0.965  0.00  0.00    +0.000 HD
ENDBRANCH  23  26
ENDBRANCH  21  22
ENDBRANCH   4  21
TORSDOF 7
