REMARK  Name = 
REMARK  6 active torsions:
REMARK  status: ('A' for Active; 'I' for Inactive)
REMARK    1  A    between atoms: C_2  and  C_25
REMARK    2  A    between atoms: N_3  and  C_4
REMARK    3  A    between atoms: C_4  and  C_5
REMARK    4  A    between atoms: C_8  and  C_9
REMARK    5  A    between atoms: C_9  and  N_10
REMARK    6  A    between atoms: C_11  and  C_13
REMARK                            x       y       z     vdW  Elec       q    Type
REMARK                         _______ _______ _______ _____ _____    ______ ____
ROOT
ATOM      1  C   UNL     1       3.162   3.405   1.123  0.00  0.00    +0.000 A 
ATOM      2  C   UNL     1       2.773   4.722   0.845  0.00  0.00    +0.000 A 
ATOM      3  C   UNL     1       3.596   5.799   1.193  0.00  0.00    +0.000 A 
ATOM      4  C   UNL     1       4.836   5.581   1.807  0.00  0.00    +0.000 A 
ATOM      5  C   UNL     1       5.223   4.264   2.089  0.00  0.00    +0.000 A 
ATOM      6  C   UNL     1       4.401   3.187   1.740  0.00  0.00    +0.000 A 
ENDROOT
BRANCH   1   7
ATOM      7  C   UNL     1       2.252   2.250   0.799  0.00  0.00    +0.000 C 
BRANCH   7  10
ATOM      8  O   UNL     1       0.739   0.192  -0.308  0.00  0.00    +0.000 OA
ATOM      9  C   UNL     1       1.603   0.724  -0.998  0.00  0.00    +0.000 C 
ATOM     10  N   UNL     1       2.403   1.753  -0.545  0.00  0.00    +0.000 N 
ATOM     11  H   UNL     1       3.106   2.128  -1.177  0.00  0.00    +0.000 HD
BRANCH   9  12
ATOM     12  C   UNL     1       1.847   0.274  -2.408  0.00  0.00    +0.000 A 
ATOM     13  C   UNL     1       1.053  -0.734  -2.947  0.00  0.00    +0.000 A 
ATOM     14  C   UNL     1       1.293  -1.137  -4.256  0.00  0.00    +0.000 A 
ATOM     15  C   UNL     1       2.312  -0.525  -4.979  0.00  0.00    +0.000 A 
ATOM     16  C   UNL     1       3.052   0.473  -4.360  0.00  0.00    +0.000 A 
ATOM     17  N   UNL     1       2.850   0.895  -3.090  0.00  0.00    +0.000 NA
ENDBRANCH   9  12
ENDBRANCH   7  10
ENDBRANCH   1   7
BRANCH   4  18
ATOM     18  C   UNL     1       5.731   6.734   2.180  0.00  0.00    +0.000 C 
BRANCH  18  19
ATOM     19  N   UNL     1       5.478   7.203   3.520  0.00  0.00    +0.000 N 
ATOM     20  C   UNL     1       6.143   8.295   4.019  0.00  0.00    +0.000 C 
ATOM     21  O   UNL     1       6.938   8.937   3.336  0.00  0.00    +0.000 OA
ATOM     22  H   UNL     1       5.009   6.566   4.157  0.00  0.00    +0.000 HD
BRANCH  20  23
ATOM     23  C   UNL     1       5.818   8.703   5.391  0.00  0.00    +0.000 A 
ATOM     24  C   UNL     1       6.049  10.013   5.791  0.00  0.00    +0.000 A 
ATOM     25  S   UNL     1       5.573  10.336   7.396  0.00  0.00    +0.000 S 
ATOM     26  C   UNL     1       5.088   8.722   7.633  0.00  0.00    +0.000 A 
ATOM     27  N   UNL     1       4.598   8.310   8.832  0.00  0.00    +0.000 NA
ATOM     28  C   UNL     1       4.305   7.053   8.885  0.00  0.00    +0.000 A 
ATOM     29  N   UNL     1       4.452   6.174   7.843  0.00  0.00    +0.000 N 
ATOM     30  C   UNL     1       4.910   6.554   6.605  0.00  0.00    +0.000 A 
ATOM     31  O   UNL     1       4.986   5.750   5.678  0.00  0.00    +0.000 OA
ATOM     32  C   UNL     1       5.270   7.953   6.498  0.00  0.00    +0.000 A 
ATOM     33  H   UNL     1       4.196   5.204   7.946  0.00  0.00    +0.000 HD
ENDBRANCH  20  23
ENDBRANCH  18  19
ENDBRANCH   4  18
TORSDOF 6
