REMARK  Name = 
REMARK  7 active torsions:
REMARK  status: ('A' for Active; 'I' for Inactive)
REMARK    1  A    between atoms: C_1  and  C_2
REMARK    2  A    between atoms: C_4  and  C_5
REMARK    3  A    between atoms: C_5  and  N_6
REMARK    4  A    between atoms: C_7  and  C_9
REMARK    5  A    between atoms: C_21  and  C_22
REMARK    6  A    between atoms: C_22  and  N_23
REMARK    7  A    between atoms: C_26  and  O_27
REMARK                            x       y       z     vdW  Elec       q    Type
REMARK                         _______ _______ _______ _____ _____    ______ ____
ROOT
ATOM      1  C   UNL     1      -2.223   2.680   0.068  0.00  0.00    +0.000 C 
ENDROOT
BRANCH   1   5
ATOM      2  C   UNL     1       2.317   0.653   0.029  0.00  0.00    +0.000 C 
ATOM      3  C   UNL     1       0.835   0.390  -0.040  0.00  0.00    +0.000 A 
ATOM      4  C   UNL     1      -0.002   1.523  -0.020  0.00  0.00    +0.000 A 
ATOM      5  C   UNL     1      -1.396   1.423  -0.010  0.00  0.00    +0.000 A 
ATOM      6  C   UNL     1      -1.966   0.151  -0.012  0.00  0.00    +0.000 A 
ATOM      7  C   UNL     1      -1.150  -0.990  -0.041  0.00  0.00    +0.000 A 
ATOM      8  C   UNL     1       0.261  -0.901  -0.064  0.00  0.00    +0.000 A 
BRANCH   8   9
ATOM      9  C   UNL     1       1.075  -2.193   0.008  0.00  0.00    +0.000 C 
BRANCH   9  10
ATOM     10  N   UNL     1       1.373  -2.909  -1.235  0.00  0.00    +0.000 NA
ATOM     11  C   UNL     1       2.229  -2.245  -2.197  0.00  0.00    +0.000 C 
ATOM     12  C   UNL     1       1.743  -2.618  -3.588  0.00  0.00    +0.000 C 
ATOM     13  C   UNL     1       0.633  -3.632  -3.393  0.00  0.00    +0.000 C 
ATOM     14  C   UNL     1       0.278  -3.598  -1.904  0.00  0.00    +0.000 C 
BRANCH  13  15
ATOM     15  O   UNL     1       1.076  -4.922  -3.807  0.00  0.00    +0.000 OA
ATOM     16  H   UNL     1       1.850  -5.150  -3.263  0.00  0.00    +0.000 HD
ENDBRANCH  13  15
ENDBRANCH   9  10
ENDBRANCH   8   9
ENDBRANCH   1   5
BRANCH   1  17
ATOM     17  N   UNL     1      -2.408   3.106   1.435  0.00  0.00    +0.000 N 
ATOM     18  C   UNL     1      -3.123   4.240   1.728  0.00  0.00    +0.000 C 
ATOM     19  O   UNL     1      -3.651   4.915   0.850  0.00  0.00    +0.000 OA
ATOM     20  H   UNL     1      -1.790   2.704   2.143  0.00  0.00    +0.000 HD
BRANCH  18  21
ATOM     21  C   UNL     1      -3.282   4.581   3.147  0.00  0.00    +0.000 A 
ATOM     22  C   UNL     1      -4.344   5.386   3.542  0.00  0.00    +0.000 A 
ATOM     23  S   UNL     1      -4.419   5.651   5.224  0.00  0.00    +0.000 S 
ATOM     24  C   UNL     1      -3.002   4.746   5.484  0.00  0.00    +0.000 A 
ATOM     25  N   UNL     1      -2.489   4.597   6.735  0.00  0.00    +0.000 NA
ATOM     26  C   UNL     1      -1.397   3.911   6.786  0.00  0.00    +0.000 A 
ATOM     27  N   UNL     1      -0.774   3.357   5.700  0.00  0.00    +0.000 N 
ATOM     28  C   UNL     1      -1.266   3.457   4.419  0.00  0.00    +0.000 A 
ATOM     29  O   UNL     1      -0.698   2.919   3.475  0.00  0.00    +0.000 OA
ATOM     30  C   UNL     1      -2.490   4.230   4.305  0.00  0.00    +0.000 A 
ATOM     31  H   UNL     1       0.077   2.823   5.807  0.00  0.00    +0.000 HD
ENDBRANCH  18  21
ENDBRANCH   1  17
TORSDOF 6
