REMARK  Name = 
REMARK  9 active torsions:
REMARK  status: ('A' for Active; 'I' for Inactive)
REMARK    1  A    between atoms: C_1  and  C_2
REMARK    2  A    between atoms: C_2  and  N_3
REMARK    3  A    between atoms: C_2  and  C_20
REMARK    4  A    between atoms: N_3  and  C_4
REMARK    5  A    between atoms: C_4  and  C_5
REMARK    6  A    between atoms: C_8  and  C_9
REMARK    7  A    between atoms: C_9  and  O_10
REMARK    8  A    between atoms: O_10  and  C_11
REMARK    9  A    between atoms: C_11  and  C_12
REMARK                            x       y       z     vdW  Elec       q    Type
REMARK                         _______ _______ _______ _____ _____    ______ ____
ROOT
ATOM      1  C   UNL     1       2.597   1.346  -2.114  0.00  0.00    +0.000 C 
ENDROOT
BRANCH   1   2
ATOM      2  C   UNL     1       3.059   2.723  -2.527  0.00  0.00    +0.000 A 
ATOM      3  C   UNL     1       2.291   3.847  -2.192  0.00  0.00    +0.000 A 
ATOM      4  C   UNL     1       2.673   5.114  -2.612  0.00  0.00    +0.000 A 
ATOM      5  C   UNL     1       3.846   5.280  -3.356  0.00  0.00    +0.000 A 
ATOM      6  C   UNL     1       4.654   4.170  -3.633  0.00  0.00    +0.000 A 
ATOM      7  C   UNL     1       4.251   2.897  -3.240  0.00  0.00    +0.000 A 
BRANCH   5   8
ATOM      8  C   UNL     1       4.266   6.642  -3.841  0.00  0.00    +0.000 C 
BRANCH   8   9
ATOM      9  O   UNL     1       4.422   7.566  -2.768  0.00  0.00    +0.000 OA
BRANCH   9  10
ATOM     10  C   UNL     1       5.429   7.145  -1.848  0.00  0.00    +0.000 C 
BRANCH  10  11
ATOM     11  C   UNL     1       5.553   8.140  -0.728  0.00  0.00    +0.000 A 
ATOM     12  C   UNL     1       5.941   7.704   0.541  0.00  0.00    +0.000 A 
ATOM     13  C   UNL     1       6.066   8.640   1.555  0.00  0.00    +0.000 A 
ATOM     14  N   UNL     1       5.842   9.960   1.392  0.00  0.00    +0.000 NA
ATOM     15  C   UNL     1       5.480  10.362   0.155  0.00  0.00    +0.000 A 
ATOM     16  C   UNL     1       5.334   9.505  -0.923  0.00  0.00    +0.000 A 
ENDBRANCH  10  11
ENDBRANCH   9  10
ENDBRANCH   8   9
ENDBRANCH   5   8
ENDBRANCH   1   2
BRANCH   1  17
ATOM     17  N   UNL     1       1.293   1.058  -2.711  0.00  0.00    +0.000 NA
ATOM     18  H   UNL     1       0.644   1.813  -2.484  0.00  0.00    +0.000 HD
BRANCH  17  20
ATOM     19  C   UNL     1       1.569  -1.406  -2.781  0.00  0.00    +0.000 C 
ATOM     20  C   UNL     1       0.707  -0.224  -2.307  0.00  0.00    +0.000 C 
BRANCH  20  21
ATOM     21  C   UNL     1      -0.667  -0.291  -2.956  0.00  0.00    +0.000 A 
ATOM     22  C   UNL     1      -0.832  -0.300  -4.337  0.00  0.00    +0.000 A 
ATOM     23  S   UNL     1      -2.458  -0.330  -4.829  0.00  0.00    +0.000 S 
ATOM     24  C   UNL     1      -3.000  -0.370  -3.216  0.00  0.00    +0.000 A 
ATOM     25  N   UNL     1      -4.336  -0.408  -2.950  0.00  0.00    +0.000 NA
ATOM     26  C   UNL     1      -4.625  -0.487  -1.696  0.00  0.00    +0.000 A 
ATOM     27  N   UNL     1      -3.702  -0.525  -0.687  0.00  0.00    +0.000 N 
ATOM     28  C   UNL     1      -2.349  -0.387  -0.905  0.00  0.00    +0.000 A 
ATOM     29  O   UNL     1      -1.571  -0.271   0.050  0.00  0.00    +0.000 OA
ATOM     30  C   UNL     1      -1.961  -0.355  -2.306  0.00  0.00    +0.000 A 
ATOM     31  H   UNL     1      -3.993  -0.561   0.281  0.00  0.00    +0.000 HD
ENDBRANCH  20  21
ENDBRANCH  17  20
ENDBRANCH   1  17
TORSDOF 8
