REMARK  Name = 
REMARK  10 active torsions:
REMARK  status: ('A' for Active; 'I' for Inactive)
REMARK    1  A    between atoms: C_1  and  O_2
REMARK    2  A    between atoms: O_2  and  C_3
REMARK    3  A    between atoms: C_10  and  C_11
REMARK    4  A    between atoms: N_13  and  C_14
REMARK    5  A    between atoms: C_14  and  C_15
REMARK    6  A    between atoms: C_18  and  N_19
REMARK    7  A    between atoms: N_19  and  C_20
REMARK    8  A    between atoms: C_20  and  C_21
REMARK    9  A    between atoms: C_20  and  C_22
REMARK   10  A    between atoms: C_20  and  C_23
REMARK                            x       y       z     vdW  Elec       q    Type
REMARK                         _______ _______ _______ _____ _____    ______ ____
ROOT
ATOM      1  C   UNL     1       2.410  -2.427   2.427  0.00  0.00    +0.000 A 
ATOM      2  C   UNL     1       1.526  -3.333   3.017  0.00  0.00    +0.000 A 
ATOM      3  C   UNL     1       0.561  -2.898   3.933  0.00  0.00    +0.000 A 
ATOM      4  C   UNL     1       0.426  -1.553   4.280  0.00  0.00    +0.000 A 
ATOM      5  C   UNL     1       1.291  -0.647   3.650  0.00  0.00    +0.000 A 
ATOM      6  C   UNL     1       2.272  -1.072   2.740  0.00  0.00    +0.000 A 
ENDROOT
BRANCH   4   7
ATOM      7  N   UNL     1      -0.434  -1.073   5.250  0.00  0.00    +0.000 N 
ATOM      8  H   UNL     1      -0.947  -0.238   4.983  0.00  0.00    +0.000 HD
BRANCH   7   9
ATOM      9  C   UNL     1      -0.990  -1.786   6.424  0.00  0.00    +0.000 C 
ATOM     10  C   UNL     1      -2.208  -2.624   5.992  0.00  0.00    +0.000 C 
ATOM     11  C   UNL     1       0.085  -2.640   7.120  0.00  0.00    +0.000 C 
BRANCH   9  12
ATOM     12  C   UNL     1      -1.458  -0.753   7.488  0.00  0.00    +0.000 A 
ATOM     13  C   UNL     1      -0.812   0.477   7.633  0.00  0.00    +0.000 A 
ATOM     14  C   UNL     1      -1.246   1.369   8.613  0.00  0.00    +0.000 A 
ATOM     15  C   UNL     1      -2.296   1.010   9.444  0.00  0.00    +0.000 A 
ATOM     16  C   UNL     1      -2.871  -0.234   9.265  0.00  0.00    +0.000 A 
ATOM     17  N   UNL     1      -2.477  -1.113   8.319  0.00  0.00    +0.000 NA
ENDBRANCH   9  12
ENDBRANCH   7   9
ENDBRANCH   4   7
BRANCH   1  18
ATOM     18  C   UNL     1       3.437  -2.910   1.435  0.00  0.00    +0.000 C 
BRANCH  18  21
ATOM     19  C   UNL     1       3.580  -3.379  -0.981  0.00  0.00    +0.000 C 
ATOM     20  O   UNL     1       4.725  -3.807  -0.874  0.00  0.00    +0.000 OA
ATOM     21  N   UNL     1       2.882  -2.929   0.107  0.00  0.00    +0.000 N 
ATOM     22  H   UNL     1       1.936  -2.596  -0.003  0.00  0.00    +0.000 HD
BRANCH  19  30
ATOM     23  C   UNL     1       0.426  -2.400  -1.966  0.00  0.00    +0.000 A 
ATOM     24  N   UNL     1      -0.688  -2.016  -2.621  0.00  0.00    +0.000 NA
ATOM     25  C   UNL     1      -0.696  -2.112  -3.953  0.00  0.00    +0.000 A 
ATOM     26  N   UNL     1       0.282  -2.568  -4.730  0.00  0.00    +0.000 NA
ATOM     27  C   UNL     1       1.376  -2.931  -4.039  0.00  0.00    +0.000 A 
ATOM     28  S   UNL     1       2.722  -3.554  -4.866  0.00  0.00    +0.000 S 
ATOM     29  C   UNL     1       3.595  -3.726  -3.419  0.00  0.00    +0.000 A 
ATOM     30  C   UNL     1       2.899  -3.312  -2.289  0.00  0.00    +0.000 A 
ATOM     31  C   UNL     1       1.557  -2.866  -2.661  0.00  0.00    +0.000 A 
BRANCH  23  33
ATOM     32  C   UNL     1      -0.858  -2.328  -0.008  0.00  0.00    +0.000 C 
ATOM     33  O   UNL     1       0.441  -2.286  -0.593  0.00  0.00    +0.000 OA
ENDBRANCH  23  33
ENDBRANCH  19  30
ENDBRANCH  18  21
ENDBRANCH   1  18
TORSDOF 7
