REMARK  Name = 
REMARK  9 active torsions:
REMARK  status: ('A' for Active; 'I' for Inactive)
REMARK    1  A    between atoms: C_1  and  C_2
REMARK    2  A    between atoms: C_2  and  C_3
REMARK    3  A    between atoms: C_3  and  N_4
REMARK    4  A    between atoms: C_3  and  C_26
REMARK    5  A    between atoms: N_4  and  C_5
REMARK    6  A    between atoms: C_5  and  C_6
REMARK    7  A    between atoms: C_9  and  C_10
REMARK    8  A    between atoms: C_10  and  N_11
REMARK    9  A    between atoms: C_12  and  C_14
REMARK                            x       y       z     vdW  Elec       q    Type
REMARK                         _______ _______ _______ _____ _____    ______ ____
ROOT
ATOM      1  C   UNL     1       0.508   3.202  -2.285  0.00  0.00    +0.000 A 
ATOM      2  C   UNL     1      -0.801   3.392  -2.750  0.00  0.00    +0.000 A 
ATOM      3  C   UNL     1      -1.280   4.676  -3.030  0.00  0.00    +0.000 A 
ATOM      4  C   UNL     1      -0.462   5.798  -2.846  0.00  0.00    +0.000 A 
ATOM      5  C   UNL     1       0.833   5.614  -2.346  0.00  0.00    +0.000 A 
ATOM      6  C   UNL     1       1.314   4.331  -2.076  0.00  0.00    +0.000 A 
ENDROOT
BRANCH   1   7
ATOM      7  C   UNL     1       1.031   1.827  -1.920  0.00  0.00    +0.000 C 
BRANCH   7   8
ATOM      8  N   UNL     1       0.926   0.870  -3.026  0.00  0.00    +0.000 NA
ATOM      9  H   UNL     1      -0.045   0.806  -3.317  0.00  0.00    +0.000 HD
BRANCH   8  10
ATOM     10  C   UNL     1       1.407  -0.482  -2.667  0.00  0.00    +0.000 C 
BRANCH  10  11
ATOM     11  C   UNL     1       2.892  -0.506  -2.289  0.00  0.00    +0.000 A 
ATOM     12  C   UNL     1       3.872  -0.510  -3.280  0.00  0.00    +0.000 A 
ATOM     13  C   UNL     1       5.213  -0.487  -2.900  0.00  0.00    +0.000 A 
ATOM     14  C   UNL     1       5.542  -0.444  -1.550  0.00  0.00    +0.000 A 
ATOM     15  C   UNL     1       4.514  -0.425  -0.629  0.00  0.00    +0.000 A 
ATOM     16  N   UNL     1       3.207  -0.452  -0.966  0.00  0.00    +0.000 NA
ENDBRANCH  10  11
BRANCH  10  18
ATOM     17  C   UNL     1      -0.918  -1.328  -1.900  0.00  0.00    +0.000 C 
ATOM     18  C   UNL     1       0.567  -1.217  -1.592  0.00  0.00    +0.000 C 
ENDBRANCH  10  18
ENDBRANCH   8  10
ENDBRANCH   7   8
ENDBRANCH   1   7
BRANCH   4  19
ATOM     19  C   UNL     1      -0.976   7.184  -3.127  0.00  0.00    +0.000 C 
BRANCH  19  20
ATOM     20  N   UNL     1      -1.596   7.751  -1.958  0.00  0.00    +0.000 N 
ATOM     21  C   UNL     1      -2.212   8.974  -2.008  0.00  0.00    +0.000 C 
ATOM     22  O   UNL     1      -2.303   9.614  -3.053  0.00  0.00    +0.000 OA
ATOM     23  H   UNL     1      -1.341   7.352  -1.060  0.00  0.00    +0.000 HD
BRANCH  21  24
ATOM     24  C   UNL     1      -2.816   9.457  -0.761  0.00  0.00    +0.000 A 
ATOM     25  C   UNL     1      -3.834  10.400  -0.815  0.00  0.00    +0.000 A 
ATOM     26  S   UNL     1      -4.464  10.816   0.714  0.00  0.00    +0.000 S 
ATOM     27  C   UNL     1      -3.363   9.789   1.507  0.00  0.00    +0.000 A 
ATOM     28  N   UNL     1      -3.352   9.690   2.861  0.00  0.00    +0.000 NA
ATOM     29  C   UNL     1      -2.451   8.895   3.334  0.00  0.00    +0.000 A 
ATOM     30  N   UNL     1      -1.558   8.189   2.568  0.00  0.00    +0.000 N 
ATOM     31  C   UNL     1      -1.547   8.237   1.195  0.00  0.00    +0.000 A 
ATOM     32  O   UNL     1      -0.759   7.565   0.541  0.00  0.00    +0.000 OA
ATOM     33  C   UNL     1      -2.539   9.124   0.619  0.00  0.00    +0.000 A 
ATOM     34  H   UNL     1      -0.878   7.578   2.999  0.00  0.00    +0.000 HD
ENDBRANCH  21  24
ENDBRANCH  19  20
ENDBRANCH   4  19
TORSDOF 8
