REMARK  Name = 
REMARK  10 active torsions:
REMARK  status: ('A' for Active; 'I' for Inactive)
REMARK    1  A    between atoms: C_1  and  C_2
REMARK    2  A    between atoms: C_2  and  C_3
REMARK    3  A    between atoms: C_2  and  C_4
REMARK    4  A    between atoms: C_2  and  C_5
REMARK    5  A    between atoms: C_7  and  O_8
REMARK    6  A    between atoms: O_8  and  C_9
REMARK    7  A    between atoms: C_9  and  C_10
REMARK    8  A    between atoms: C_13  and  C_14
REMARK    9  A    between atoms: C_14  and  N_15
REMARK   10  A    between atoms: C_19  and  C_20
REMARK                            x       y       z     vdW  Elec       q    Type
REMARK                         _______ _______ _______ _____ _____    ______ ____
ROOT
ATOM      1  C   UNL     1       2.926   1.081  -0.987  0.00  0.00    +0.000 A 
ATOM      2  C   UNL     1       2.373   2.366  -0.846  0.00  0.00    +0.000 A 
ATOM      3  C   UNL     1       2.769   3.444  -1.643  0.00  0.00    +0.000 A 
ATOM      4  C   UNL     1       3.741   3.249  -2.621  0.00  0.00    +0.000 A 
ATOM      5  C   UNL     1       4.309   1.983  -2.796  0.00  0.00    +0.000 A 
ATOM      6  C   UNL     1       3.903   0.910  -1.981  0.00  0.00    +0.000 A 
ENDROOT
BRANCH   5   7
ATOM      7  C   UNL     1       5.381   1.745  -3.799  0.00  0.00    +0.000 C 
ATOM      8  N   UNL     1       5.451   2.595  -4.868  0.00  0.00    +0.000 N 
ATOM      9  O   UNL     1       6.164   0.810  -3.692  0.00  0.00    +0.000 OA
ATOM     10  H   UNL     1       4.715   3.243  -5.110  0.00  0.00    +0.000 HD
ATOM     11  H   UNL     1       6.143   2.380  -5.575  0.00  0.00    +0.000 HD
ENDBRANCH   5   7
BRANCH   1  13
ATOM     12  C   UNL     1       0.927  -0.214  -0.143  0.00  0.00    +0.000 C 
ATOM     13  C   UNL     1       2.460  -0.036  -0.039  0.00  0.00    +0.000 C 
ATOM     14  C   UNL     1       2.823   0.353   1.412  0.00  0.00    +0.000 C 
ATOM     15  C   UNL     1       3.100  -1.409  -0.325  0.00  0.00    +0.000 C 
ENDBRANCH   1  13
BRANCH   3  16
ATOM     16  O   UNL     1       2.279   4.721  -1.536  0.00  0.00    +0.000 OA
BRANCH  16  17
ATOM     17  C   UNL     1       1.327   4.925  -0.486  0.00  0.00    +0.000 C 
BRANCH  17  18
ATOM     18  C   UNL     1       0.845   6.352  -0.436  0.00  0.00    +0.000 A 
ATOM     19  C   UNL     1      -0.457   6.617   0.014  0.00  0.00    +0.000 A 
ATOM     20  C   UNL     1      -0.921   7.928   0.118  0.00  0.00    +0.000 A 
ATOM     21  C   UNL     1      -0.088   9.003  -0.215  0.00  0.00    +0.000 A 
ATOM     22  C   UNL     1       1.222   8.737  -0.640  0.00  0.00    +0.000 A 
ATOM     23  C   UNL     1       1.687   7.425  -0.743  0.00  0.00    +0.000 A 
BRANCH  21  24
ATOM     24  C   UNL     1      -0.598  10.417  -0.147  0.00  0.00    +0.000 C 
BRANCH  24  25
ATOM     25  N   UNL     1       0.184  11.231   0.775  0.00  0.00    +0.000 NA
ATOM     26  H   UNL     1       0.131  10.815   1.704  0.00  0.00    +0.000 HD
ATOM     27  H   UNL     1      -0.240  12.153   0.845  0.00  0.00    +0.000 HD
ENDBRANCH  24  25
ENDBRANCH  21  24
ENDBRANCH  17  18
ENDBRANCH  16  17
ENDBRANCH   3  16
TORSDOF 7
