REMARK  Name = 
REMARK  6 active torsions:
REMARK  status: ('A' for Active; 'I' for Inactive)
REMARK    1  A    between atoms: C_1  and  C_2
REMARK    2  A    between atoms: C_5  and  C_6
REMARK    3  A    between atoms: C_10  and  N_11
REMARK    4  A    between atoms: N_11  and  C_12
REMARK    5  A    between atoms: C_12  and  C_13
REMARK    6  A    between atoms: C_18  and  C_19
REMARK                            x       y       z     vdW  Elec       q    Type
REMARK                         _______ _______ _______ _____ _____    ______ ____
ROOT
ATOM      1  N   UNL     1       0.807  -2.385  -0.198  0.00  0.00    +0.000 N 
ATOM      2  H   UNL     1       0.264  -3.008   0.389  0.00  0.00    +0.000 HD
ENDROOT
BRANCH   1   9
ATOM      3  C   UNL     1      -2.079  -1.866  -0.162  0.00  0.00    +0.000 C 
ATOM      4  C   UNL     1      -1.036  -0.786  -0.099  0.00  0.00    +0.000 A 
ATOM      5  C   UNL     1      -1.474   0.548  -0.065  0.00  0.00    +0.000 A 
ATOM      6  C   UNL     1      -0.553   1.578  -0.011  0.00  0.00    +0.000 A 
ATOM      7  C   UNL     1       0.786   1.237   0.014  0.00  0.00    +0.000 A 
ATOM      8  N   UNL     1       1.254  -0.048  -0.020  0.00  0.00    +0.000 NA
ATOM      9  C   UNL     1       0.349  -1.054  -0.074  0.00  0.00    +0.000 A 
BRANCH   7  10
ATOM     10  C   UNL     1       1.800   2.339   0.078  0.00  0.00    +0.000 C 
ATOM     11  N   UNL     1       3.109   1.949   0.116  0.00  0.00    +0.000 N 
ATOM     12  O   UNL     1       1.486   3.523   0.095  0.00  0.00    +0.000 OA
ATOM     13  H   UNL     1       3.343   0.970   0.049  0.00  0.00    +0.000 HD
ATOM     14  H   UNL     1       3.832   2.651   0.132  0.00  0.00    +0.000 HD
ENDBRANCH   7  10
ENDBRANCH   1   9
BRANCH   1  15
ATOM     15  C   UNL     1       2.244  -2.553  -0.007  0.00  0.00    +0.000 C 
BRANCH  15  16
ATOM     16  C   UNL     1       2.623  -4.021   0.080  0.00  0.00    +0.000 A 
ATOM     17  C   UNL     1       2.754  -4.653   1.322  0.00  0.00    +0.000 A 
ATOM     18  C   UNL     1       3.170  -5.977   1.388  0.00  0.00    +0.000 A 
ATOM     19  F   UNL     1       3.312  -6.563   2.585  0.00  0.00    +0.000 F 
ATOM     20  C   UNL     1       3.460  -6.705   0.236  0.00  0.00    +0.000 A 
ATOM     21  C   UNL     1       3.328  -6.117  -1.034  0.00  0.00    +0.000 A 
ATOM     22  C   UNL     1       2.895  -4.771  -1.083  0.00  0.00    +0.000 A 
BRANCH  21  23
ATOM     23  C   UNL     1       3.654  -6.876  -2.263  0.00  0.00    +0.000 A 
ATOM     24  C   UNL     1       3.416  -8.255  -2.383  0.00  0.00    +0.000 A 
ATOM     25  C   UNL     1       3.740  -8.938  -3.555  0.00  0.00    +0.000 A 
ATOM     26  C   UNL     1       4.296  -8.224  -4.599  0.00  0.00    +0.000 A 
ATOM     27  N   UNL     1       4.551  -6.902  -4.541  0.00  0.00    +0.000 NA
ATOM     28  C   UNL     1       4.229  -6.270  -3.384  0.00  0.00    +0.000 A 
ENDBRANCH  21  23
ENDBRANCH  15  16
ENDBRANCH   1  15
TORSDOF 5
