REMARK  Name = 
REMARK  4 active torsions:
REMARK  status: ('A' for Active; 'I' for Inactive)
REMARK    1  A    between atoms: C_2  and  C_4
REMARK    2  A    between atoms: N_8  and  C_9
REMARK    3  A    between atoms: C_9  and  C_10
REMARK    4  A    between atoms: C_10  and  C_11
REMARK                            x       y       z     vdW  Elec       q    Type
REMARK                         _______ _______ _______ _____ _____    ______ ____
ROOT
ATOM      1  C   UNL     1       2.916  -0.716  -1.385  0.00  0.00    +0.000 A 
ATOM      2  C   UNL     1       4.198  -1.117  -1.020  0.00  0.00    +0.000 A 
ATOM      3  C   UNL     1       5.001  -1.753  -1.966  0.00  0.00    +0.000 A 
ATOM      4  C   UNL     1       4.525  -1.948  -3.263  0.00  0.00    +0.000 A 
ATOM      5  N   UNL     1       5.417  -2.466  -4.211  0.00  0.00    +0.000 N 
ATOM      6  N   UNL     1       3.270  -1.599  -3.610  0.00  0.00    +0.000 NA
ATOM      7  C   UNL     1       2.485  -1.016  -2.668  0.00  0.00    +0.000 A 
ATOM      8  H   UNL     1       5.749  -3.378  -3.913  0.00  0.00    +0.000 HD
ENDROOT
BRANCH   1  10
ATOM      9  N   UNL     1       2.605   0.830   0.457  0.00  0.00    +0.000 N 
ATOM     10  C   UNL     1       2.017   0.024  -0.478  0.00  0.00    +0.000 C 
ATOM     11  O   UNL     1       0.797  -0.038  -0.593  0.00  0.00    +0.000 OA
ATOM     12  H   UNL     1       1.983   1.436   0.979  0.00  0.00    +0.000 HD
ATOM     13  H   UNL     1       3.574   1.107   0.395  0.00  0.00    +0.000 HD
ENDBRANCH   1  10
BRANCH   5  14
ATOM     14  C   UNL     1       4.958  -2.420  -5.600  0.00  0.00    +0.000 C 
BRANCH  14  15
ATOM     15  C   UNL     1       5.920  -3.220  -6.488  0.00  0.00    +0.000 C 
BRANCH  15  16
ATOM     16  C   UNL     1       5.678  -2.990  -7.959  0.00  0.00    +0.000 A 
ATOM     17  C   UNL     1       6.332  -1.941  -8.621  0.00  0.00    +0.000 A 
ATOM     18  C   UNL     1       6.111  -1.712  -9.980  0.00  0.00    +0.000 A 
ATOM     19  C   UNL     1       5.230  -2.528 -10.688  0.00  0.00    +0.000 A 
ATOM     20  C   UNL     1       4.569  -3.568 -10.037  0.00  0.00    +0.000 A 
ATOM     21  C   UNL     1       4.789  -3.799  -8.678  0.00  0.00    +0.000 A 
ENDBRANCH  15  16
ENDBRANCH  14  15
ENDBRANCH   5  14
TORSDOF 4
