REMARK  Name = 
REMARK  4 active torsions:
REMARK  status: ('A' for Active; 'I' for Inactive)
REMARK    1  A    between atoms: C_2  and  C_3
REMARK    2  A    between atoms: C_7  and  C_8
REMARK    3  A    between atoms: C_8  and  N_9
REMARK    4  A    between atoms: C_11  and  C_12
REMARK                            x       y       z     vdW  Elec       q    Type
REMARK                         _______ _______ _______ _____ _____    ______ ____
ROOT
ATOM      1  N   UNL     1       3.839   2.332   0.059  0.00  0.00    +0.000 N 
ATOM      2  C   UNL     1       4.629   2.784   1.090  0.00  0.00    +0.000 A 
ATOM      3  C   UNL     1       5.922   2.374   0.849  0.00  0.00    +0.000 A 
ATOM      4  C   UNL     1       5.926   1.640  -0.370  0.00  0.00    +0.000 A 
ATOM      5  C   UNL     1       6.925   0.963  -1.105  0.00  0.00    +0.000 A 
ATOM      6  C   UNL     1       6.586   0.312  -2.296  0.00  0.00    +0.000 A 
ATOM      7  C   UNL     1       5.278   0.333  -2.766  0.00  0.00    +0.000 A 
ATOM      8  C   UNL     1       4.270   0.994  -2.058  0.00  0.00    +0.000 A 
ATOM      9  C   UNL     1       4.611   1.638  -0.856  0.00  0.00    +0.000 A 
ENDROOT
BRANCH   3  10
ATOM     10  C   UNL     1       7.040   2.631   1.702  0.00  0.00    +0.000 C 
ATOM     11  N   UNL     1       7.945   2.836   2.399  0.00  0.00    +0.000 NA
ENDBRANCH   3  10
BRANCH   1  12
ATOM     12  C   UNL     1       2.385   2.462   0.025  0.00  0.00    +0.000 C 
BRANCH  12  17
ATOM     13  C   UNL     1       1.350   6.116  -0.388  0.00  0.00    +0.000 A 
ATOM     14  C   UNL     1       1.124   6.187  -1.765  0.00  0.00    +0.000 A 
ATOM     15  C   UNL     1       1.294   5.053  -2.559  0.00  0.00    +0.000 A 
ATOM     16  C   UNL     1       1.696   3.848  -1.980  0.00  0.00    +0.000 A 
ATOM     17  C   UNL     1       1.940   3.760  -0.601  0.00  0.00    +0.000 A 
ATOM     18  C   UNL     1       1.761   4.907   0.189  0.00  0.00    +0.000 A 
BRANCH  13  20
ATOM     19  N   UNL     1       0.979   8.203   1.107  0.00  0.00    +0.000 NA
ATOM     20  C   UNL     1       1.151   7.273   0.434  0.00  0.00    +0.000 C 
ENDBRANCH  13  20
ENDBRANCH  12  17
ENDBRANCH   1  12
TORSDOF 4
