REMARK  Name = 
REMARK  7 active torsions:
REMARK  status: ('A' for Active; 'I' for Inactive)
REMARK    1  A    between atoms: C_1  and  N_2
REMARK    2  A    between atoms: N_5  and  C_6
REMARK    3  A    between atoms: C_10  and  C_11
REMARK    4  A    between atoms: C_11  and  C_12
REMARK    5  A    between atoms: C_12  and  N_13
REMARK    6  A    between atoms: N_13  and  C_14
REMARK    7  A    between atoms: C_17  and  C_18
REMARK                            x       y       z     vdW  Elec       q    Type
REMARK                         _______ _______ _______ _____ _____    ______ ____
ROOT
ATOM      1  C   UNL     1      -6.462   1.685   0.585  0.00  0.00    +0.000 C 
ENDROOT
BRANCH   1   6
ATOM      2  C   UNL     1      -3.027  -0.003   0.795  0.00  0.00    +0.000 A 
ATOM      3  C   UNL     1      -3.165  -0.721   1.990  0.00  0.00    +0.000 A 
ATOM      4  C   UNL     1      -4.350  -0.700   2.727  0.00  0.00    +0.000 A 
ATOM      5  C   UNL     1      -5.432   0.057   2.289  0.00  0.00    +0.000 A 
ATOM      6  C   UNL     1      -5.339   0.812   1.116  0.00  0.00    +0.000 A 
ATOM      7  C   UNL     1      -4.136   0.760   0.387  0.00  0.00    +0.000 A 
BRANCH   2  12
ATOM      8  C   UNL     1       0.586  -0.826  -3.347  0.00  0.00    +0.000 C 
ATOM      9  N   UNL     1       0.170  -0.414  -2.010  0.00  0.00    +0.000 NA
ATOM     10  C   UNL     1      -0.845   0.662  -2.089  0.00  0.00    +0.000 C 
ATOM     11  C   UNL     1      -1.356   1.093  -0.695  0.00  0.00    +0.000 C 
ATOM     12  N   UNL     1      -1.893  -0.081   0.013  0.00  0.00    +0.000 N 
ATOM     13  C   UNL     1      -0.924  -1.181   0.137  0.00  0.00    +0.000 C 
ATOM     14  C   UNL     1      -0.397  -1.564  -1.267  0.00  0.00    +0.000 C 
ENDBRANCH   2  12
ENDBRANCH   1   6
BRANCH   1  15
ATOM     15  C   UNL     1      -7.729   1.680   1.440  0.00  0.00    +0.000 C 
BRANCH  15  16
ATOM     16  N   UNL     1      -8.734   2.626   0.962  0.00  0.00    +0.000 N 
ATOM     17  H   UNL     1      -8.821   2.675  -0.050  0.00  0.00    +0.000 HD
BRANCH  16  18
ATOM     18  C   UNL     1      -9.981   2.629   1.605  0.00  0.00    +0.000 A 
ATOM     19  C   UNL     1     -10.223   1.976   2.823  0.00  0.00    +0.000 A 
ATOM     20  C   UNL     1     -11.461   2.065   3.466  0.00  0.00    +0.000 A 
ATOM     21  C   UNL     1     -12.476   2.852   2.925  0.00  0.00    +0.000 A 
ATOM     22  C   UNL     1     -12.249   3.533   1.725  0.00  0.00    +0.000 A 
ATOM     23  C   UNL     1     -11.008   3.425   1.081  0.00  0.00    +0.000 A 
BRANCH  21  24
ATOM     24  C   UNL     1     -13.765   2.929   3.661  0.00  0.00    +0.000 C 
ATOM     25  N   UNL     1     -14.522   4.054   3.481  0.00  0.00    +0.000 N 
ATOM     26  O   UNL     1     -14.119   2.052   4.435  0.00  0.00    +0.000 OA
ATOM     27  H   UNL     1     -14.147   4.893   3.066  0.00  0.00    +0.000 HD
ATOM     28  H   UNL     1     -15.323   4.148   4.091  0.00  0.00    +0.000 HD
ENDBRANCH  21  24
ENDBRANCH  16  18
ENDBRANCH  15  16
ENDBRANCH   1  15
TORSDOF 6
