REMARK  Name = 
REMARK  5 active torsions:
REMARK  status: ('A' for Active; 'I' for Inactive)
REMARK    1  A    between atoms: C_1  and  C_2
REMARK    2  A    between atoms: C_2  and  O_3
REMARK    3  A    between atoms: C_2  and  C_13
REMARK    4  A    between atoms: O_3  and  C_4
REMARK    5  A    between atoms: C_7  and  C_8
REMARK                            x       y       z     vdW  Elec       q    Type
REMARK                         _______ _______ _______ _____ _____    ______ ____
ROOT
ATOM      1  C   UNL     1       2.447   0.832   2.395  0.00  0.00    +0.000 A 
ATOM      2  C   UNL     1       2.234   0.412   3.711  0.00  0.00    +0.000 A 
ATOM      3  C   UNL     1       2.014   1.342   4.730  0.00  0.00    +0.000 A 
ATOM      4  C   UNL     1       2.031   2.710   4.445  0.00  0.00    +0.000 A 
ATOM      5  C   UNL     1       2.250   3.134   3.128  0.00  0.00    +0.000 A 
ATOM      6  C   UNL     1       2.460   2.196   2.106  0.00  0.00    +0.000 A 
ENDROOT
BRANCH   4   7
ATOM      7  C   UNL     1       1.797   3.664   5.559  0.00  0.00    +0.000 C 
ATOM      8  N   UNL     1       2.313   4.923   5.431  0.00  0.00    +0.000 N 
ATOM      9  O   UNL     1       1.199   3.332   6.576  0.00  0.00    +0.000 OA
ATOM     10  H   UNL     1       3.017   5.152   4.748  0.00  0.00    +0.000 HD
ATOM     11  H   UNL     1       2.248   5.512   6.252  0.00  0.00    +0.000 HD
ENDBRANCH   4   7
BRANCH   1  12
ATOM     12  O   UNL     1       2.654  -0.182   1.507  0.00  0.00    +0.000 OA
BRANCH  12  14
ATOM     13  C   UNL     1       0.902   0.142  -0.159  0.00  0.00    +0.000 C 
ATOM     14  C   UNL     1       2.405   0.031   0.110  0.00  0.00    +0.000 C 
BRANCH  14  15
ATOM     15  C   UNL     1       2.953  -1.164  -0.662  0.00  0.00    +0.000 A 
ATOM     16  C   UNL     1       3.423  -0.995  -1.975  0.00  0.00    +0.000 A 
ATOM     17  C   UNL     1       3.870  -2.090  -2.717  0.00  0.00    +0.000 A 
ATOM     18  C   UNL     1       3.855  -3.367  -2.158  0.00  0.00    +0.000 A 
ATOM     19  C   UNL     1       3.395  -3.550  -0.856  0.00  0.00    +0.000 A 
ATOM     20  C   UNL     1       2.943  -2.457  -0.114  0.00  0.00    +0.000 A 
ENDBRANCH  14  15
ENDBRANCH  12  14
ENDBRANCH   1  12
TORSDOF 4
