REMARK  Name = 
REMARK  5 active torsions:
REMARK  status: ('A' for Active; 'I' for Inactive)
REMARK    1  A    between atoms: C_2  and  C_4
REMARK    2  A    between atoms: C_7  and  O_8
REMARK    3  A    between atoms: O_8  and  C_9
REMARK    4  A    between atoms: C_9  and  C_10
REMARK    5  A    between atoms: C_14  and  C_15
REMARK                            x       y       z     vdW  Elec       q    Type
REMARK                         _______ _______ _______ _____ _____    ______ ____
ROOT
ATOM      1  C   UNL     1       5.097   5.938   0.338  0.00  0.00    +0.000 C 
ENDROOT
BRANCH   1   2
ATOM      2  C   UNL     1       6.036   7.084   0.070  0.00  0.00    +0.000 A 
ATOM      3  C   UNL     1       7.375   6.840  -0.203  0.00  0.00    +0.000 A 
ATOM      4  N   UNL     1       8.293   7.809  -0.395  0.00  0.00    +0.000 NA
ATOM      5  C   UNL     1       7.856   9.089  -0.297  0.00  0.00    +0.000 A 
ATOM      6  C   UNL     1       6.541   9.474  -0.024  0.00  0.00    +0.000 A 
ATOM      7  C   UNL     1       5.633   8.422   0.166  0.00  0.00    +0.000 A 
BRANCH   6   8
ATOM      8  C   UNL     1       6.126  10.891   0.059  0.00  0.00    +0.000 A 
ATOM      9  C   UNL     1       6.726  11.884  -0.741  0.00  0.00    +0.000 A 
ATOM     10  C   UNL     1       6.323  13.224  -0.676  0.00  0.00    +0.000 A 
ATOM     11  C   UNL     1       5.300  13.599   0.187  0.00  0.00    +0.000 A 
ATOM     12  C   UNL     1       4.696  12.636   0.980  0.00  0.00    +0.000 A 
ATOM     13  F   UNL     1       3.704  12.989   1.808  0.00  0.00    +0.000 F 
ATOM     14  C   UNL     1       5.100  11.304   0.929  0.00  0.00    +0.000 A 
ENDBRANCH   6   8
ENDBRANCH   1   2
BRANCH   1  15
ATOM     15  O   UNL     1       3.765   6.271  -0.068  0.00  0.00    +0.000 OA
BRANCH  15  19
ATOM     16  C   UNL     1       1.061   3.253   0.650  0.00  0.00    +0.000 A 
ATOM     17  C   UNL     1       0.624   4.448   0.076  0.00  0.00    +0.000 A 
ATOM     18  C   UNL     1       1.549   5.467  -0.159  0.00  0.00    +0.000 A 
ATOM     19  C   UNL     1       2.875   5.250   0.190  0.00  0.00    +0.000 A 
ATOM     20  N   UNL     1       3.322   4.111   0.758  0.00  0.00    +0.000 NA
ATOM     21  C   UNL     1       2.404   3.142   0.986  0.00  0.00    +0.000 A 
BRANCH  16  23
ATOM     22  N   UNL     1      -0.942   1.970   0.157  0.00  0.00    +0.000 N 
ATOM     23  C   UNL     1       0.173   2.108   0.935  0.00  0.00    +0.000 C 
ATOM     24  O   UNL     1       0.444   1.291   1.803  0.00  0.00    +0.000 OA
ATOM     25  H   UNL     1      -1.471   1.116   0.288  0.00  0.00    +0.000 HD
ATOM     26  H   UNL     1      -1.060   2.459  -0.719  0.00  0.00    +0.000 HD
ENDBRANCH  16  23
ENDBRANCH  15  19
ENDBRANCH   1  15
TORSDOF 5
