REMARK  Name = 
REMARK  5 active torsions:
REMARK  status: ('A' for Active; 'I' for Inactive)
REMARK    1  A    between atoms: C_2  and  C_3
REMARK    2  A    between atoms: C_6  and  C_7
REMARK    3  A    between atoms: C_11  and  C_12
REMARK    4  A    between atoms: C_12  and  N_13
REMARK    5  A    between atoms: C_17  and  C_18
REMARK                            x       y       z     vdW  Elec       q    Type
REMARK                         _______ _______ _______ _____ _____    ______ ____
ROOT
ATOM      1  C   UNL     1       6.575  -1.276  -1.753  0.00  0.00    +0.000 C 
ATOM      2  C   UNL     1       7.483  -2.485  -1.590  0.00  0.00    +0.000 C 
ATOM      3  C   UNL     1       8.087  -1.160  -1.913  0.00  0.00    +0.000 C 
ENDROOT
BRANCH   1   4
ATOM      4  N   UNL     1       5.731  -1.195  -2.948  0.00  0.00    +0.000 N 
ATOM      5  C   UNL     1       5.613  -0.082  -3.780  0.00  0.00    +0.000 A 
ATOM      6  C   UNL     1       6.384   1.067  -3.622  0.00  0.00    +0.000 A 
ATOM      7  C   UNL     1       6.260   2.121  -4.528  0.00  0.00    +0.000 A 
ATOM      8  C   UNL     1       5.355   2.008  -5.577  0.00  0.00    +0.000 A 
ATOM      9  C   UNL     1       4.629   0.832  -5.675  0.00  0.00    +0.000 A 
ATOM     10  N   UNL     1       4.731  -0.201  -4.795  0.00  0.00    +0.000 NA
ATOM     11  H   UNL     1       5.021  -1.884  -3.164  0.00  0.00    +0.000 HD
BRANCH   8  12
ATOM     12  C   UNL     1       5.161   3.072  -6.584  0.00  0.00    +0.000 C 
ATOM     13  N   UNL     1       5.455   4.353  -6.203  0.00  0.00    +0.000 N 
ATOM     14  O   UNL     1       4.729   2.824  -7.701  0.00  0.00    +0.000 OA
ATOM     15  H   UNL     1       5.589   4.622  -5.239  0.00  0.00    +0.000 HD
ATOM     16  H   UNL     1       5.231   5.085  -6.866  0.00  0.00    +0.000 HD
ENDBRANCH   8  12
ENDBRANCH   1   4
BRANCH   1  21
ATOM     17  C   UNL     1       5.810   1.080   1.004  0.00  0.00    +0.000 A 
ATOM     18  N   UNL     1       4.993   0.417   1.842  0.00  0.00    +0.000 NA
ATOM     19  C   UNL     1       4.652  -0.828   1.473  0.00  0.00    +0.000 A 
ATOM     20  C   UNL     1       5.101  -1.429   0.318  0.00  0.00    +0.000 A 
ATOM     21  C   UNL     1       5.955  -0.689  -0.483  0.00  0.00    +0.000 A 
ATOM     22  N   UNL     1       6.297   0.573  -0.141  0.00  0.00    +0.000 NA
BRANCH  17  26
ATOM     23  C   UNL     1       7.232   4.994   2.106  0.00  0.00    +0.000 A 
ATOM     24  C   UNL     1       6.411   4.275   2.980  0.00  0.00    +0.000 A 
ATOM     25  C   UNL     1       5.933   3.011   2.616  0.00  0.00    +0.000 A 
ATOM     26  C   UNL     1       6.263   2.432   1.377  0.00  0.00    +0.000 A 
ATOM     27  C   UNL     1       7.078   3.189   0.509  0.00  0.00    +0.000 A 
ATOM     28  C   UNL     1       7.557   4.450   0.862  0.00  0.00    +0.000 A 
BRANCH  23  30
ATOM     29  N   UNL     1       8.165   7.310   2.786  0.00  0.00    +0.000 NA
ATOM     30  C   UNL     1       7.743   6.271   2.484  0.00  0.00    +0.000 C 
ENDBRANCH  23  30
ENDBRANCH  17  26
ENDBRANCH   1  21
TORSDOF 5
