REMARK  Name = 
REMARK  11 active torsions:
REMARK  status: ('A' for Active; 'I' for Inactive)
REMARK    1  A    between atoms: N_1  and  C_2
REMARK    2  A    between atoms: C_2  and  C_3
REMARK    3  A    between atoms: C_3  and  N_4
REMARK    4  A    between atoms: N_4  and  C_5
REMARK    5  A    between atoms: C_5  and  C_6
REMARK    6  A    between atoms: C_9  and  C_10
REMARK    7  A    between atoms: C_10  and  N_11
REMARK    8  A    between atoms: C_12  and  C_14
REMARK    9  A    between atoms: C_25  and  C_26
REMARK   10  A    between atoms: C_26  and  N_27
REMARK   11  A    between atoms: C_28  and  C_30
REMARK                            x       y       z     vdW  Elec       q    Type
REMARK                         _______ _______ _______ _____ _____    ______ ____
ROOT
ATOM      1  C   UNL     1       6.446   2.382  -1.502  0.00  0.00    +0.000 A 
ATOM      2  C   UNL     1       7.183   1.248  -1.106  0.00  0.00    +0.000 A 
ATOM      3  C   UNL     1       8.571   1.214  -1.206  0.00  0.00    +0.000 A 
ATOM      4  C   UNL     1       9.268   2.312  -1.711  0.00  0.00    +0.000 A 
ATOM      5  C   UNL     1       8.546   3.457  -2.089  0.00  0.00    +0.000 A 
ATOM      6  C   UNL     1       7.135   3.510  -2.004  0.00  0.00    +0.000 A 
ENDROOT
BRANCH   1   7
ATOM      7  C   UNL     1       4.938   2.307  -1.367  0.00  0.00    +0.000 C 
BRANCH   7   8
ATOM      8  N   UNL     1       4.204   2.416  -2.628  0.00  0.00    +0.000 NA
ATOM      9  H   UNL     1       3.212   2.314  -2.415  0.00  0.00    +0.000 HD
BRANCH   8  10
ATOM     10  C   UNL     1       4.554   1.354  -3.585  0.00  0.00    +0.000 C 
BRANCH  10  11
ATOM     11  C   UNL     1       3.717   1.485  -4.871  0.00  0.00    +0.000 C 
BRANCH  11  12
ATOM     12  N   UNL     1       2.275   1.406  -4.607  0.00  0.00    +0.000 NA
ATOM     13  H   UNL     1       1.781   1.517  -5.493  0.00  0.00    +0.000 HD
ATOM     14  H   UNL     1       2.009   2.218  -4.052  0.00  0.00    +0.000 HD
ENDBRANCH  11  12
ENDBRANCH  10  11
ENDBRANCH   8  10
ENDBRANCH   7   8
ENDBRANCH   1   7
BRANCH   4  15
ATOM     15  C   UNL     1      10.771   2.256  -1.809  0.00  0.00    +0.000 C 
BRANCH  15  16
ATOM     16  N   UNL     1      11.399   2.739  -0.604  0.00  0.00    +0.000 N 
ATOM     17  C   UNL     1      12.764   2.851  -0.522  0.00  0.00    +0.000 C 
ATOM     18  O   UNL     1      13.494   2.565  -1.469  0.00  0.00    +0.000 OA
ATOM     19  H   UNL     1      10.840   2.758   0.244  0.00  0.00    +0.000 HD
BRANCH  17  20
ATOM     20  C   UNL     1      13.316   3.383   0.729  0.00  0.00    +0.000 A 
ATOM     21  C   UNL     1      14.566   3.989   0.718  0.00  0.00    +0.000 A 
ATOM     22  S   UNL     1      15.061   4.572   2.241  0.00  0.00    +0.000 S 
ATOM     23  C   UNL     1      13.642   3.994   2.981  0.00  0.00    +0.000 A 
ATOM     24  N   UNL     1      13.447   4.137   4.320  0.00  0.00    +0.000 NA
ATOM     25  C   UNL     1      12.343   3.628   4.755  0.00  0.00    +0.000 A 
ATOM     26  N   UNL     1      11.410   3.002   3.971  0.00  0.00    +0.000 N 
ATOM     27  C   UNL     1      11.547   2.871   2.607  0.00  0.00    +0.000 A 
ATOM     28  O   UNL     1      10.663   2.362   1.925  0.00  0.00    +0.000 OA
ATOM     29  C   UNL     1      12.784   3.395   2.074  0.00  0.00    +0.000 A 
ATOM     30  H   UNL     1      10.557   2.643   4.372  0.00  0.00    +0.000 HD
ENDBRANCH  17  20
ENDBRANCH  15  16
ENDBRANCH   4  15
BRANCH   6  31
ATOM     31  C   UNL     1       6.431   4.790  -2.418  0.00  0.00    +0.000 C 
BRANCH  31  32
ATOM     32  N   UNL     1       6.261   5.672  -1.287  0.00  0.00    +0.000 N 
ATOM     33  C   UNL     1       5.810   6.966  -1.410  0.00  0.00    +0.000 C 
ATOM     34  O   UNL     1       5.530   7.480  -2.487  0.00  0.00    +0.000 OA
ATOM     35  H   UNL     1       6.287   5.256  -0.372  0.00  0.00    +0.000 HD
BRANCH  33  36
ATOM     36  C   UNL     1       5.688   7.676  -0.147  0.00  0.00    +0.000 A 
ATOM     37  C   UNL     1       6.071   7.322   1.139  0.00  0.00    +0.000 A 
ATOM     38  C   UNL     1       5.743   8.386   2.012  0.00  0.00    +0.000 A 
ATOM     39  C   UNL     1       5.171   9.375   1.248  0.00  0.00    +0.000 A 
ATOM     40  N   UNL     1       5.147   8.944  -0.054  0.00  0.00    +0.000 N 
ATOM     41  H   UNL     1       4.792   9.468  -0.846  0.00  0.00    +0.000 HD
ENDBRANCH  33  36
ENDBRANCH  31  32
ENDBRANCH   6  31
TORSDOF 11
