REMARK  Name = 
REMARK  6 active torsions:
REMARK  status: ('A' for Active; 'I' for Inactive)
REMARK    1  A    between atoms: C_2  and  C_25
REMARK    2  A    between atoms: N_3  and  C_4
REMARK    3  A    between atoms: C_4  and  C_5
REMARK    4  A    between atoms: C_8  and  C_9
REMARK    5  A    between atoms: C_9  and  N_10
REMARK    6  A    between atoms: C_11  and  C_13
REMARK                            x       y       z     vdW  Elec       q    Type
REMARK                         _______ _______ _______ _____ _____    ______ ____
ROOT
ATOM      1  C   UNL     1       3.195   2.354  -2.771  0.00  0.00    +0.000 A 
ATOM      2  C   UNL     1       2.988   3.735  -2.898  0.00  0.00    +0.000 A 
ATOM      3  C   UNL     1       3.828   4.511  -3.703  0.00  0.00    +0.000 A 
ATOM      4  C   UNL     1       4.880   3.919  -4.415  0.00  0.00    +0.000 A 
ATOM      5  C   UNL     1       5.091   2.540  -4.281  0.00  0.00    +0.000 A 
ATOM      6  C   UNL     1       4.251   1.764  -3.478  0.00  0.00    +0.000 A 
ENDROOT
BRANCH   1   7
ATOM      7  C   UNL     1       2.280   1.514  -1.918  0.00  0.00    +0.000 C 
BRANCH   7  10
ATOM      8  O   UNL     1       0.259  -0.120  -0.930  0.00  0.00    +0.000 OA
ATOM      9  C   UNL     1       0.193   0.221  -2.108  0.00  0.00    +0.000 C 
ATOM     10  N   UNL     1       1.161   1.020  -2.679  0.00  0.00    +0.000 N 
ATOM     11  H   UNL     1       1.059   1.297  -3.648  0.00  0.00    +0.000 HD
BRANCH   9  12
ATOM     12  C   UNL     1      -0.903  -0.178  -2.985  0.00  0.00    +0.000 A 
ATOM     13  C   UNL     1      -2.010  -0.936  -2.638  0.00  0.00    +0.000 A 
ATOM     14  C   UNL     1      -2.904  -1.129  -3.726  0.00  0.00    +0.000 A 
ATOM     15 CL   UNL     1      -4.362  -2.007  -3.588  0.00  0.00    +0.000 Cl
ATOM     16  C   UNL     1      -2.455  -0.529  -4.879  0.00  0.00    +0.000 A 
ATOM     17  S   UNL     1      -0.962   0.268  -4.642  0.00  0.00    +0.000 S 
ENDBRANCH   9  12
ENDBRANCH   7  10
ENDBRANCH   1   7
BRANCH   4  18
ATOM     18  C   UNL     1       5.790   4.746  -5.288  0.00  0.00    +0.000 C 
BRANCH  18  19
ATOM     19  N   UNL     1       6.925   5.239  -4.550  0.00  0.00    +0.000 N 
ATOM     20  C   UNL     1       7.839   6.078  -5.137  0.00  0.00    +0.000 C 
ATOM     21  O   UNL     1       7.706   6.477  -6.291  0.00  0.00    +0.000 OA
ATOM     22  H   UNL     1       7.178   4.743  -3.701  0.00  0.00    +0.000 HD
BRANCH  20  23
ATOM     23  C   UNL     1       8.954   6.532  -4.295  0.00  0.00    +0.000 A 
ATOM     24  C   UNL     1       9.615   7.712  -4.607  0.00  0.00    +0.000 A 
ATOM     25  S   UNL     1      10.841   8.125  -3.495  0.00  0.00    +0.000 S 
ATOM     26  C   UNL     1      10.569   6.712  -2.588  0.00  0.00    +0.000 A 
ATOM     27  N   UNL     1      11.316   6.434  -1.486  0.00  0.00    +0.000 NA
ATOM     28  C   UNL     1      11.026   5.313  -0.914  0.00  0.00    +0.000 A 
ATOM     29  N   UNL     1      10.054   4.446  -1.343  0.00  0.00    +0.000 N 
ATOM     30  C   UNL     1       9.256   4.699  -2.433  0.00  0.00    +0.000 A 
ATOM     31  O   UNL     1       8.368   3.921  -2.767  0.00  0.00    +0.000 OA
ATOM     32  C   UNL     1       9.547   5.944  -3.118  0.00  0.00    +0.000 A 
ATOM     33  H   UNL     1       9.874   3.586  -0.847  0.00  0.00    +0.000 HD
ENDBRANCH  20  23
ENDBRANCH  18  19
ENDBRANCH   4  18
TORSDOF 6
