REMARK  Name = 
REMARK  8 active torsions:
REMARK  status: ('A' for Active; 'I' for Inactive)
REMARK    1  A    between atoms: C_1  and  O_2
REMARK    2  A    between atoms: O_2  and  C_3
REMARK    3  A    between atoms: C_8  and  N_9
REMARK    4  A    between atoms: N_9  and  C_10
REMARK    5  A    between atoms: C_10  and  C_11
REMARK    6  A    between atoms: C_14  and  C_15
REMARK    7  A    between atoms: C_15  and  N_16
REMARK    8  A    between atoms: C_17  and  C_19
REMARK                            x       y       z     vdW  Elec       q    Type
REMARK                         _______ _______ _______ _____ _____    ______ ____
ROOT
ATOM      1  C   UNL     1       4.430   0.932  -3.517  0.00  0.00    +0.000 A 
ATOM      2  C   UNL     1       4.596   2.208  -4.073  0.00  0.00    +0.000 A 
ATOM      3  C   UNL     1       5.213   2.369  -5.316  0.00  0.00    +0.000 A 
ATOM      4  C   UNL     1       5.654   1.256  -6.042  0.00  0.00    +0.000 A 
ATOM      5  C   UNL     1       5.508  -0.020  -5.476  0.00  0.00    +0.000 A 
ATOM      6  C   UNL     1       4.886  -0.183  -4.233  0.00  0.00    +0.000 A 
ENDROOT
BRANCH   1   7
ATOM      7  C   UNL     1       3.818   0.784  -2.142  0.00  0.00    +0.000 C 
BRANCH   7   8
ATOM      8  N   UNL     1       2.364   0.743  -2.208  0.00  0.00    +0.000 N 
ATOM      9  H   UNL     1       2.021   0.205  -3.000  0.00  0.00    +0.000 HD
BRANCH   8  15
ATOM     10  C   UNL     1       2.104   0.551   0.293  0.00  0.00    +0.000 A 
ATOM     11  C   UNL     1       1.241   0.300   1.373  0.00  0.00    +0.000 A 
ATOM     12  C   UNL     1      -0.116   0.066   1.166  0.00  0.00    +0.000 A 
ATOM     13  C   UNL     1      -0.628   0.093  -0.122  0.00  0.00    +0.000 A 
ATOM     14  C   UNL     1       0.228   0.307  -1.207  0.00  0.00    +0.000 A 
ATOM     15  C   UNL     1       1.616   0.495  -1.037  0.00  0.00    +0.000 A 
BRANCH  10  17
ATOM     16  C   UNL     1       3.891   1.106   1.792  0.00  0.00    +0.000 C 
ATOM     17  O   UNL     1       3.436   0.830   0.477  0.00  0.00    +0.000 OA
ENDBRANCH  10  17
ENDBRANCH   8  15
ENDBRANCH   7   8
ENDBRANCH   1   7
BRANCH   4  18
ATOM     18  C   UNL     1       6.267   1.424  -7.408  0.00  0.00    +0.000 C 
BRANCH  18  19
ATOM     19  N   UNL     1       7.691   1.642  -7.342  0.00  0.00    +0.000 N 
ATOM     20  C   UNL     1       8.433   1.817  -8.485  0.00  0.00    +0.000 C 
ATOM     21  O   UNL     1       7.923   1.882  -9.598  0.00  0.00    +0.000 OA
ATOM     22  H   UNL     1       8.152   1.384  -6.479  0.00  0.00    +0.000 HD
BRANCH  20  23
ATOM     23  C   UNL     1       9.877   2.006  -8.286  0.00  0.00    +0.000 A 
ATOM     24  C   UNL     1      10.620   2.726  -9.214  0.00  0.00    +0.000 A 
ATOM     25  S   UNL     1      12.272   2.858  -8.805  0.00  0.00    +0.000 S 
ATOM     26  C   UNL     1      12.059   1.919  -7.402  0.00  0.00    +0.000 A 
ATOM     27  N   UNL     1      13.110   1.619  -6.590  0.00  0.00    +0.000 NA
ATOM     28  C   UNL     1      12.805   0.877  -5.577  0.00  0.00    +0.000 A 
ATOM     29  N   UNL     1      11.549   0.411  -5.298  0.00  0.00    +0.000 N 
ATOM     30  C   UNL     1      10.454   0.713  -6.068  0.00  0.00    +0.000 A 
ATOM     31  O   UNL     1       9.331   0.329  -5.760  0.00  0.00    +0.000 OA
ATOM     32  C   UNL     1      10.743   1.530  -7.236  0.00  0.00    +0.000 A 
ATOM     33  H   UNL     1      11.370  -0.146  -4.475  0.00  0.00    +0.000 HD
ENDBRANCH  20  23
ENDBRANCH  18  19
ENDBRANCH   4  18
TORSDOF 7
