REMARK  Name = 
REMARK  7 active torsions:
REMARK  status: ('A' for Active; 'I' for Inactive)
REMARK    1  A    between atoms: C_1  and  N_2
REMARK    2  A    between atoms: N_2  and  C_3
REMARK    3  A    between atoms: C_3  and  C_4
REMARK    4  A    between atoms: C_7  and  C_8
REMARK    5  A    between atoms: C_8  and  O_9
REMARK    6  A    between atoms: C_8  and  C_10
REMARK    7  A    between atoms: C_17  and  C_19
REMARK                            x       y       z     vdW  Elec       q    Type
REMARK                         _______ _______ _______ _____ _____    ______ ____
ROOT
ATOM      1  C   UNL     1       2.904  -1.213  -0.238  0.00  0.00    +0.000 C 
ENDROOT
BRANCH   1   2
ATOM      2  C   UNL     1       2.070  -2.301  -0.859  0.00  0.00    +0.000 A 
ATOM      3  C   UNL     1       2.037  -2.451  -2.256  0.00  0.00    +0.000 A 
ATOM      4  C   UNL     1       1.403  -3.549  -2.838  0.00  0.00    +0.000 A 
ATOM      5  C   UNL     1       0.777  -4.510  -2.034  0.00  0.00    +0.000 A 
ATOM      6  C   UNL     1       0.756  -4.318  -0.639  0.00  0.00    +0.000 A 
ATOM      7  C   UNL     1       1.395  -3.223  -0.058  0.00  0.00    +0.000 A 
BRANCH   5   8
ATOM      8  C   UNL     1       0.169  -5.750  -2.660  0.00  0.00    +0.000 C 
BRANCH   8   9
ATOM      9  C   UNL     1      -1.262  -5.975  -2.274  0.00  0.00    +0.000 A 
ATOM     10  N   UNL     1      -2.198  -5.076  -2.053  0.00  0.00    +0.000 NA
ATOM     11  C   UNL     1      -3.298  -5.778  -1.639  0.00  0.00    +0.000 A 
ATOM     12  C   UNL     1      -3.043  -7.127  -1.642  0.00  0.00    +0.000 A 
ATOM     13  N   UNL     1      -1.755  -7.241  -2.073  0.00  0.00    +0.000 N 
ATOM     14  H   UNL     1      -1.206  -8.083  -2.178  0.00  0.00    +0.000 HD
ENDBRANCH   8   9
BRANCH   8  15
ATOM     15  O   UNL     1       0.903  -6.914  -2.245  0.00  0.00    +0.000 OA
ATOM     16  H   UNL     1       1.511  -6.628  -1.541  0.00  0.00    +0.000 HD
ENDBRANCH   8  15
ENDBRANCH   5   8
ENDBRANCH   1   2
BRANCH   1  18
ATOM     17  C   UNL     1       0.955   0.398  -0.324  0.00  0.00    +0.000 C 
ATOM     18  N   UNL     1       2.269   0.028   0.191  0.00  0.00    +0.000 N 
ATOM     19  C   UNL     1       2.968   1.047   0.871  0.00  0.00    +0.000 C 
ATOM     20  O   UNL     1       2.448   2.143   1.075  0.00  0.00    +0.000 OA
BRANCH  19  21
ATOM     21  C   UNL     1       4.353   0.819   1.322  0.00  0.00    +0.000 A 
ATOM     22  C   UNL     1       5.385   0.348   0.524  0.00  0.00    +0.000 A 
ATOM     23  S   UNL     1       6.887   0.243   1.329  0.00  0.00    +0.000 S 
ATOM     24  C   UNL     1       6.250   0.993   2.714  0.00  0.00    +0.000 A 
ATOM     25  N   UNL     1       7.053   1.317   3.762  0.00  0.00    +0.000 NA
ATOM     26  C   UNL     1       6.447   1.950   4.711  0.00  0.00    +0.000 A 
ATOM     27  N   UNL     1       5.109   2.252   4.723  0.00  0.00    +0.000 N 
ATOM     28  C   UNL     1       4.234   1.823   3.747  0.00  0.00    +0.000 A 
ATOM     29  O   UNL     1       3.022   1.914   3.899  0.00  0.00    +0.000 OA
ATOM     30  C   UNL     1       4.890   1.216   2.603  0.00  0.00    +0.000 A 
ATOM     31  H   UNL     1       4.689   2.698   5.523  0.00  0.00    +0.000 HD
ENDBRANCH  19  21
ENDBRANCH   1  18
TORSDOF 6
