REMARK  Name = 
REMARK  11 active torsions:
REMARK  status: ('A' for Active; 'I' for Inactive)
REMARK    1  A    between atoms: N_1  and  C_2
REMARK    2  A    between atoms: C_2  and  C_3
REMARK    3  A    between atoms: C_3  and  C_4
REMARK    4  A    between atoms: C_4  and  C_5
REMARK    5  A    between atoms: C_5  and  N_6
REMARK    6  A    between atoms: C_5  and  C_28
REMARK    7  A    between atoms: N_6  and  C_7
REMARK    8  A    between atoms: C_7  and  C_8
REMARK    9  A    between atoms: C_11  and  C_12
REMARK   10  A    between atoms: C_12  and  N_13
REMARK   11  A    between atoms: C_14  and  C_16
REMARK                            x       y       z     vdW  Elec       q    Type
REMARK                         _______ _______ _______ _____ _____    ______ ____
ROOT
ATOM      1  C   UNL     1       2.540  -4.923   1.713  0.00  0.00    +0.000 A 
ATOM      2  C   UNL     1       3.425  -6.004   1.835  0.00  0.00    +0.000 A 
ATOM      3  C   UNL     1       2.992  -7.308   1.567  0.00  0.00    +0.000 A 
ATOM      4  C   UNL     1       1.666  -7.553   1.183  0.00  0.00    +0.000 A 
ATOM      5  C   UNL     1       0.769  -6.481   1.128  0.00  0.00    +0.000 A 
ATOM      6  C   UNL     1       1.203  -5.182   1.384  0.00  0.00    +0.000 A 
ENDROOT
BRANCH   1   7
ATOM      7  C   UNL     1       2.983  -3.493   1.930  0.00  0.00    +0.000 C 
BRANCH   7   8
ATOM      8  N   UNL     1       4.003  -3.086   0.960  0.00  0.00    +0.000 NA
ATOM      9  H   UNL     1       4.818  -3.683   1.056  0.00  0.00    +0.000 HD
BRANCH   8  10
ATOM     10  C   UNL     1       4.401  -1.667   1.095  0.00  0.00    +0.000 C 
BRANCH  10  11
ATOM     11  C   UNL     1       3.223  -0.710   0.864  0.00  0.00    +0.000 A 
ATOM     12  C   UNL     1       2.806  -0.408  -0.431  0.00  0.00    +0.000 A 
ATOM     13  C   UNL     1       1.703   0.424  -0.605  0.00  0.00    +0.000 A 
ATOM     14  C   UNL     1       1.039   0.923   0.510  0.00  0.00    +0.000 A 
ATOM     15  C   UNL     1       1.502   0.561   1.762  0.00  0.00    +0.000 A 
ATOM     16  N   UNL     1       2.565  -0.242   1.961  0.00  0.00    +0.000 NA
ENDBRANCH  10  11
BRANCH  10  17
ATOM     17  C   UNL     1       5.122  -1.308   2.419  0.00  0.00    +0.000 C 
BRANCH  17  18
ATOM     18  C   UNL     1       6.393  -2.099   2.750  0.00  0.00    +0.000 C 
BRANCH  18  19
ATOM     19  C   UNL     1       7.516  -1.955   1.726  0.00  0.00    +0.000 C 
BRANCH  19  20
ATOM     20  N   UNL     1       7.925  -0.561   1.611  0.00  0.00    +0.000 NA
ATOM     21  H   UNL     1       8.735  -0.483   0.999  0.00  0.00    +0.000 HD
ATOM     22  H   UNL     1       8.220  -0.215   2.524  0.00  0.00    +0.000 HD
ENDBRANCH  19  20
ENDBRANCH  18  19
ENDBRANCH  17  18
ENDBRANCH  10  17
ENDBRANCH   8  10
ENDBRANCH   7   8
ENDBRANCH   1   7
BRANCH   4  23
ATOM     23  C   UNL     1       1.180  -8.943   0.872  0.00  0.00    +0.000 C 
BRANCH  23  24
ATOM     24  N   UNL     1       0.685  -9.575   2.063  0.00  0.00    +0.000 N 
ATOM     25  C   UNL     1       0.226 -10.866   2.058  0.00  0.00    +0.000 C 
ATOM     26  O   UNL     1       0.239 -11.567   1.052  0.00  0.00    +0.000 OA
ATOM     27  H   UNL     1       0.413  -8.960   2.822  0.00  0.00    +0.000 HD
BRANCH  25  28
ATOM     28  C   UNL     1      -0.217 -11.384   3.357  0.00  0.00    +0.000 A 
ATOM     29  C   UNL     1      -0.169 -12.748   3.608  0.00  0.00    +0.000 A 
ATOM     30  S   UNL     1      -0.664 -13.166   5.185  0.00  0.00    +0.000 S 
ATOM     31  C   UNL     1      -1.009 -11.542   5.568  0.00  0.00    +0.000 A 
ATOM     32  N   UNL     1      -1.503 -11.200   6.787  0.00  0.00    +0.000 NA
ATOM     33  C   UNL     1      -1.736  -9.938   6.934  0.00  0.00    +0.000 A 
ATOM     34  N   UNL     1      -1.516  -8.985   5.971  0.00  0.00    +0.000 N 
ATOM     35  C   UNL     1      -0.999  -9.283   4.737  0.00  0.00    +0.000 A 
ATOM     36  O   UNL     1      -0.777  -8.399   3.911  0.00  0.00    +0.000 OA
ATOM     37  C   UNL     1      -0.728 -10.691   4.516  0.00  0.00    +0.000 A 
ATOM     38  H   UNL     1      -1.708  -8.013   6.154  0.00  0.00    +0.000 HD
ENDBRANCH  25  28
ENDBRANCH  23  24
ENDBRANCH   4  23
TORSDOF 11
