REMARK  Name = 
REMARK  10 active torsions:
REMARK  status: ('A' for Active; 'I' for Inactive)
REMARK    1  A    between atoms: C_1  and  C_2
REMARK    2  A    between atoms: C_2  and  C_3
REMARK    3  A    between atoms: C_2  and  C_4
REMARK    4  A    between atoms: C_2  and  C_5
REMARK    5  A    between atoms: C_7  and  O_8
REMARK    6  A    between atoms: O_8  and  C_9
REMARK    7  A    between atoms: C_9  and  C_10
REMARK    8  A    between atoms: C_13  and  C_14
REMARK    9  A    between atoms: C_14  and  N_15
REMARK   10  A    between atoms: C_20  and  C_21
REMARK                            x       y       z     vdW  Elec       q    Type
REMARK                         _______ _______ _______ _____ _____    ______ ____
ROOT
ATOM      1  C   UNL     1       2.837   1.149   0.990  0.00  0.00    +0.000 A 
ATOM      2  N   UNL     1       3.468   0.664   2.106  0.00  0.00    +0.000 NA
ATOM      3  C   UNL     1       3.785   1.494   3.111  0.00  0.00    +0.000 A 
ATOM      4  N   UNL     1       3.536   2.802   3.110  0.00  0.00    +0.000 NA
ATOM      5  C   UNL     1       2.929   3.271   1.995  0.00  0.00    +0.000 A 
ATOM      6  C   UNL     1       2.528   2.509   0.905  0.00  0.00    +0.000 A 
ENDROOT
BRANCH   6   7
ATOM      7  C   UNL     1       1.859   3.205  -0.230  0.00  0.00    +0.000 C 
ATOM      8  N   UNL     1       1.072   4.294   0.047  0.00  0.00    +0.000 N 
ATOM      9  O   UNL     1       1.977   2.873  -1.397  0.00  0.00    +0.000 OA
ATOM     10  H   UNL     1       0.821   4.628   0.964  0.00  0.00    +0.000 HD
ATOM     11  H   UNL     1       0.590   4.697  -0.750  0.00  0.00    +0.000 HD
ENDBRANCH   6   7
BRANCH   1  13
ATOM     12  C   UNL     1       2.830  -1.350   0.508  0.00  0.00    +0.000 C 
ATOM     13  C   UNL     1       2.467   0.064  -0.046  0.00  0.00    +0.000 C 
ATOM     14  C   UNL     1       3.277   0.181  -1.351  0.00  0.00    +0.000 C 
ATOM     15  C   UNL     1       0.958   0.071  -0.372  0.00  0.00    +0.000 C 
ENDBRANCH   1  13
BRANCH   3  16
ATOM     16  O   UNL     1       4.382   0.892   4.203  0.00  0.00    +0.000 OA
BRANCH  16  17
ATOM     17  C   UNL     1       4.713   1.811   5.246  0.00  0.00    +0.000 C 
BRANCH  17  18
ATOM     18  C   UNL     1       5.365   1.108   6.427  0.00  0.00    +0.000 A 
ATOM     19  C   UNL     1       6.296   1.794   7.225  0.00  0.00    +0.000 A 
ATOM     20  C   UNL     1       6.862   1.192   8.358  0.00  0.00    +0.000 A 
ATOM     21  C   UNL     1       6.503  -0.110   8.728  0.00  0.00    +0.000 A 
ATOM     22  C   UNL     1       5.568  -0.793   7.937  0.00  0.00    +0.000 A 
ATOM     23  C   UNL     1       5.001  -0.190   6.807  0.00  0.00    +0.000 A 
BRANCH  21  24
ATOM     24  C   UNL     1       7.128  -0.781   9.928  0.00  0.00    +0.000 C 
BRANCH  24  25
ATOM     25  N   UNL     1       6.130  -1.189  10.912  0.00  0.00    +0.000 NA
ATOM     26  H   UNL     1       5.649  -0.359  11.255  0.00  0.00    +0.000 HD
ATOM     27  H   UNL     1       6.600  -1.604  11.713  0.00  0.00    +0.000 HD
ENDBRANCH  24  25
ENDBRANCH  21  24
ENDBRANCH  17  18
ENDBRANCH  16  17
ENDBRANCH   3  16
TORSDOF 7
