REMARK  Name = 
REMARK  8 active torsions:
REMARK  status: ('A' for Active; 'I' for Inactive)
REMARK    1  A    between atoms: C_1  and  C_2
REMARK    2  A    between atoms: C_2  and  C_3
REMARK    3  A    between atoms: C_2  and  C_4
REMARK    4  A    between atoms: C_2  and  C_5
REMARK    5  A    between atoms: C_7  and  C_8
REMARK    6  A    between atoms: C_13  and  N_14
REMARK    7  A    between atoms: N_14  and  C_15
REMARK    8  A    between atoms: C_15  and  C_16
REMARK                            x       y       z     vdW  Elec       q    Type
REMARK                         _______ _______ _______ _____ _____    ______ ____
ROOT
ATOM      1  C   UNL     1       2.876   0.398  -1.266  0.00  0.00    +0.000 A 
ATOM      2  N   UNL     1       3.455  -0.415  -2.208  0.00  0.00    +0.000 NA
ATOM      3  C   UNL     1       3.827   0.123  -3.389  0.00  0.00    +0.000 A 
ATOM      4  N   UNL     1       3.700   1.407  -3.721  0.00  0.00    +0.000 NA
ATOM      5  C   UNL     1       3.115   2.174  -2.781  0.00  0.00    +0.000 A 
ATOM      6  C   UNL     1       2.613   1.751  -1.541  0.00  0.00    +0.000 A 
ENDROOT
BRANCH   3   7
ATOM      7  C   UNL     1       4.424  -0.817  -4.418  0.00  0.00    +0.000 C 
ATOM      8  N   UNL     1       4.550  -2.129  -4.029  0.00  0.00    +0.000 N 
ATOM      9  O   UNL     1       4.776  -0.467  -5.536  0.00  0.00    +0.000 OA
ATOM     10  H   UNL     1       4.257  -2.422  -3.103  0.00  0.00    +0.000 HD
ATOM     11  H   UNL     1       4.937  -2.795  -4.679  0.00  0.00    +0.000 HD
ENDBRANCH   3   7
BRANCH   1  13
ATOM     12  C   UNL     1       3.882  -1.060   0.506  0.00  0.00    +0.000 C 
ATOM     13  C   UNL     1       2.569  -0.369   0.036  0.00  0.00    +0.000 C 
ATOM     14  C   UNL     1       1.502  -1.450  -0.285  0.00  0.00    +0.000 C 
ATOM     15  C   UNL     1       2.077   0.420   1.267  0.00  0.00    +0.000 C 
ENDBRANCH   1  13
BRANCH   6  16
ATOM     16  N   UNL     1       1.984   2.641  -0.650  0.00  0.00    +0.000 N 
ATOM     17  H   UNL     1       1.169   2.200  -0.234  0.00  0.00    +0.000 HD
BRANCH  16  18
ATOM     18  C   UNL     1       1.684   3.998  -1.114  0.00  0.00    +0.000 C 
BRANCH  18  19
ATOM     19  C   UNL     1       0.903   4.846  -0.102  0.00  0.00    +0.000 C 
ATOM     20  C   UNL     1       1.627   5.046   1.234  0.00  0.00    +0.000 C 
ATOM     21  C   UNL     1       0.785   5.929   2.153  0.00  0.00    +0.000 C 
ATOM     22  O   UNL     1      -0.517   5.372   2.338  0.00  0.00    +0.000 OA
ATOM     23  C   UNL     1      -1.243   5.268   1.114  0.00  0.00    +0.000 C 
ATOM     24  C   UNL     1      -0.523   4.337   0.145  0.00  0.00    +0.000 C 
ENDBRANCH  18  19
ENDBRANCH  16  18
ENDBRANCH   6  16
TORSDOF 5
