REMARK  Name = 
REMARK  7 active torsions:
REMARK  status: ('A' for Active; 'I' for Inactive)
REMARK    1  A    between atoms: C_1  and  C_2
REMARK    2  A    between atoms: C_2  and  N_3
REMARK    3  A    between atoms: N_3  and  C_4
REMARK    4  A    between atoms: C_8  and  C_9
REMARK    5  A    between atoms: C_10  and  N_11
REMARK    6  A    between atoms: N_11  and  C_12
REMARK    7  A    between atoms: C_15  and  C_16
REMARK                            x       y       z     vdW  Elec       q    Type
REMARK                         _______ _______ _______ _____ _____    ______ ____
ROOT
ATOM      1  C   UNL     1       5.451  -1.708   5.030  0.00  0.00    +0.000 C 
ATOM      2  C   UNL     1       6.388  -1.548   5.977  0.00  0.00    +0.000 C 
ENDROOT
BRANCH   1   7
ATOM      3  C   UNL     1       3.641   0.366   2.441  0.00  0.00    +0.000 A 
ATOM      4  C   UNL     1       4.704   1.028   1.827  0.00  0.00    +0.000 A 
ATOM      5  C   UNL     1       6.016   0.835   2.274  0.00  0.00    +0.000 A 
ATOM      6  C   UNL     1       6.283  -0.055   3.316  0.00  0.00    +0.000 A 
ATOM      7  C   UNL     1       5.240  -0.752   3.933  0.00  0.00    +0.000 A 
ATOM      8  C   UNL     1       3.934  -0.549   3.469  0.00  0.00    +0.000 A 
BRANCH   3   9
ATOM      9  N   UNL     1       2.298   0.494   2.055  0.00  0.00    +0.000 N 
ATOM     10  H   UNL     1       1.660   0.513   2.844  0.00  0.00    +0.000 HD
BRANCH   9  12
ATOM     11  C   UNL     1       1.677   2.597   0.785  0.00  0.00    +0.000 C 
ATOM     12  C   UNL     1       1.813   1.103   0.820  0.00  0.00    +0.000 C 
ATOM     13  C   UNL     1       1.752   0.308  -0.468  0.00  0.00    +0.000 C 
ATOM     14  O   UNL     1       0.601   0.469   0.362  0.00  0.00    +0.000 OA
ENDBRANCH   9  12
ENDBRANCH   3   9
ENDBRANCH   1   7
BRANCH   2  15
ATOM     15  N   UNL     1       6.653  -2.378   7.032  0.00  0.00    +0.000 N 
ATOM     16  H   UNL     1       6.125  -3.242   7.071  0.00  0.00    +0.000 HD
BRANCH  15  17
ATOM     17  C   UNL     1       7.634  -2.192   8.021  0.00  0.00    +0.000 A 
ATOM     18  C   UNL     1       8.142  -0.927   8.351  0.00  0.00    +0.000 A 
ATOM     19  C   UNL     1       9.199  -0.784   9.254  0.00  0.00    +0.000 A 
ATOM     20  C   UNL     1       9.788  -1.911   9.842  0.00  0.00    +0.000 A 
ATOM     21  C   UNL     1       9.280  -3.169   9.520  0.00  0.00    +0.000 A 
ATOM     22  F   UNL     1       9.813  -4.284  10.042  0.00  0.00    +0.000 F 
ATOM     23  C   UNL     1       8.216  -3.314   8.624  0.00  0.00    +0.000 A 
BRANCH  20  24
ATOM     24  C   UNL     1      10.935  -1.704  10.759  0.00  0.00    +0.000 C 
ATOM     25  N   UNL     1      11.534  -2.799  11.309  0.00  0.00    +0.000 N 
ATOM     26  O   UNL     1      11.347  -0.576  11.020  0.00  0.00    +0.000 OA
ATOM     27  H   UNL     1      11.235  -3.749  11.116  0.00  0.00    +0.000 HD
ATOM     28  H   UNL     1      12.318  -2.651  11.930  0.00  0.00    +0.000 HD
ENDBRANCH  20  24
ENDBRANCH  15  17
ENDBRANCH   2  15
TORSDOF 6
