REMARK  Name = 
REMARK  5 active torsions:
REMARK  status: ('A' for Active; 'I' for Inactive)
REMARK    1  A    between atoms: N_1  and  C_2
REMARK    2  A    between atoms: C_2  and  C_3
REMARK    3  A    between atoms: C_3  and  C_4
REMARK    4  A    between atoms: C_7  and  C_8
REMARK    5  A    between atoms: C_8  and  N_9
REMARK                            x       y       z     vdW  Elec       q    Type
REMARK                         _______ _______ _______ _____ _____    ______ ____
ROOT
ATOM      1  C   UNL     1       4.390   1.105  -0.875  0.00  0.00    +0.000 A 
ATOM      2  C   UNL     1       5.086   0.035  -0.299  0.00  0.00    +0.000 A 
ATOM      3  C   UNL     1       6.482  -0.025  -0.365  0.00  0.00    +0.000 A 
ATOM      4  C   UNL     1       7.214   0.986  -1.003  0.00  0.00    +0.000 A 
ATOM      5  C   UNL     1       6.516   2.069  -1.555  0.00  0.00    +0.000 A 
ATOM      6  C   UNL     1       5.120   2.131  -1.487  0.00  0.00    +0.000 A 
ENDROOT
BRANCH   1   7
ATOM      7  C   UNL     1       2.880   1.145  -0.856  0.00  0.00    +0.000 C 
BRANCH   7   8
ATOM      8  C   UNL     1       2.316   1.851   0.381  0.00  0.00    +0.000 C 
BRANCH   8   9
ATOM      9  N   UNL     1       0.853   1.881   0.345  0.00  0.00    +0.000 NA
ATOM     10  H   UNL     1       0.503   2.357   1.176  0.00  0.00    +0.000 HD
ATOM     11  H   UNL     1       0.488   0.929   0.389  0.00  0.00    +0.000 HD
ENDBRANCH   8   9
ENDBRANCH   7   8
ENDBRANCH   1   7
BRANCH   4  12
ATOM     12  C   UNL     1       8.718   0.921  -1.084  0.00  0.00    +0.000 C 
BRANCH  12  13
ATOM     13  N   UNL     1       9.200   0.238  -2.282  0.00  0.00    +0.000 N 
ATOM     14  C   UNL     1       9.431   0.865  -3.485  0.00  0.00    +0.000 A 
ATOM     15  C   UNL     1      10.064  -0.028  -4.321  0.00  0.00    +0.000 A 
ATOM     16  C   UNL     1      10.229  -1.246  -3.606  0.00  0.00    +0.000 A 
ATOM     17  C   UNL     1      10.819  -2.480  -3.916  0.00  0.00    +0.000 A 
ATOM     18  N   UNL     1      10.835  -3.485  -3.007  0.00  0.00    +0.000 NA
ATOM     19  C   UNL     1      10.262  -3.278  -1.803  0.00  0.00    +0.000 A 
ATOM     20  C   UNL     1       9.655  -2.098  -1.400  0.00  0.00    +0.000 A 
ATOM     21  C   UNL     1       9.663  -1.065  -2.339  0.00  0.00    +0.000 A 
ENDBRANCH  12  13
ENDBRANCH   4  12
TORSDOF 5
