REMARK  Name = 
REMARK  5 active torsions:
REMARK  status: ('A' for Active; 'I' for Inactive)
REMARK    1  A    between atoms: C_1  and  N_2
REMARK    2  A    between atoms: C_8  and  C_9
REMARK    3  A    between atoms: C_9  and  C_10
REMARK    4  A    between atoms: C_10  and  N_11
REMARK    5  A    between atoms: C_15  and  C_16
REMARK                            x       y       z     vdW  Elec       q    Type
REMARK                         _______ _______ _______ _____ _____    ______ ____
ROOT
ATOM      1  C   UNL     1      -4.719  -1.390   3.986  0.00  0.00    +0.000 C 
ENDROOT
BRANCH   1   9
ATOM      2  C   UNL     1       2.088  -1.091  -1.045  0.00  0.00    +0.000 C 
ATOM      3  N   UNL     1       0.937  -0.252  -0.717  0.00  0.00    +0.000 NA
ATOM      4  C   UNL     1      -0.256  -0.680  -1.496  0.00  0.00    +0.000 C 
ATOM      5  C   UNL     1      -1.555   0.074  -1.097  0.00  0.00    +0.000 C 
ATOM      6  N   UNL     1      -1.742  -0.123   0.341  0.00  0.00    +0.000 N 
ATOM      7  C   UNL     1      -3.015  -0.037   0.871  0.00  0.00    +0.000 A 
ATOM      8  C   UNL     1      -3.259  -0.669   2.095  0.00  0.00    +0.000 A 
ATOM      9  C   UNL     1      -4.533  -0.679   2.663  0.00  0.00    +0.000 A 
ATOM     10  C   UNL     1      -5.547  -0.035   1.957  0.00  0.00    +0.000 A 
ATOM     11  C   UNL     1      -5.237   0.563   0.744  0.00  0.00    +0.000 A 
ATOM     12  N   UNL     1      -4.005   0.565   0.189  0.00  0.00    +0.000 NA
ATOM     13  C   UNL     1      -0.635   0.424   1.133  0.00  0.00    +0.000 C 
ATOM     14  C   UNL     1       0.650  -0.331   0.736  0.00  0.00    +0.000 C 
ENDBRANCH   1   9
BRANCH   1  15
ATOM     15  C   UNL     1      -6.134  -1.315   4.550  0.00  0.00    +0.000 C 
BRANCH  15  16
ATOM     16  N   UNL     1      -6.248  -1.981   5.849  0.00  0.00    +0.000 N 
ATOM     17  C   UNL     1      -7.555  -1.866   6.367  0.00  0.00    +0.000 A 
ATOM     18  C   UNL     1      -7.843  -2.430   7.602  0.00  0.00    +0.000 A 
ATOM     19  C   UNL     1      -9.140  -2.320   8.121  0.00  0.00    +0.000 A 
ATOM     20  C   UNL     1     -10.123  -1.651   7.389  0.00  0.00    +0.000 A 
ATOM     21  C   UNL     1      -9.752  -1.135   6.163  0.00  0.00    +0.000 A 
ATOM     22  N   UNL     1      -8.507  -1.236   5.645  0.00  0.00    +0.000 NA
ATOM     23  H   UNL     1      -5.598  -1.607   6.536  0.00  0.00    +0.000 HD
BRANCH  20  24
ATOM     24  C   UNL     1     -11.487  -1.517   7.944  0.00  0.00    +0.000 C 
ATOM     25  N   UNL     1     -12.437  -0.840   7.232  0.00  0.00    +0.000 N 
ATOM     26  O   UNL     1     -11.773  -2.000   9.035  0.00  0.00    +0.000 OA
ATOM     27  H   UNL     1     -12.310  -0.394   6.338  0.00  0.00    +0.000 HD
ATOM     28  H   UNL     1     -13.353  -0.769   7.657  0.00  0.00    +0.000 HD
ENDBRANCH  20  24
ENDBRANCH  15  16
ENDBRANCH   1  15
TORSDOF 4
