REMARK  Name = 
REMARK  7 active torsions:
REMARK  status: ('A' for Active; 'I' for Inactive)
REMARK    1  A    between atoms: C_1  and  O_2
REMARK    2  A    between atoms: O_2  and  C_3
REMARK    3  A    between atoms: C_6  and  C_7
REMARK    4  A    between atoms: C_11  and  C_12
REMARK    5  A    between atoms: C_12  and  N_13
REMARK    6  A    between atoms: N_13  and  C_14
REMARK    7  A    between atoms: C_17  and  C_18
REMARK                            x       y       z     vdW  Elec       q    Type
REMARK                         _______ _______ _______ _____ _____    ______ ____
ROOT
ATOM      1  C   UNL     1       5.806  -7.493  -2.283  0.00  0.00    +0.000 C 
ATOM      2  C   UNL     1       5.063  -8.601  -2.996  0.00  0.00    +0.000 C 
ATOM      3  C   UNL     1       4.492  -8.069  -1.728  0.00  0.00    +0.000 C 
ENDROOT
BRANCH   1   8
ATOM      4  C   UNL     1       5.135  -3.762  -2.947  0.00  0.00    +0.000 A 
ATOM      5  C   UNL     1       5.829  -3.567  -4.146  0.00  0.00    +0.000 A 
ATOM      6  C   UNL     1       6.491  -4.629  -4.762  0.00  0.00    +0.000 A 
ATOM      7  C   UNL     1       6.472  -5.899  -4.181  0.00  0.00    +0.000 A 
ATOM      8  C   UNL     1       5.806  -6.136  -2.970  0.00  0.00    +0.000 A 
ATOM      9  C   UNL     1       5.152  -5.049  -2.383  0.00  0.00    +0.000 A 
BRANCH   4  13
ATOM     10  C   UNL     1       2.851  -0.802  -0.979  0.00  0.00    +0.000 A 
ATOM     11  C   UNL     1       3.984  -0.388  -1.660  0.00  0.00    +0.000 A 
ATOM     12  C   UNL     1       4.757  -1.345  -2.319  0.00  0.00    +0.000 A 
ATOM     13  C   UNL     1       4.380  -2.691  -2.283  0.00  0.00    +0.000 A 
ATOM     14  C   UNL     1       3.222  -2.984  -1.564  0.00  0.00    +0.000 A 
ATOM     15  N   UNL     1       2.458  -2.085  -0.927  0.00  0.00    +0.000 NA
BRANCH  10  17
ATOM     16  C   UNL     1       0.953  -0.489   0.319  0.00  0.00    +0.000 C 
ATOM     17  O   UNL     1       2.090   0.124  -0.302  0.00  0.00    +0.000 OA
ENDBRANCH  10  17
ENDBRANCH   4  13
ENDBRANCH   1   8
BRANCH   1  18
ATOM     18  N   UNL     1       6.884  -7.645  -1.302  0.00  0.00    +0.000 N 
ATOM     19  H   UNL     1       6.802  -7.046  -0.484  0.00  0.00    +0.000 HD
BRANCH  18  20
ATOM     20  C   UNL     1       8.198  -8.080  -1.509  0.00  0.00    +0.000 A 
ATOM     21  C   UNL     1       8.704  -8.606  -2.699  0.00  0.00    +0.000 A 
ATOM     22  C   UNL     1      10.004  -9.134  -2.720  0.00  0.00    +0.000 A 
ATOM     23  C   UNL     1      10.756  -9.128  -1.549  0.00  0.00    +0.000 A 
ATOM     24  N   UNL     1      10.301  -8.619  -0.375  0.00  0.00    +0.000 NA
ATOM     25  C   UNL     1       9.050  -8.123  -0.397  0.00  0.00    +0.000 A 
BRANCH  23  26
ATOM     26  C   UNL     1      12.124  -9.701  -1.523  0.00  0.00    +0.000 C 
ATOM     27  N   UNL     1      12.777  -9.650  -0.320  0.00  0.00    +0.000 N 
ATOM     28  O   UNL     1      12.652 -10.199  -2.497  0.00  0.00    +0.000 OA
ATOM     29  H   UNL     1      12.290  -9.235   0.476  0.00  0.00    +0.000 HD
ATOM     30  H   UNL     1      13.699 -10.035  -0.225  0.00  0.00    +0.000 HD
ENDBRANCH  23  26
ENDBRANCH  18  20
ENDBRANCH   1  18
TORSDOF 6
