REMARK  Name = 
REMARK  8 active torsions:
REMARK  status: ('A' for Active; 'I' for Inactive)
REMARK    1  A    between atoms: C_1  and  O_2
REMARK    2  A    between atoms: O_2  and  C_3
REMARK    3  A    between atoms: C_8  and  C_9
REMARK    4  A    between atoms: N_11  and  C_12
REMARK    5  A    between atoms: C_12  and  C_13
REMARK    6  A    between atoms: C_16  and  C_17
REMARK    7  A    between atoms: C_17  and  N_18
REMARK    8  A    between atoms: C_19  and  C_21
REMARK                            x       y       z     vdW  Elec       q    Type
REMARK                         _______ _______ _______ _____ _____    ______ ____
ROOT
ATOM      1  C   UNL     1       3.205  -4.265   0.622  0.00  0.00    +0.000 C 
ATOM      2  C   UNL     1       3.256  -3.462   1.929  0.00  0.00    +0.000 C 
ATOM      3  C   UNL     1       2.444  -4.113   3.046  0.00  0.00    +0.000 C 
ATOM      4  C   UNL     1       2.892  -5.557   3.317  0.00  0.00    +0.000 C 
ATOM      5  C   UNL     1       2.820  -6.376   2.017  0.00  0.00    +0.000 C 
ATOM      6  C   UNL     1       3.615  -5.727   0.879  0.00  0.00    +0.000 C 
ENDROOT
BRANCH   1   7
ATOM      7  C   UNL     1       4.119  -3.640  -0.453  0.00  0.00    +0.000 C 
BRANCH   7  10
ATOM      8  C   UNL     1       2.853  -1.957  -1.767  0.00  0.00    +0.000 C 
ATOM      9  O   UNL     1       2.301  -2.817  -2.450  0.00  0.00    +0.000 OA
ATOM     10  N   UNL     1       3.764  -2.274  -0.789  0.00  0.00    +0.000 N 
ATOM     11  H   UNL     1       4.218  -1.510  -0.298  0.00  0.00    +0.000 HD
BRANCH   8  17
ATOM     12  C   UNL     1       3.023   0.560  -1.193  0.00  0.00    +0.000 A 
ATOM     13  C   UNL     1       2.525   1.857  -1.405  0.00  0.00    +0.000 A 
ATOM     14  C   UNL     1       1.536   2.104  -2.354  0.00  0.00    +0.000 A 
ATOM     15  C   UNL     1       1.060   1.066  -3.142  0.00  0.00    +0.000 A 
ATOM     16  C   UNL     1       1.549  -0.227  -2.953  0.00  0.00    +0.000 A 
ATOM     17  C   UNL     1       2.511  -0.505  -1.962  0.00  0.00    +0.000 A 
BRANCH  12  19
ATOM     18  C   UNL     1       4.140   1.207   0.803  0.00  0.00    +0.000 C 
ATOM     19  O   UNL     1       4.035   0.307  -0.297  0.00  0.00    +0.000 OA
ENDBRANCH  12  19
ENDBRANCH   8  17
ENDBRANCH   7  10
ENDBRANCH   1   7
BRANCH   4  20
ATOM     20  C   UNL     1       2.039  -6.215   4.419  0.00  0.00    +0.000 C 
BRANCH  20  21
ATOM     21  N   UNL     1       2.118  -5.519   5.690  0.00  0.00    +0.000 N 
ATOM     22  C   UNL     1       3.094  -5.793   6.614  0.00  0.00    +0.000 C 
ATOM     23  O   UNL     1       3.962  -6.645   6.416  0.00  0.00    +0.000 OA
ATOM     24  H   UNL     1       1.311  -4.972   5.977  0.00  0.00    +0.000 HD
BRANCH  22  25
ATOM     25  C   UNL     1       3.101  -4.984   7.835  0.00  0.00    +0.000 A 
ATOM     26  C   UNL     1       4.294  -4.762   8.509  0.00  0.00    +0.000 A 
ATOM     27  S   UNL     1       4.118  -3.807   9.910  0.00  0.00    +0.000 S 
ATOM     28  C   UNL     1       2.436  -3.685   9.682  0.00  0.00    +0.000 A 
ATOM     29  N   UNL     1       1.655  -3.011  10.569  0.00  0.00    +0.000 NA
ATOM     30  C   UNL     1       0.397  -3.012  10.278  0.00  0.00    +0.000 A 
ATOM     31  N   UNL     1      -0.150  -3.618   9.174  0.00  0.00    +0.000 N 
ATOM     32  C   UNL     1       0.598  -4.303   8.250  0.00  0.00    +0.000 A 
ATOM     33  O   UNL     1       0.086  -4.811   7.258  0.00  0.00    +0.000 OA
ATOM     34  C   UNL     1       2.021  -4.342   8.537  0.00  0.00    +0.000 A 
ATOM     35  H   UNL     1      -1.142  -3.571   8.997  0.00  0.00    +0.000 HD
ENDBRANCH  22  25
ENDBRANCH  20  21
ENDBRANCH   4  20
TORSDOF 7
