REMARK  Name = 
REMARK  7 active torsions:
REMARK  status: ('A' for Active; 'I' for Inactive)
REMARK    1  A    between atoms: C_1  and  C_2
REMARK    2  A    between atoms: C_2  and  N_3
REMARK    3  A    between atoms: C_2  and  C_16
REMARK    4  A    between atoms: C_4  and  C_6
REMARK    5  A    between atoms: C_19  and  O_20
REMARK    6  A    between atoms: O_20  and  C_21
REMARK    7  A    between atoms: C_21  and  C_22
REMARK                            x       y       z     vdW  Elec       q    Type
REMARK                         _______ _______ _______ _____ _____    ______ ____
ROOT
ATOM      1  C   UNL     1       3.572  -0.849   0.304  0.00  0.00    +0.000 C 
ATOM      2  C   UNL     1       2.459   0.147  -0.031  0.00  0.00    +0.000 C 
ENDROOT
BRANCH   2   3
ATOM      3  C   UNL     1       2.958   1.466  -0.593  0.00  0.00    +0.000 A 
ATOM      4  C   UNL     1       2.210   2.622  -0.332  0.00  0.00    +0.000 A 
ATOM      5  C   UNL     1       2.617   3.869  -0.807  0.00  0.00    +0.000 A 
ATOM      6  C   UNL     1       3.788   3.986  -1.555  0.00  0.00    +0.000 A 
ATOM      7  C   UNL     1       4.515   2.839  -1.867  0.00  0.00    +0.000 A 
ATOM      8  C   UNL     1       4.105   1.587  -1.392  0.00  0.00    +0.000 A 
BRANCH   6   9
ATOM      9  O   UNL     1       4.275   5.164  -2.057  0.00  0.00    +0.000 OA
BRANCH   9  10
ATOM     10  C   UNL     1       3.963   6.319  -1.267  0.00  0.00    +0.000 C 
BRANCH  10  11
ATOM     11  C   UNL     1       4.571   7.581  -1.833  0.00  0.00    +0.000 A 
ATOM     12  C   UNL     1       5.742   7.559  -2.585  0.00  0.00    +0.000 A 
ATOM     13  C   UNL     1       6.270   8.763  -3.045  0.00  0.00    +0.000 A 
ATOM     14  C   UNL     1       5.624   9.954  -2.735  0.00  0.00    +0.000 A 
ATOM     15  C   UNL     1       4.472   9.893  -1.974  0.00  0.00    +0.000 A 
ATOM     16  N   UNL     1       3.938   8.743  -1.514  0.00  0.00    +0.000 NA
ENDBRANCH  10  11
ENDBRANCH   9  10
ENDBRANCH   6   9
ENDBRANCH   2   3
BRANCH   2  17
ATOM     17  N   UNL     1       1.524  -0.460  -0.953  0.00  0.00    +0.000 N 
ATOM     18  C   UNL     1       0.166  -0.285  -0.900  0.00  0.00    +0.000 C 
ATOM     19  O   UNL     1      -0.387   0.458  -0.098  0.00  0.00    +0.000 OA
ATOM     20  H   UNL     1       1.914  -1.104  -1.627  0.00  0.00    +0.000 HD
BRANCH  18  21
ATOM     21  C   UNL     1      -0.593  -1.036  -1.905  0.00  0.00    +0.000 A 
ATOM     22  C   UNL     1      -1.810  -0.560  -2.374  0.00  0.00    +0.000 A 
ATOM     23  S   UNL     1      -2.524  -1.573  -3.548  0.00  0.00    +0.000 S 
ATOM     24  C   UNL     1      -1.260  -2.707  -3.424  0.00  0.00    +0.000 A 
ATOM     25  N   UNL     1      -1.272  -3.857  -4.152  0.00  0.00    +0.000 NA
ATOM     26  C   UNL     1      -0.273  -4.644  -3.918  0.00  0.00    +0.000 A 
ATOM     27  N   UNL     1       0.738  -4.383  -3.034  0.00  0.00    +0.000 N 
ATOM     28  C   UNL     1       0.832  -3.206  -2.334  0.00  0.00    +0.000 A 
ATOM     29  O   UNL     1       1.820  -2.955  -1.657  0.00  0.00    +0.000 OA
ATOM     30  C   UNL     1      -0.291  -2.304  -2.524  0.00  0.00    +0.000 A 
ATOM     31  H   UNL     1       1.510  -5.025  -2.922  0.00  0.00    +0.000 HD
ENDBRANCH  18  21
ENDBRANCH   2  17
TORSDOF 6
