REMARK  Name = 
REMARK  6 active torsions:
REMARK  status: ('A' for Active; 'I' for Inactive)
REMARK    1  A    between atoms: C_1  and  C_2
REMARK    2  A    between atoms: C_6  and  C_7
REMARK    3  A    between atoms: C_7  and  C_8
REMARK    4  A    between atoms: C_11  and  C_12
REMARK    5  A    between atoms: C_12  and  N_13
REMARK    6  A    between atoms: C_14  and  C_16
REMARK                            x       y       z     vdW  Elec       q    Type
REMARK                         _______ _______ _______ _____ _____    ______ ____
ROOT
ATOM      1  C   UNL     1      -7.501  -1.451   0.004  0.00  0.00    +0.000 C 
ENDROOT
BRANCH   1   5
ATOM      2  C   UNL     1      -3.346  -2.261  -0.052  0.00  0.00    +0.000 A 
ATOM      3  C   UNL     1      -3.895  -1.596  -1.141  0.00  0.00    +0.000 A 
ATOM      4  C   UNL     1      -5.257  -1.317  -1.138  0.00  0.00    +0.000 A 
ATOM      5  C   UNL     1      -6.025  -1.736  -0.062  0.00  0.00    +0.000 A 
ATOM      6  N   UNL     1      -5.466  -2.396   0.978  0.00  0.00    +0.000 NA
ATOM      7  N   UNL     1      -4.121  -2.659   0.983  0.00  0.00    +0.000 NA
BRANCH   2   8
ATOM      8  C   UNL     1      -1.863  -2.512   0.050  0.00  0.00    +0.000 C 
BRANCH   8  14
ATOM      9  C   UNL     1      -1.727  -7.543  -0.253  0.00  0.00    +0.000 C 
ATOM     10  C   UNL     1      -1.284  -6.206  -0.768  0.00  0.00    +0.000 A 
ATOM     11  C   UNL     1      -0.378  -6.107  -1.828  0.00  0.00    +0.000 A 
ATOM     12  C   UNL     1       0.035  -4.857  -2.286  0.00  0.00    +0.000 A 
ATOM     13  C   UNL     1      -0.454  -3.693  -1.691  0.00  0.00    +0.000 A 
ATOM     14  C   UNL     1      -1.369  -3.766  -0.631  0.00  0.00    +0.000 A 
ATOM     15  C   UNL     1      -1.775  -5.033  -0.177  0.00  0.00    +0.000 A 
ENDBRANCH   8  14
ENDBRANCH   2   8
ENDBRANCH   1   5
BRANCH   1  16
ATOM     16  N   UNL     1      -7.803  -0.215   0.694  0.00  0.00    +0.000 N 
ATOM     17  C   UNL     1      -8.007   0.972   0.041  0.00  0.00    +0.000 C 
ATOM     18  O   UNL     1      -7.938   1.061  -1.182  0.00  0.00    +0.000 OA
ATOM     19  H   UNL     1      -7.650  -0.217   1.698  0.00  0.00    +0.000 HD
BRANCH  17  20
ATOM     20  C   UNL     1      -8.388   2.122   0.874  0.00  0.00    +0.000 A 
ATOM     21  C   UNL     1      -9.072   3.188   0.306  0.00  0.00    +0.000 A 
ATOM     22  S   UNL     1      -9.487   4.410   1.422  0.00  0.00    +0.000 S 
ATOM     23  C   UNL     1      -8.728   3.580   2.697  0.00  0.00    +0.000 A 
ATOM     24  N   UNL     1      -8.703   4.100   3.954  0.00  0.00    +0.000 NA
ATOM     25  C   UNL     1      -8.065   3.381   4.816  0.00  0.00    +0.000 A 
ATOM     26  N   UNL     1      -7.452   2.187   4.536  0.00  0.00    +0.000 N 
ATOM     27  C   UNL     1      -7.498   1.599   3.295  0.00  0.00    +0.000 A 
ATOM     28  O   UNL     1      -7.020   0.487   3.098  0.00  0.00    +0.000 OA
ATOM     29  C   UNL     1      -8.181   2.379   2.281  0.00  0.00    +0.000 A 
ATOM     30  H   UNL     1      -6.981   1.663   5.259  0.00  0.00    +0.000 HD
ENDBRANCH  17  20
ENDBRANCH   1  16
TORSDOF 5
