REMARK  Name = 
REMARK  11 active torsions:
REMARK  status: ('A' for Active; 'I' for Inactive)
REMARK    1  A    between atoms: C_1  and  C_2
REMARK    2  A    between atoms: C_4  and  C_5
REMARK    3  A    between atoms: C_5  and  O_7
REMARK    4  A    between atoms: C_10  and  C_11
REMARK    5  A    between atoms: C_11  and  C_12
REMARK    6  A    between atoms: C_11  and  C_13
REMARK    7  A    between atoms: C_11  and  C_14
REMARK    8  A    between atoms: N_15  and  C_16
REMARK    9  A    between atoms: C_16  and  C_17
REMARK   10  A    between atoms: C_20  and  C_21
REMARK   11  A    between atoms: C_21  and  N_22
REMARK                            x       y       z     vdW  Elec       q    Type
REMARK                         _______ _______ _______ _____ _____    ______ ____
ROOT
ATOM      1  C   UNL     1       1.101  -0.328  -0.051  0.00  0.00    +0.000 C 
ATOM      2  C   UNL     1       2.603  -0.213  -0.040  0.00  0.00    +0.000 A 
ATOM      3  C   UNL     1       3.183   1.054  -0.101  0.00  0.00    +0.000 A 
ATOM      4  C   UNL     1       4.571   1.168  -0.131  0.00  0.00    +0.000 A 
ATOM      5  C   UNL     1       5.308  -0.015  -0.103  0.00  0.00    +0.000 A 
ATOM      6  N   UNL     1       6.656  -0.205  -0.165  0.00  0.00    +0.000 NA
ATOM      7  C   UNL     1       6.855  -1.513  -0.082  0.00  0.00    +0.000 A 
ATOM      8  N   UNL     1       5.633  -2.180   0.038  0.00  0.00    +0.000 N 
ATOM      9  C   UNL     1       4.638  -1.216  -0.010  0.00  0.00    +0.000 A 
ATOM     10  N   UNL     1       3.299  -1.387   0.015  0.00  0.00    +0.000 NA
ENDROOT
BRANCH   7  11
ATOM     11  C   UNL     1       8.265  -2.094  -0.042  0.00  0.00    +0.000 C 
ATOM     12  C   UNL     1       9.261  -0.913   0.131  0.00  0.00    +0.000 C 
ATOM     13  C   UNL     1       8.434  -3.044   1.150  0.00  0.00    +0.000 C 
ATOM     14  C   UNL     1       8.647  -2.800  -1.354  0.00  0.00    +0.000 C 
ENDBRANCH   7  11
BRANCH   4  15
ATOM     15  C   UNL     1       5.228   2.485  -0.184  0.00  0.00    +0.000 C 
ATOM     16  O   UNL     1       4.593   3.525  -0.198  0.00  0.00    +0.000 OA
BRANCH  15  17
ATOM     17  O   UNL     1       6.583   2.453  -0.207  0.00  0.00    +0.000 OA
ATOM     18  H   UNL     1       6.965   1.540  -0.198  0.00  0.00    +0.000 HD
ENDBRANCH  15  17
ENDBRANCH   4  15
BRANCH   8  19
ATOM     19  C   UNL     1       5.361  -3.608  -0.054  0.00  0.00    +0.000 C 
BRANCH  19  20
ATOM     20  C   UNL     1       5.131  -4.364   1.239  0.00  0.00    +0.000 A 
ATOM     21  C   UNL     1       4.073  -4.067   2.095  0.00  0.00    +0.000 A 
ATOM     22  C   UNL     1       3.678  -5.015   3.047  0.00  0.00    +0.000 A 
ATOM     23  C   UNL     1       4.342  -6.237   3.155  0.00  0.00    +0.000 A 
ATOM     24  C   UNL     1       5.441  -6.405   2.325  0.00  0.00    +0.000 A 
ATOM     25  N   UNL     1       5.848  -5.511   1.387  0.00  0.00    +0.000 NA
BRANCH  23  26
ATOM     26  C   UNL     1       3.821  -7.405   3.953  0.00  0.00    +0.000 C 
BRANCH  26  27
ATOM     27  N   UNL     1       2.997  -7.037   5.098  0.00  0.00    +0.000 NA
ATOM     28  H   UNL     1       3.600  -6.669   5.836  0.00  0.00    +0.000 HD
ATOM     29  H   UNL     1       2.567  -7.877   5.483  0.00  0.00    +0.000 HD
ENDBRANCH  26  27
ENDBRANCH  23  26
ENDBRANCH  19  20
ENDBRANCH   8  19
TORSDOF 7
