REMARK  Name = 
REMARK  11 active torsions:
REMARK  status: ('A' for Active; 'I' for Inactive)
REMARK    1  A    between atoms: C_1  and  C_2
REMARK    2  A    between atoms: C_3  and  O_4
REMARK    3  A    between atoms: O_4  and  C_5
REMARK    4  A    between atoms: C_9  and  C_10
REMARK    5  A    between atoms: C_11  and  C_12
REMARK    6  A    between atoms: C_15  and  C_16
REMARK    7  A    between atoms: C_24  and  O_26
REMARK    8  A    between atoms: O_26  and  C_27
REMARK    9  A    between atoms: C_27  and  C_28
REMARK   10  A    between atoms: C_27  and  C_29
REMARK   11  A    between atoms: C_27  and  C_30
REMARK                            x       y       z     vdW  Elec       q    Type
REMARK                         _______ _______ _______ _____ _____    ______ ____
ROOT
ATOM      1  C   UNL     1       2.876  -3.228  -0.201  0.00  0.00    +0.000 A 
ATOM      2  C   UNL     1       3.188  -3.959  -1.346  0.00  0.00    +0.000 A 
ATOM      3  C   UNL     1       2.343  -4.981  -1.771  0.00  0.00    +0.000 A 
ATOM      4  C   UNL     1       1.213  -5.309  -1.021  0.00  0.00    +0.000 A 
ATOM      5  C   UNL     1       0.928  -4.635   0.174  0.00  0.00    +0.000 A 
ATOM      6  C   UNL     1       1.769  -3.584   0.572  0.00  0.00    +0.000 A 
ENDROOT
BRANCH   5   7
ATOM      7  C   UNL     1      -0.141  -5.079   1.086  0.00  0.00    +0.000 C 
ATOM      8  C   UNL     1      -1.274  -5.689   0.696  0.00  0.00    +0.000 C 
BRANCH   8   9
ATOM      9  C   UNL     1      -2.294  -6.230   1.606  0.00  0.00    +0.000 A 
ATOM     10  C   UNL     1      -2.547  -5.708   2.876  0.00  0.00    +0.000 A 
ATOM     11  C   UNL     1      -3.552  -6.262   3.670  0.00  0.00    +0.000 A 
ATOM     12  C   UNL     1      -4.284  -7.324   3.165  0.00  0.00    +0.000 A 
ATOM     13  N   UNL     1      -4.083  -7.865   1.931  0.00  0.00    +0.000 NA
ATOM     14  C   UNL     1      -3.096  -7.298   1.189  0.00  0.00    +0.000 A 
BRANCH  12  15
ATOM     15  C   UNL     1      -5.376  -7.932   3.998  0.00  0.00    +0.000 C 
ATOM     16  N   UNL     1      -6.049  -8.967   3.411  0.00  0.00    +0.000 N 
ATOM     17  O   UNL     1      -5.655  -7.533   5.121  0.00  0.00    +0.000 OA
ATOM     18  H   UNL     1      -5.801  -9.264   2.477  0.00  0.00    +0.000 HD
ATOM     19  H   UNL     1      -6.810  -9.413   3.912  0.00  0.00    +0.000 HD
ENDBRANCH  12  15
ENDBRANCH   8   9
ENDBRANCH   5   7
BRANCH   1  20
ATOM     20  O   UNL     1       3.737  -2.202   0.104  0.00  0.00    +0.000 OA
BRANCH  20  23
ATOM     21  C   UNL     1       0.739  -0.232   0.562  0.00  0.00    +0.000 C 
ATOM     22  C   UNL     1       2.184  -0.141   0.116  0.00  0.00    +0.000 C 
ATOM     23  C   UNL     1       3.213  -1.068   0.835  0.00  0.00    +0.000 C 
ATOM     24  C   UNL     1       4.142   0.173   0.875  0.00  0.00    +0.000 C 
ATOM     25  N   UNL     1       2.936   0.952   0.719  0.00  0.00    +0.000 N 
ATOM     26  C   UNL     1       2.645   2.263   0.931  0.00  0.00    +0.000 C 
ATOM     27  O   UNL     1       1.539   2.740   0.716  0.00  0.00    +0.000 OA
BRANCH  26  28
ATOM     28  O   UNL     1       3.723   2.960   1.401  0.00  0.00    +0.000 OA
BRANCH  28  29
ATOM     29  C   UNL     1       3.604   4.392   1.634  0.00  0.00    +0.000 C 
ATOM     30  C   UNL     1       2.622   4.681   2.775  0.00  0.00    +0.000 C 
ATOM     31  C   UNL     1       4.998   4.904   2.049  0.00  0.00    +0.000 C 
ATOM     32  C   UNL     1       3.212   5.130   0.347  0.00  0.00    +0.000 C 
ENDBRANCH  28  29
ENDBRANCH  26  28
ENDBRANCH  20  23
ENDBRANCH   1  20
TORSDOF 7
