REMARK  Name = 
REMARK  7 active torsions:
REMARK  status: ('A' for Active; 'I' for Inactive)
REMARK    1  A    between atoms: N_1  and  C_2
REMARK    2  A    between atoms: C_2  and  C_3
REMARK    3  A    between atoms: C_3  and  C_4
REMARK    4  A    between atoms: C_7  and  C_8
REMARK    5  A    between atoms: C_8  and  N_9
REMARK    6  A    between atoms: C_15  and  C_16
REMARK    7  A    between atoms: C_16  and  O_18
REMARK                            x       y       z     vdW  Elec       q    Type
REMARK                         _______ _______ _______ _____ _____    ______ ____
ROOT
ATOM      1  N   UNL     1       9.761   1.456   0.603  0.00  0.00    +0.000 N 
ATOM      2  C   UNL     1      10.269   2.591   1.253  0.00  0.00    +0.000 A 
ATOM      3  C   UNL     1      11.102   3.171   0.309  0.00  0.00    +0.000 A 
ATOM      4  C   UNL     1      10.278   3.039  -0.845  0.00  0.00    +0.000 A 
ATOM      5  C   UNL     1       9.923   3.867  -1.917  0.00  0.00    +0.000 A 
ATOM      6  C   UNL     1       9.127   3.332  -2.940  0.00  0.00    +0.000 A 
ATOM      7  C   UNL     1       8.801   1.967  -2.967  0.00  0.00    +0.000 A 
ATOM      8  C   UNL     1       9.102   1.164  -1.860  0.00  0.00    +0.000 A 
ATOM      9  F   UNL     1       8.765  -0.133  -1.835  0.00  0.00    +0.000 F 
ATOM     10  C   UNL     1       9.716   1.762  -0.754  0.00  0.00    +0.000 A 
ENDROOT
BRANCH   7  11
ATOM     11  C   UNL     1       8.100   1.447  -4.166  0.00  0.00    +0.000 C 
ATOM     12  O   UNL     1       7.751   2.178  -5.102  0.00  0.00    +0.000 OA
BRANCH  11  13
ATOM     13  O   UNL     1       7.821   0.127  -4.164  0.00  0.00    +0.000 OA
ATOM     14  H   UNL     1       8.123  -0.347  -3.361  0.00  0.00    +0.000 HD
ENDBRANCH  11  13
ENDBRANCH   7  11
BRANCH   1  15
ATOM     15  C   UNL     1       8.927   0.479   1.310  0.00  0.00    +0.000 C 
BRANCH  15  19
ATOM     16  C   UNL     1       4.720   1.403   0.754  0.00  0.00    +0.000 A 
ATOM     17  C   UNL     1       5.325   0.356   0.047  0.00  0.00    +0.000 A 
ATOM     18  C   UNL     1       6.668   0.036   0.259  0.00  0.00    +0.000 A 
ATOM     19  C   UNL     1       7.449   0.764   1.167  0.00  0.00    +0.000 A 
ATOM     20  C   UNL     1       6.829   1.785   1.902  0.00  0.00    +0.000 A 
ATOM     21  C   UNL     1       5.482   2.099   1.699  0.00  0.00    +0.000 A 
BRANCH  16  22
ATOM     22  C   UNL     1       3.285   1.793   0.482  0.00  0.00    +0.000 C 
BRANCH  22  23
ATOM     23  C   UNL     1       2.263   1.016   1.320  0.00  0.00    +0.000 C 
BRANCH  23  24
ATOM     24  N   UNL     1       0.896   1.441   1.010  0.00  0.00    +0.000 NA
ATOM     25  H   UNL     1       0.237   0.919   1.587  0.00  0.00    +0.000 HD
ATOM     26  H   UNL     1       0.671   1.207   0.043  0.00  0.00    +0.000 HD
ENDBRANCH  23  24
ENDBRANCH  22  23
ENDBRANCH  16  22
ENDBRANCH  15  19
ENDBRANCH   1  15
TORSDOF 7
