REMARK  Name = 
REMARK  3 active torsions:
REMARK  status: ('A' for Active; 'I' for Inactive)
REMARK    1  A    between atoms: C_2  and  C_4
REMARK    2  A    between atoms: N_8  and  C_9
REMARK    3  A    between atoms: C_9  and  C_10
REMARK                            x       y       z     vdW  Elec       q    Type
REMARK                         _______ _______ _______ _____ _____    ______ ____
ROOT
ATOM      1  C   UNL     1       2.269   0.949  -1.557  0.00  0.00    +0.000 A 
ATOM      2  C   UNL     1       3.593   0.826  -1.140  0.00  0.00    +0.000 A 
ATOM      3  C   UNL     1       4.476   1.841  -1.457  0.00  0.00    +0.000 A 
ATOM      4  C   UNL     1       4.044   2.964  -2.163  0.00  0.00    +0.000 A 
ATOM      5  N   UNL     1       4.993   3.972  -2.341  0.00  0.00    +0.000 N 
ATOM      6  N   UNL     1       2.763   3.087  -2.588  0.00  0.00    +0.000 NA
ATOM      7  C   UNL     1       1.913   2.070  -2.298  0.00  0.00    +0.000 A 
ATOM      8  H   UNL     1       5.842   3.579  -2.740  0.00  0.00    +0.000 HD
ENDROOT
BRANCH   1  10
ATOM      9  N   UNL     1       1.423  -0.746  -0.049  0.00  0.00    +0.000 N 
ATOM     10  C   UNL     1       1.243  -0.055  -1.221  0.00  0.00    +0.000 C 
ATOM     11  O   UNL     1       0.268  -0.241  -1.925  0.00  0.00    +0.000 OA
ATOM     12  H   UNL     1       0.672  -1.357   0.230  0.00  0.00    +0.000 HD
ATOM     13  H   UNL     1       2.079  -0.454   0.664  0.00  0.00    +0.000 HD
ENDBRANCH   1  10
BRANCH   5  14
ATOM     14  C   UNL     1       4.706   5.341  -2.787  0.00  0.00    +0.000 C 
ATOM     15  C   UNL     1       5.020   6.321  -1.663  0.00  0.00    +0.000 C 
ATOM     16  C   UNL     1       3.654   6.291  -2.247  0.00  0.00    +0.000 C 
BRANCH  14  17
ATOM     17  C   UNL     1       5.103   5.545  -4.240  0.00  0.00    +0.000 A 
ATOM     18  C   UNL     1       4.138   5.466  -5.264  0.00  0.00    +0.000 A 
ATOM     19  C   UNL     1       4.505   5.386  -6.611  0.00  0.00    +0.000 A 
ATOM     20  C   UNL     1       5.852   5.387  -6.965  0.00  0.00    +0.000 A 
ATOM     21  C   UNL     1       6.823   5.524  -5.978  0.00  0.00    +0.000 A 
ATOM     22  C   UNL     1       6.444   5.615  -4.639  0.00  0.00    +0.000 A 
ATOM     23  F   UNL     1       7.409   5.680  -3.708  0.00  0.00    +0.000 F 
ENDBRANCH  14  17
ENDBRANCH   5  14
TORSDOF 3
