REMARK  Name = 
REMARK  7 active torsions:
REMARK  status: ('A' for Active; 'I' for Inactive)
REMARK    1  A    between atoms: C_1  and  N_2
REMARK    2  A    between atoms: N_2  and  C_3
REMARK    3  A    between atoms: C_3  and  C_4
REMARK    4  A    between atoms: C_7  and  C_8
REMARK    5  A    between atoms: C_8  and  N_9
REMARK    6  A    between atoms: C_10  and  C_12
REMARK    7  A    between atoms: C_19  and  C_21
REMARK                            x       y       z     vdW  Elec       q    Type
REMARK                         _______ _______ _______ _____ _____    ______ ____
ROOT
ATOM      1  C   UNL     1       3.071   0.760  -1.029  0.00  0.00    +0.000 C 
ENDROOT
BRANCH   1   2
ATOM      2  C   UNL     1       2.129   1.636  -1.813  0.00  0.00    +0.000 A 
ATOM      3  C   UNL     1       1.072   1.069  -2.543  0.00  0.00    +0.000 A 
ATOM      4  C   UNL     1       0.168   1.879  -3.231  0.00  0.00    +0.000 A 
ATOM      5  C   UNL     1       0.310   3.272  -3.215  0.00  0.00    +0.000 A 
ATOM      6  C   UNL     1       1.359   3.838  -2.478  0.00  0.00    +0.000 A 
ATOM      7  C   UNL     1       2.267   3.029  -1.792  0.00  0.00    +0.000 A 
BRANCH   5   8
ATOM      8  C   UNL     1      -0.666   4.146  -3.956  0.00  0.00    +0.000 C 
BRANCH   8   9
ATOM      9  N   UNL     1      -1.809   4.461  -3.137  0.00  0.00    +0.000 N 
ATOM     10  C   UNL     1      -2.797   5.321  -3.563  0.00  0.00    +0.000 C 
ATOM     11  O   UNL     1      -2.760   5.851  -4.670  0.00  0.00    +0.000 OA
ATOM     12  H   UNL     1      -1.912   4.004  -2.240  0.00  0.00    +0.000 HD
BRANCH  10  13
ATOM     13  C   UNL     1      -3.870   5.552  -2.617  0.00  0.00    +0.000 A 
ATOM     14  C   UNL     1      -5.006   6.320  -2.795  0.00  0.00    +0.000 A 
ATOM     15  N   UNL     1      -5.867   6.390  -1.713  0.00  0.00    +0.000 NA
ATOM     16  C   UNL     1      -5.376   5.677  -0.725  0.00  0.00    +0.000 A 
ATOM     17  S   UNL     1      -3.890   4.883  -1.033  0.00  0.00    +0.000 S 
ENDBRANCH  10  13
ENDBRANCH   8   9
ENDBRANCH   5   8
ENDBRANCH   1   2
BRANCH   1  19
ATOM     18  C   UNL     1       4.529   0.601  -3.090  0.00  0.00    +0.000 C 
ATOM     19  N   UNL     1       4.293   0.288  -1.686  0.00  0.00    +0.000 N 
ATOM     20  C   UNL     1       5.393  -0.225  -0.971  0.00  0.00    +0.000 C 
ATOM     21  O   UNL     1       6.479  -0.410  -1.517  0.00  0.00    +0.000 OA
BRANCH  20  22
ATOM     22  C   UNL     1       5.230  -0.586   0.447  0.00  0.00    +0.000 A 
ATOM     23  C   UNL     1       4.146  -1.282   0.959  0.00  0.00    +0.000 A 
ATOM     24  S   UNL     1       4.269  -1.610   2.629  0.00  0.00    +0.000 S 
ATOM     25  C   UNL     1       5.842  -0.964   2.690  0.00  0.00    +0.000 A 
ATOM     26  N   UNL     1       6.579  -1.028   3.830  0.00  0.00    +0.000 NA
ATOM     27  C   UNL     1       7.776  -0.564   3.710  0.00  0.00    +0.000 A 
ATOM     28  N   UNL     1       8.287  -0.002   2.569  0.00  0.00    +0.000 N 
ATOM     29  C   UNL     1       7.532   0.213   1.436  0.00  0.00    +0.000 A 
ATOM     30  O   UNL     1       7.940   0.936   0.532  0.00  0.00    +0.000 OA
ATOM     31  C   UNL     1       6.222  -0.412   1.482  0.00  0.00    +0.000 A 
ATOM     32  H   UNL     1       9.209   0.409   2.564  0.00  0.00    +0.000 HD
ENDBRANCH  20  22
ENDBRANCH   1  19
TORSDOF 6
