REMARK  Name = 
REMARK  6 active torsions:
REMARK  status: ('A' for Active; 'I' for Inactive)
REMARK    1  A    between atoms: C_7  and  C_8
REMARK    2  A    between atoms: N_10  and  C_11
REMARK    3  A    between atoms: C_11  and  C_12
REMARK    4  A    between atoms: C_15  and  O_16
REMARK    5  A    between atoms: O_16  and  C_17
REMARK    6  A    between atoms: C_17  and  C_18
REMARK                            x       y       z     vdW  Elec       q    Type
REMARK                         _______ _______ _______ _____ _____    ______ ____
ROOT
ATOM      1  C   UNL     1      -3.902  -2.848  -1.260  0.00  0.00    +0.000 C 
ATOM      2  O   UNL     1      -4.587  -2.314  -0.390  0.00  0.00    +0.000 OA
ATOM      3  N   UNL     1      -3.087  -3.917  -0.982  0.00  0.00    +0.000 N 
ATOM      4  H   UNL     1      -2.561  -4.378  -1.721  0.00  0.00    +0.000 HD
ENDROOT
BRANCH   1  11
ATOM      5  N   UNL     1      -1.623  -3.011  -7.572  0.00  0.00    +0.000 N 
ATOM      6  C   UNL     1      -2.188  -2.889  -6.345  0.00  0.00    +0.000 A 
ATOM      7  N   UNL     1      -3.060  -1.949  -6.114  0.00  0.00    +0.000 NA
ATOM      8  C   UNL     1      -3.526  -1.939  -4.844  0.00  0.00    +0.000 A 
ATOM      9  N   UNL     1      -4.441  -1.040  -4.388  0.00  0.00    +0.000 N 
ATOM     10  C   UNL     1      -4.679  -1.284  -3.060  0.00  0.00    +0.000 A 
ATOM     11  C   UNL     1      -3.905  -2.363  -2.641  0.00  0.00    +0.000 A 
ATOM     12  C   UNL     1      -3.194  -2.781  -3.806  0.00  0.00    +0.000 A 
ATOM     13  C   UNL     1      -2.248  -3.829  -4.097  0.00  0.00    +0.000 A 
ATOM     14  O   UNL     1      -1.898  -4.683  -3.291  0.00  0.00    +0.000 OA
ATOM     15  N   UNL     1      -1.774  -3.795  -5.394  0.00  0.00    +0.000 N 
ATOM     16  H   UNL     1      -1.792  -2.193  -8.150  0.00  0.00    +0.000 HD
ATOM     17  H   UNL     1      -0.660  -3.318  -7.604  0.00  0.00    +0.000 HD
ATOM     18  H   UNL     1      -4.860  -0.312  -4.950  0.00  0.00    +0.000 HD
ATOM     19  H   UNL     1      -1.142  -4.534  -5.646  0.00  0.00    +0.000 HD
ENDBRANCH   1  11
BRANCH   3  20
ATOM     20  C   UNL     1      -2.987  -4.436   0.357  0.00  0.00    +0.000 C 
BRANCH  20  21
ATOM     21  C   UNL     1      -2.055  -5.615   0.433  0.00  0.00    +0.000 A 
ATOM     22  C   UNL     1      -0.685  -5.447   0.675  0.00  0.00    +0.000 A 
ATOM     23  C   UNL     1       0.160  -6.559   0.767  0.00  0.00    +0.000 A 
ATOM     24  C   UNL     1      -0.353  -7.849   0.624  0.00  0.00    +0.000 A 
ATOM     25  C   UNL     1      -1.705  -8.016   0.320  0.00  0.00    +0.000 A 
ATOM     26  C   UNL     1      -2.551  -6.908   0.233  0.00  0.00    +0.000 A 
BRANCH  24  27
ATOM     27  O   UNL     1       0.540  -8.875   0.804  0.00  0.00    +0.000 OA
BRANCH  27  28
ATOM     28  C   UNL     1      -0.055 -10.128   1.152  0.00  0.00    +0.000 C 
BRANCH  28  29
ATOM     29  C   UNL     1       0.966 -11.026   1.799  0.00  0.00    +0.000 A 
ATOM     30  C   UNL     1       0.813 -11.427   3.130  0.00  0.00    +0.000 A 
ATOM     31  C   UNL     1       1.753 -12.283   3.681  0.00  0.00    +0.000 A 
ATOM     32  N   UNL     1       2.819 -12.759   3.006  0.00  0.00    +0.000 NA
ATOM     33  C   UNL     1       2.954 -12.354   1.724  0.00  0.00    +0.000 A 
ATOM     34  C   UNL     1       2.068 -11.501   1.084  0.00  0.00    +0.000 A 
ENDBRANCH  28  29
ENDBRANCH  27  28
ENDBRANCH  24  27
ENDBRANCH  20  21
ENDBRANCH   3  20
TORSDOF 6
