REMARK  Name = 
REMARK  9 active torsions:
REMARK  status: ('A' for Active; 'I' for Inactive)
REMARK    1  A    between atoms: C_1  and  C_2
REMARK    2  A    between atoms: C_2  and  N_3
REMARK    3  A    between atoms: C_2  and  C_25
REMARK    4  A    between atoms: N_3  and  C_4
REMARK    5  A    between atoms: C_4  and  C_5
REMARK    6  A    between atoms: C_8  and  C_9
REMARK    7  A    between atoms: C_9  and  N_10
REMARK    8  A    between atoms: C_11  and  C_13
REMARK    9  A    between atoms: C_29  and  C_30
REMARK                            x       y       z     vdW  Elec       q    Type
REMARK                         _______ _______ _______ _____ _____    ______ ____
ROOT
ATOM      1  C   UNL     1      -0.895   0.294  -1.267  0.00  0.00    +0.000 A 
ATOM      2  C   UNL     1      -1.563  -0.826  -0.749  0.00  0.00    +0.000 A 
ATOM      3  C   UNL     1      -2.959  -0.886  -0.736  0.00  0.00    +0.000 A 
ATOM      4  C   UNL     1      -3.719   0.173  -1.247  0.00  0.00    +0.000 A 
ATOM      5  C   UNL     1      -3.054   1.314  -1.719  0.00  0.00    +0.000 A 
ATOM      6  C   UNL     1      -1.657   1.372  -1.734  0.00  0.00    +0.000 A 
ENDROOT
BRANCH   1   7
ATOM      7  C   UNL     1       0.618   0.327  -1.319  0.00  0.00    +0.000 C 
BRANCH   7   8
ATOM      8  N   UNL     1       1.123  -0.779  -2.130  0.00  0.00    +0.000 NA
ATOM      9  H   UNL     1       0.662  -0.738  -3.041  0.00  0.00    +0.000 HD
BRANCH   8  11
ATOM     10  C   UNL     1       3.390  -0.821  -1.049  0.00  0.00    +0.000 C 
ATOM     11  C   UNL     1       2.573  -0.767  -2.347  0.00  0.00    +0.000 C 
BRANCH  11  12
ATOM     12  C   UNL     1       2.951  -1.950  -3.234  0.00  0.00    +0.000 A 
ATOM     13  C   UNL     1       3.593  -1.740  -4.463  0.00  0.00    +0.000 A 
ATOM     14  C   UNL     1       3.968  -2.822  -5.264  0.00  0.00    +0.000 A 
ATOM     15  C   UNL     1       3.714  -4.127  -4.844  0.00  0.00    +0.000 A 
ATOM     16  C   UNL     1       3.071  -4.358  -3.625  0.00  0.00    +0.000 A 
ATOM     17  C   UNL     1       2.680  -3.272  -2.833  0.00  0.00    +0.000 A 
BRANCH  16  18
ATOM     18  C   UNL     1       2.838  -5.702  -3.173  0.00  0.00    +0.000 C 
ATOM     19  N   UNL     1       2.668  -6.790  -2.811  0.00  0.00    +0.000 NA
ENDBRANCH  16  18
ENDBRANCH  11  12
ENDBRANCH   8  11
ENDBRANCH   7   8
ENDBRANCH   1   7
BRANCH   4  20
ATOM     20  C   UNL     1      -5.223   0.109  -1.267  0.00  0.00    +0.000 C 
BRANCH  20  21
ATOM     21  N   UNL     1      -5.785   0.646  -0.056  0.00  0.00    +0.000 N 
ATOM     22  C   UNL     1      -7.136   0.626   0.174  0.00  0.00    +0.000 C 
ATOM     23  O   UNL     1      -7.926   0.132  -0.626  0.00  0.00    +0.000 OA
ATOM     24  H   UNL     1      -5.189   1.251   0.501  0.00  0.00    +0.000 HD
BRANCH  22  25
ATOM     25  C   UNL     1      -7.589   1.170   1.460  0.00  0.00    +0.000 A 
ATOM     26  C   UNL     1      -8.799   0.754   1.998  0.00  0.00    +0.000 A 
ATOM     27  S   UNL     1      -9.147   1.449   3.516  0.00  0.00    +0.000 S 
ATOM     28  C   UNL     1      -7.720   2.373   3.483  0.00  0.00    +0.000 A 
ATOM     29  N   UNL     1      -7.414   3.230   4.495  0.00  0.00    +0.000 NA
ATOM     30  C   UNL     1      -6.317   3.887   4.326  0.00  0.00    +0.000 A 
ATOM     31  N   UNL     1      -5.490   3.760   3.240  0.00  0.00    +0.000 N 
ATOM     32  C   UNL     1      -5.739   2.884   2.211  0.00  0.00    +0.000 A 
ATOM     33  O   UNL     1      -4.950   2.759   1.280  0.00  0.00    +0.000 OA
ATOM     34  C   UNL     1      -6.972   2.134   2.342  0.00  0.00    +0.000 A 
ATOM     35  H   UNL     1      -4.636   4.294   3.173  0.00  0.00    +0.000 HD
ENDBRANCH  22  25
ENDBRANCH  20  21
ENDBRANCH   4  20
TORSDOF 8
