REMARK  Name = 
REMARK  6 active torsions:
REMARK  status: ('A' for Active; 'I' for Inactive)
REMARK    1  A    between atoms: N_1  and  C_2
REMARK    2  A    between atoms: C_2  and  C_3
REMARK    3  A    between atoms: C_6  and  O_7
REMARK    4  A    between atoms: O_7  and  C_8
REMARK    5  A    between atoms: C_8  and  C_9
REMARK    6  A    between atoms: C_9  and  O_10
REMARK                            x       y       z     vdW  Elec       q    Type
REMARK                         _______ _______ _______ _____ _____    ______ ____
ROOT
ATOM      1  C   UNL     1       3.745  -1.227  -0.474  0.00  0.00    +0.000 A 
ATOM      2  C   UNL     1       4.347  -0.857  -1.683  0.00  0.00    +0.000 A 
ATOM      3  C   UNL     1       4.545  -1.792  -2.703  0.00  0.00    +0.000 A 
ATOM      4  C   UNL     1       4.146  -3.118  -2.536  0.00  0.00    +0.000 A 
ATOM      5  C   UNL     1       3.550  -3.497  -1.331  0.00  0.00    +0.000 A 
ATOM      6  C   UNL     1       3.350  -2.560  -0.307  0.00  0.00    +0.000 A 
ENDROOT
BRANCH   1   7
ATOM      7  C   UNL     1       3.562  -0.212   0.625  0.00  0.00    +0.000 C 
BRANCH   7   8
ATOM      8  N   UNL     1       2.743   0.916   0.192  0.00  0.00    +0.000 NA
ATOM      9  H   UNL     1       2.591   1.540   0.982  0.00  0.00    +0.000 HD
ATOM     10  H   UNL     1       1.825   0.569  -0.082  0.00  0.00    +0.000 HD
ENDBRANCH   7   8
ENDBRANCH   1   7
BRANCH   4  11
ATOM     11  O   UNL     1       4.286  -4.115  -3.469  0.00  0.00    +0.000 OA
BRANCH  11  12
ATOM     12  C   UNL     1       4.923  -3.732  -4.700  0.00  0.00    +0.000 C 
BRANCH  12  13
ATOM     13  C   UNL     1       5.062  -4.956  -5.637  0.00  0.00    +0.000 C 
ATOM     14  C   UNL     1       5.877  -6.092  -4.998  0.00  0.00    +0.000 C 
ATOM     15  C   UNL     1       7.355  -5.737  -4.847  0.00  0.00    +0.000 C 
ATOM     16  C   UNL     1       7.974  -5.286  -6.170  0.00  0.00    +0.000 C 
ATOM     17  C   UNL     1       7.172  -4.180  -6.850  0.00  0.00    +0.000 C 
ATOM     18  C   UNL     1       5.698  -4.555  -6.980  0.00  0.00    +0.000 C 
BRANCH  13  19
ATOM     19  O   UNL     1       3.750  -5.459  -5.926  0.00  0.00    +0.000 OA
ATOM     20  H   UNL     1       3.296  -5.561  -5.069  0.00  0.00    +0.000 HD
ENDBRANCH  13  19
ENDBRANCH  12  13
ENDBRANCH  11  12
ENDBRANCH   4  11
TORSDOF 6
