REMARK  Name = 
REMARK  4 active torsions:
REMARK  status: ('A' for Active; 'I' for Inactive)
REMARK    1  A    between atoms: C_2  and  C_4
REMARK    2  A    between atoms: C_7  and  C_8
REMARK    3  A    between atoms: C_8  and  C_9
REMARK    4  A    between atoms: C_9  and  C_10
REMARK                            x       y       z     vdW  Elec       q    Type
REMARK                         _______ _______ _______ _____ _____    ______ ____
ROOT
ATOM      1  C   UNL     1       9.193   3.740  -0.083  0.00  0.00    +0.000 A 
ATOM      2  C   UNL     1       8.953   4.209   1.195  0.00  0.00    +0.000 A 
ATOM      3  C   UNL     1       7.640   4.512   1.548  0.00  0.00    +0.000 A 
ATOM      4  C   UNL     1       6.629   4.372   0.604  0.00  0.00    +0.000 A 
ATOM      5  N   UNL     1       6.913   3.909  -0.638  0.00  0.00    +0.000 NA
ATOM      6  N   UNL     1       8.204   3.588  -0.990  0.00  0.00    +0.000 NA
ENDROOT
BRANCH   1   8
ATOM      7  N   UNL     1      10.712   2.905  -1.792  0.00  0.00    +0.000 N 
ATOM      8  C   UNL     1      10.570   3.350  -0.502  0.00  0.00    +0.000 C 
ATOM      9  O   UNL     1      11.528   3.411   0.259  0.00  0.00    +0.000 OA
ATOM     10  H   UNL     1      11.626   2.623  -2.115  0.00  0.00    +0.000 HD
ATOM     11  H   UNL     1       9.916   2.856  -2.417  0.00  0.00    +0.000 HD
ENDBRANCH   1   8
BRANCH   4  12
ATOM     12  C   UNL     1       5.166   4.588   0.911  0.00  0.00    +0.000 C 
BRANCH  12  13
ATOM     13  C   UNL     1       4.852   5.739   1.866  0.00  0.00    +0.000 C 
ATOM     14  C   UNL     1       4.774   5.417   3.353  0.00  0.00    +0.000 C 
ATOM     15  C   UNL     1       3.510   5.675   2.599  0.00  0.00    +0.000 C 
BRANCH  13  16
ATOM     16  C   UNL     1       5.261   7.139   1.416  0.00  0.00    +0.000 A 
ATOM     17  C   UNL     1       4.483   7.877   0.508  0.00  0.00    +0.000 A 
ATOM     18  C   UNL     1       4.832   9.184   0.174  0.00  0.00    +0.000 A 
ATOM     19  C   UNL     1       5.965   9.726   0.749  0.00  0.00    +0.000 A 
ATOM     20  F   UNL     1       6.290  10.992   0.453  0.00  0.00    +0.000 F 
ATOM     21  N   UNL     1       6.760   9.063   1.608  0.00  0.00    +0.000 NA
ATOM     22  C   UNL     1       6.387   7.799   1.915  0.00  0.00    +0.000 A 
ENDBRANCH  13  16
ENDBRANCH  12  13
ENDBRANCH   4  12
TORSDOF 4
