REMARK  Name = 
REMARK  6 active torsions:
REMARK  status: ('A' for Active; 'I' for Inactive)
REMARK    1  A    between atoms: C_1  and  C_2
REMARK    2  A    between atoms: C_4  and  N_5
REMARK    3  A    between atoms: N_5  and  C_6
REMARK    4  A    between atoms: C_6  and  C_7
REMARK    5  A    between atoms: C_11  and  C_12
REMARK    6  A    between atoms: C_21  and  C_22
REMARK                            x       y       z     vdW  Elec       q    Type
REMARK                         _______ _______ _______ _____ _____    ______ ____
ROOT
ATOM      1  N   UNL     1       1.746  -2.365   0.150  0.00  0.00    +0.000 N 
ATOM      2  H   UNL     1       2.721  -2.239  -0.098  0.00  0.00    +0.000 HD
ENDROOT
BRANCH   1   6
ATOM      3  C   UNL     1      -2.591   0.045   0.065  0.00  0.00    +0.000 C 
ATOM      4  C   UNL     1      -1.093   0.019   0.063  0.00  0.00    +0.000 A 
ATOM      5  C   UNL     1      -0.386  -1.188   0.087  0.00  0.00    +0.000 A 
ATOM      6  C   UNL     1       1.011  -1.201   0.068  0.00  0.00    +0.000 A 
ATOM      7  N   UNL     1       1.718  -0.053   0.034  0.00  0.00    +0.000 NA
ATOM      8  C   UNL     1       1.015   1.121   0.034  0.00  0.00    +0.000 A 
ATOM      9  C   UNL     1      -0.369   1.204   0.046  0.00  0.00    +0.000 A 
BRANCH   8  10
ATOM     10  C   UNL     1       1.809   2.392   0.041  0.00  0.00    +0.000 C 
ATOM     11  N   UNL     1       3.168   2.247   0.033  0.00  0.00    +0.000 N 
ATOM     12  O   UNL     1       1.287   3.503   0.059  0.00  0.00    +0.000 OA
ATOM     13  H   UNL     1       3.566   1.315   0.034  0.00  0.00    +0.000 HD
ATOM     14  H   UNL     1       3.761   3.063   0.052  0.00  0.00    +0.000 HD
ENDBRANCH   8  10
ENDBRANCH   1   6
BRANCH   1  15
ATOM     15  C   UNL     1       1.156  -3.679  -0.033  0.00  0.00    +0.000 C 
BRANCH  15  16
ATOM     16  C   UNL     1       2.192  -4.789  -0.059  0.00  0.00    +0.000 A 
ATOM     17  C   UNL     1       2.678  -5.314   1.136  0.00  0.00    +0.000 A 
ATOM     18  C   UNL     1       3.576  -6.371   1.085  0.00  0.00    +0.000 A 
ATOM     19  C   UNL     1       3.967  -6.873  -0.151  0.00  0.00    +0.000 A 
ATOM     20  C   UNL     1       3.451  -6.309  -1.318  0.00  0.00    +0.000 A 
ATOM     21  N   UNL     1       2.581  -5.264  -1.274  0.00  0.00    +0.000 NA
BRANCH  20  22
ATOM     22  C   UNL     1       3.819  -6.809  -2.661  0.00  0.00    +0.000 A 
ATOM     23  C   UNL     1       4.119  -8.168  -2.888  0.00  0.00    +0.000 A 
ATOM     24  C   UNL     1       4.530  -8.630  -4.143  0.00  0.00    +0.000 A 
ATOM     25  C   UNL     1       4.636  -7.738  -5.204  0.00  0.00    +0.000 A 
ATOM     26 CL   UNL     1       5.172  -8.298  -6.740  0.00  0.00    +0.000 Cl
ATOM     27  C   UNL     1       4.314  -6.396  -5.024  0.00  0.00    +0.000 A 
ATOM     28  C   UNL     1       3.904  -5.940  -3.765  0.00  0.00    +0.000 A 
ENDBRANCH  20  22
ENDBRANCH  15  16
ENDBRANCH   1  15
TORSDOF 5
