REMARK  Name = 
REMARK  5 active torsions:
REMARK  status: ('A' for Active; 'I' for Inactive)
REMARK    1  A    between atoms: N_1  and  C_2
REMARK    2  A    between atoms: C_2  and  C_3
REMARK    3  A    between atoms: C_3  and  C_4
REMARK    4  A    between atoms: C_8  and  C_9
REMARK    5  A    between atoms: C_9  and  N_10
REMARK                            x       y       z     vdW  Elec       q    Type
REMARK                         _______ _______ _______ _____ _____    ______ ____
ROOT
ATOM      1  C   UNL     1       4.564  -1.102   0.750  0.00  0.00    +0.000 A 
ATOM      2  C   UNL     1       5.357  -2.181   1.168  0.00  0.00    +0.000 A 
ATOM      3  C   UNL     1       6.740  -2.152   1.007  0.00  0.00    +0.000 A 
ATOM      4  C   UNL     1       7.353  -1.047   0.435  0.00  0.00    +0.000 A 
ATOM      5  C   UNL     1       6.580   0.049   0.022  0.00  0.00    +0.000 A 
ATOM      6  C   UNL     1       5.188   0.008   0.166  0.00  0.00    +0.000 A 
ENDROOT
BRANCH   1   7
ATOM      7  C   UNL     1       3.062  -1.145   0.921  0.00  0.00    +0.000 C 
BRANCH   7   8
ATOM      8  C   UNL     1       2.608  -0.605   2.280  0.00  0.00    +0.000 C 
BRANCH   8   9
ATOM      9  N   UNL     1       1.147  -0.624   2.385  0.00  0.00    +0.000 NA
ATOM     10  H   UNL     1       0.873  -0.293   3.312  0.00  0.00    +0.000 HD
ATOM     11  H   UNL     1       0.814  -1.584   2.310  0.00  0.00    +0.000 HD
ENDBRANCH   8   9
ENDBRANCH   7   8
ENDBRANCH   1   7
BRANCH   5  12
ATOM     12  C   UNL     1       7.259   1.268  -0.568  0.00  0.00    +0.000 C 
BRANCH  12  13
ATOM     13  N   UNL     1       7.261   1.292  -2.025  0.00  0.00    +0.000 N 
ATOM     14  C   UNL     1       7.965   0.405  -2.807  0.00  0.00    +0.000 A 
ATOM     15  C   UNL     1       7.892   0.832  -4.111  0.00  0.00    +0.000 A 
ATOM     16  C   UNL     1       7.363   2.147  -4.080  0.00  0.00    +0.000 A 
ATOM     17  C   UNL     1       7.316   3.196  -5.016  0.00  0.00    +0.000 A 
ATOM     18  C   UNL     1       6.707   4.402  -4.660  0.00  0.00    +0.000 A 
ATOM     19  C   UNL     1       6.051   4.527  -3.439  0.00  0.00    +0.000 A 
ATOM     20  C   UNL     1       6.082   3.496  -2.494  0.00  0.00    +0.000 A 
ATOM     21  C   UNL     1       6.830   2.348  -2.805  0.00  0.00    +0.000 A 
ENDBRANCH  12  13
ENDBRANCH   5  12
TORSDOF 5
