REMARK  Name = 
REMARK  6 active torsions:
REMARK  status: ('A' for Active; 'I' for Inactive)
REMARK    1  A    between atoms: C_2  and  C_4
REMARK    2  A    between atoms: C_7  and  N_8
REMARK    3  A    between atoms: N_8  and  C_9
REMARK    4  A    between atoms: C_9  and  C_10
REMARK    5  A    between atoms: C_10  and  C_13
REMARK    6  A    between atoms: C_17  and  C_18
REMARK                            x       y       z     vdW  Elec       q    Type
REMARK                         _______ _______ _______ _____ _____    ______ ____
ROOT
ATOM      1  C   UNL     1       6.092   1.522   7.072  0.00  0.00    +0.000 C 
ATOM      2  F   UNL     1       7.350   1.071   6.797  0.00  0.00    +0.000 F 
ATOM      3  F   UNL     1       6.165   2.884   6.975  0.00  0.00    +0.000 F 
ENDROOT
BRANCH   1   4
ATOM      4  C   UNL     1       5.612   1.064   8.437  0.00  0.00    +0.000 A 
ATOM      5  C   UNL     1       4.781   1.882   9.211  0.00  0.00    +0.000 A 
ATOM      6  C   UNL     1       4.296   1.427  10.433  0.00  0.00    +0.000 A 
ATOM      7  C   UNL     1       4.624   0.146  10.884  0.00  0.00    +0.000 A 
ATOM      8  C   UNL     1       5.437  -0.716  10.126  0.00  0.00    +0.000 A 
ATOM      9  C   UNL     1       5.938  -0.222   8.908  0.00  0.00    +0.000 A 
BRANCH   8  10
ATOM     10  C   UNL     1       5.710  -2.101  10.563  0.00  0.00    +0.000 A 
ATOM     11  C   UNL     1       4.733  -2.876  11.204  0.00  0.00    +0.000 A 
ATOM     12  N   UNL     1       4.887  -4.165  11.602  0.00  0.00    +0.000 NA
ATOM     13  C   UNL     1       6.086  -4.730  11.346  0.00  0.00    +0.000 A 
ATOM     14  C   UNL     1       7.121  -4.062  10.722  0.00  0.00    +0.000 A 
ATOM     15  F   UNL     1       8.285  -4.678  10.485  0.00  0.00    +0.000 F 
ATOM     16  C   UNL     1       6.937  -2.740  10.331  0.00  0.00    +0.000 A 
ENDBRANCH   8  10
ENDBRANCH   1   4
BRANCH   1  17
ATOM     17  C   UNL     1       5.115   1.008   5.984  0.00  0.00    +0.000 C 
BRANCH  17  18
ATOM     18  N   UNL     1       5.480   1.424   4.621  0.00  0.00    +0.000 N 
ATOM     19  H   UNL     1       5.887   2.356   4.554  0.00  0.00    +0.000 HD
BRANCH  18  23
ATOM     20  C   UNL     1       3.341   0.167   1.211  0.00  0.00    +0.000 A 
ATOM     21  C   UNL     1       2.895  -0.211   2.479  0.00  0.00    +0.000 A 
ATOM     22  C   UNL     1       3.581   0.222   3.620  0.00  0.00    +0.000 A 
ATOM     23  C   UNL     1       4.702   1.057   3.527  0.00  0.00    +0.000 A 
ATOM     24  C   UNL     1       5.140   1.418   2.246  0.00  0.00    +0.000 A 
ATOM     25  C   UNL     1       4.474   0.976   1.097  0.00  0.00    +0.000 A 
BRANCH  20  27
ATOM     26  N   UNL     1       1.343  -0.611   0.058  0.00  0.00    +0.000 N 
ATOM     27  C   UNL     1       2.674  -0.316  -0.026  0.00  0.00    +0.000 C 
ATOM     28  O   UNL     1       3.278  -0.419  -1.085  0.00  0.00    +0.000 OA
ATOM     29  H   UNL     1       0.880  -0.846  -0.811  0.00  0.00    +0.000 HD
ATOM     30  H   UNL     1       0.765  -0.306   0.831  0.00  0.00    +0.000 HD
ENDBRANCH  20  27
ENDBRANCH  18  23
ENDBRANCH  17  18
ENDBRANCH   1  17
TORSDOF 6
