REMARK  Name = 
REMARK  6 active torsions:
REMARK  status: ('A' for Active; 'I' for Inactive)
REMARK    1  A    between atoms: C_1  and  C_2
REMARK    2  A    between atoms: C_2  and  N_3
REMARK    3  A    between atoms: C_2  and  C_14
REMARK    4  A    between atoms: N_3  and  C_4
REMARK    5  A    between atoms: C_7  and  C_8
REMARK    6  A    between atoms: C_18  and  O_19
REMARK                            x       y       z     vdW  Elec       q    Type
REMARK                         _______ _______ _______ _____ _____    ______ ____
ROOT
ATOM      1  N   UNL     1       2.755   0.123  -1.391  0.00  0.00    +0.000 N 
ATOM      2  H   UNL     1       3.724   0.407  -1.557  0.00  0.00    +0.000 HD
ENDROOT
BRANCH   1   3
ATOM      3  C   UNL     1       2.420  -0.895  -2.294  0.00  0.00    +0.000 A 
ATOM      4  C   UNL     1       2.295  -2.232  -1.912  0.00  0.00    +0.000 A 
ATOM      5  C   UNL     1       1.994  -3.236  -2.843  0.00  0.00    +0.000 A 
ATOM      6  C   UNL     1       1.819  -2.921  -4.200  0.00  0.00    +0.000 A 
ATOM      7  C   UNL     1       1.962  -1.592  -4.602  0.00  0.00    +0.000 A 
ATOM      8  C   UNL     1       2.288  -0.606  -3.664  0.00  0.00    +0.000 A 
ATOM      9  F   UNL     1       2.471   0.649  -4.108  0.00  0.00    +0.000 F 
BRANCH   6  10
ATOM     10  C   UNL     1       1.503  -3.941  -5.240  0.00  0.00    +0.000 C 
ATOM     11  N   UNL     1       1.425  -5.256  -4.886  0.00  0.00    +0.000 N 
ATOM     12  O   UNL     1       1.328  -3.615  -6.411  0.00  0.00    +0.000 OA
ATOM     13  H   UNL     1       1.598  -5.627  -3.961  0.00  0.00    +0.000 HD
ATOM     14  H   UNL     1       1.250  -5.914  -5.630  0.00  0.00    +0.000 HD
ENDBRANCH   6  10
ENDBRANCH   1   3
BRANCH   1  16
ATOM     15  C   UNL     1       0.990  -0.079   0.354  0.00  0.00    +0.000 C 
ATOM     16  C   UNL     1       2.490   0.014   0.053  0.00  0.00    +0.000 C 
BRANCH  16  17
ATOM     17  C   UNL     1       3.075   1.247   0.725  0.00  0.00    +0.000 A 
ATOM     18  C   UNL     1       2.572   2.531   0.453  0.00  0.00    +0.000 A 
ATOM     19  C   UNL     1       3.162   3.662   1.019  0.00  0.00    +0.000 A 
ATOM     20  C   UNL     1       4.262   3.526   1.861  0.00  0.00    +0.000 A 
ATOM     21  C   UNL     1       4.745   2.255   2.155  0.00  0.00    +0.000 A 
ATOM     22  C   UNL     1       4.158   1.121   1.606  0.00  0.00    +0.000 A 
BRANCH  21  23
ATOM     23  O   UNL     1       5.821   2.075   2.973  0.00  0.00    +0.000 OA
ATOM     24  H   UNL     1       6.168   2.947   3.221  0.00  0.00    +0.000 HD
ENDBRANCH  21  23
ENDBRANCH  16  17
ENDBRANCH   1  16
TORSDOF 5
