REMARK  Name = 
REMARK  5 active torsions:
REMARK  status: ('A' for Active; 'I' for Inactive)
REMARK    1  A    between atoms: C_2  and  C_4
REMARK    2  A    between atoms: C_7  and  N_8
REMARK    3  A    between atoms: N_8  and  C_9
REMARK    4  A    between atoms: C_9  and  C_10
REMARK    5  A    between atoms: C_14  and  C_15
REMARK                            x       y       z     vdW  Elec       q    Type
REMARK                         _______ _______ _______ _____ _____    ______ ____
ROOT
ATOM      1  C   UNL     1       4.471  -3.614   4.811  0.00  0.00    +0.000 C 
ENDROOT
BRANCH   1   2
ATOM      2  C   UNL     1       5.175  -4.027   6.085  0.00  0.00    +0.000 A 
ATOM      3  C   UNL     1       5.842  -3.081   6.870  0.00  0.00    +0.000 A 
ATOM      4  C   UNL     1       6.468  -3.466   8.053  0.00  0.00    +0.000 A 
ATOM      5  C   UNL     1       6.422  -4.800   8.470  0.00  0.00    +0.000 A 
ATOM      6  C   UNL     1       5.742  -5.778   7.723  0.00  0.00    +0.000 A 
ATOM      7  C   UNL     1       5.150  -5.368   6.511  0.00  0.00    +0.000 A 
BRANCH   6   8
ATOM      8  C   UNL     1       5.563  -7.160   8.231  0.00  0.00    +0.000 A 
ATOM      9  C   UNL     1       5.360  -7.401   9.606  0.00  0.00    +0.000 A 
ATOM     10  C   UNL     1       5.077  -8.681  10.091  0.00  0.00    +0.000 A 
ATOM     11  C   UNL     1       4.989  -9.743   9.204  0.00  0.00    +0.000 A 
ATOM     12  F   UNL     1       4.679 -10.963   9.661  0.00  0.00    +0.000 F 
ATOM     13  C   UNL     1       5.208  -9.552   7.847  0.00  0.00    +0.000 A 
ATOM     14  C   UNL     1       5.504  -8.271   7.366  0.00  0.00    +0.000 A 
ENDBRANCH   6   8
ENDBRANCH   1   2
BRANCH   1  15
ATOM     15  N   UNL     1       5.440  -3.531   3.727  0.00  0.00    +0.000 N 
ATOM     16  H   UNL     1       5.985  -4.384   3.646  0.00  0.00    +0.000 HD
BRANCH  15  20
ATOM     17  C   UNL     1       3.983  -2.420   0.041  0.00  0.00    +0.000 A 
ATOM     18  C   UNL     1       3.136  -2.524   1.131  0.00  0.00    +0.000 A 
ATOM     19  N   UNL     1       3.574  -2.901   2.363  0.00  0.00    +0.000 NA
ATOM     20  C   UNL     1       4.891  -3.180   2.484  0.00  0.00    +0.000 A 
ATOM     21  C   UNL     1       5.731  -3.067   1.364  0.00  0.00    +0.000 A 
ATOM     22  N   UNL     1       5.312  -2.696   0.123  0.00  0.00    +0.000 NA
BRANCH  17  24
ATOM     23  N   UNL     1       4.358  -1.930  -2.299  0.00  0.00    +0.000 N 
ATOM     24  C   UNL     1       3.447  -1.984  -1.279  0.00  0.00    +0.000 C 
ATOM     25  O   UNL     1       2.271  -1.688  -1.444  0.00  0.00    +0.000 OA
ATOM     26  H   UNL     1       4.065  -1.623  -3.216  0.00  0.00    +0.000 HD
ATOM     27  H   UNL     1       5.329  -2.164  -2.124  0.00  0.00    +0.000 HD
ENDBRANCH  17  24
ENDBRANCH  15  20
ENDBRANCH   1  15
TORSDOF 5
