REMARK  Name = 
REMARK  5 active torsions:
REMARK  status: ('A' for Active; 'I' for Inactive)
REMARK    1  A    between atoms: C_2  and  C_4
REMARK    2  A    between atoms: N_11  and  C_12
REMARK    3  A    between atoms: C_12  and  C_13
REMARK    4  A    between atoms: C_16  and  O_17
REMARK    5  A    between atoms: O_17  and  C_18
REMARK                            x       y       z     vdW  Elec       q    Type
REMARK                         _______ _______ _______ _____ _____    ______ ____
ROOT
ATOM      1  C   UNL     1       3.150   1.135  -0.807  0.00  0.00    +0.000 A 
ATOM      2  C   UNL     1       2.736   2.451  -0.608  0.00  0.00    +0.000 A 
ATOM      3  N   UNL     1       3.309   3.562  -1.148  0.00  0.00    +0.000 NA
ATOM      4  C   UNL     1       4.345   3.270  -1.960  0.00  0.00    +0.000 A 
ATOM      5  C   UNL     1       4.840   2.005  -2.270  0.00  0.00    +0.000 A 
ATOM      6  C   UNL     1       5.919   2.179  -3.176  0.00  0.00    +0.000 A 
ATOM      7  C   UNL     1       6.070   3.534  -3.384  0.00  0.00    +0.000 A 
ATOM      8  N   UNL     1       5.111   4.187  -2.643  0.00  0.00    +0.000 N 
ATOM      9  C   UNL     1       4.223   0.894  -1.671  0.00  0.00    +0.000 A 
ENDROOT
BRANCH   1  11
ATOM     10  N   UNL     1       3.143  -1.100   0.142  0.00  0.00    +0.000 N 
ATOM     11  C   UNL     1       2.440   0.043  -0.113  0.00  0.00    +0.000 C 
ATOM     12  O   UNL     1       1.279   0.166   0.255  0.00  0.00    +0.000 OA
ATOM     13  H   UNL     1       2.679  -1.803   0.708  0.00  0.00    +0.000 HD
ATOM     14  H   UNL     1       4.152  -1.151   0.075  0.00  0.00    +0.000 HD
ENDBRANCH   1  11
BRANCH   8  15
ATOM     15  C   UNL     1       4.968   5.635  -2.564  0.00  0.00    +0.000 C 
BRANCH  15  16
ATOM     16  C   UNL     1       4.076   6.153  -3.665  0.00  0.00    +0.000 A 
ATOM     17  C   UNL     1       2.703   6.325  -3.440  0.00  0.00    +0.000 A 
ATOM     18  C   UNL     1       1.849   6.734  -4.472  0.00  0.00    +0.000 A 
ATOM     19  C   UNL     1       2.363   7.006  -5.738  0.00  0.00    +0.000 A 
ATOM     20  C   UNL     1       3.730   6.828  -5.967  0.00  0.00    +0.000 A 
ATOM     21  C   UNL     1       4.583   6.413  -4.943  0.00  0.00    +0.000 A 
BRANCH  19  22
ATOM     22  O   UNL     1       1.667   7.413  -6.834  0.00  0.00    +0.000 OA
BRANCH  22  23
ATOM     23  C   UNL     1       0.392   8.017  -6.689  0.00  0.00    +0.000 C 
ATOM     24  F   UNL     1       0.179   8.556  -5.471  0.00  0.00    +0.000 F 
ATOM     25  F   UNL     1       0.298   9.017  -7.596  0.00  0.00    +0.000 F 
ATOM     26  F   UNL     1      -0.577   7.118  -6.954  0.00  0.00    +0.000 F 
ENDBRANCH  22  23
ENDBRANCH  19  22
ENDBRANCH  15  16
ENDBRANCH   8  15
TORSDOF 5
