REMARK  Name = 
REMARK  5 active torsions:
REMARK  status: ('A' for Active; 'I' for Inactive)
REMARK    1  A    between atoms: C_2  and  C_3
REMARK    2  A    between atoms: C_6  and  N_7
REMARK    3  A    between atoms: N_7  and  C_8
REMARK    4  A    between atoms: C_8  and  C_9
REMARK    5  A    between atoms: C_13  and  C_14
REMARK                            x       y       z     vdW  Elec       q    Type
REMARK                         _______ _______ _______ _____ _____    ______ ____
ROOT
ATOM      1  C   UNL     1       4.579  -1.142   0.100  0.00  0.00    +0.000 C 
ATOM      2  C   UNL     1       4.829  -2.273  -0.885  0.00  0.00    +0.000 C 
ATOM      3  C   UNL     1       4.336  -2.604   0.479  0.00  0.00    +0.000 C 
ENDROOT
BRANCH   1   4
ATOM      4  C   UNL     1       5.700  -0.540   0.944  0.00  0.00    +0.000 A 
ATOM      5  C   UNL     1       5.517  -0.323   2.321  0.00  0.00    +0.000 A 
ATOM      6  C   UNL     1       6.598  -0.076   3.163  0.00  0.00    +0.000 A 
ATOM      7  C   UNL     1       7.887  -0.028   2.635  0.00  0.00    +0.000 A 
ATOM      8  C   UNL     1       8.110  -0.164   1.255  0.00  0.00    +0.000 A 
ATOM      9  C   UNL     1       6.993  -0.370   0.426  0.00  0.00    +0.000 A 
BRANCH   8  10
ATOM     10  C   UNL     1       9.466  -0.205   0.694  0.00  0.00    +0.000 A 
ATOM     11  C   UNL     1      10.510  -0.886   1.301  0.00  0.00    +0.000 A 
ATOM     12  N   UNL     1      11.760  -0.987   0.800  0.00  0.00    +0.000 NA
ATOM     13  C   UNL     1      11.961  -0.381  -0.377  0.00  0.00    +0.000 A 
ATOM     14  N   UNL     1      11.043   0.300  -1.077  0.00  0.00    +0.000 NA
ATOM     15  C   UNL     1       9.815   0.371  -0.517  0.00  0.00    +0.000 A 
ENDBRANCH   8  10
ENDBRANCH   1   4
BRANCH   1  16
ATOM     16  N   UNL     1       3.449  -0.241  -0.159  0.00  0.00    +0.000 N 
ATOM     17  H   UNL     1       2.554  -0.458   0.267  0.00  0.00    +0.000 HD
BRANCH  16  21
ATOM     18  C   UNL     1       3.187   2.481  -3.395  0.00  0.00    +0.000 A 
ATOM     19  C   UNL     1       4.221   1.547  -3.366  0.00  0.00    +0.000 A 
ATOM     20  C   UNL     1       4.316   0.639  -2.302  0.00  0.00    +0.000 A 
ATOM     21  C   UNL     1       3.365   0.613  -1.277  0.00  0.00    +0.000 A 
ATOM     22  C   UNL     1       2.338   1.569  -1.313  0.00  0.00    +0.000 A 
ATOM     23  C   UNL     1       2.251   2.499  -2.361  0.00  0.00    +0.000 A 
BRANCH  18  25
ATOM     24  N   UNL     1       3.030   4.192  -5.341  0.00  0.00    +0.000 NA
ATOM     25  C   UNL     1       3.100   3.427  -4.470  0.00  0.00    +0.000 C 
ENDBRANCH  18  25
ENDBRANCH  16  21
ENDBRANCH   1  16
TORSDOF 5
