REMARK  Name = 
REMARK  3 active torsions:
REMARK  status: ('A' for Active; 'I' for Inactive)
REMARK    1  A    between atoms: C_2  and  C_4
REMARK    2  A    between atoms: N_8  and  C_9
REMARK    3  A    between atoms: C_9  and  C_10
REMARK                            x       y       z     vdW  Elec       q    Type
REMARK                         _______ _______ _______ _____ _____    ______ ____
ROOT
ATOM      1  C   UNL     1       2.525  -2.008  -0.105  0.00  0.00    +0.000 A 
ATOM      2  C   UNL     1       3.786  -1.430  -0.198  0.00  0.00    +0.000 A 
ATOM      3  C   UNL     1       4.724  -1.999  -1.057  0.00  0.00    +0.000 A 
ATOM      4  C   UNL     1       4.384  -3.115  -1.827  0.00  0.00    +0.000 A 
ATOM      5  N   UNL     1       5.366  -3.578  -2.730  0.00  0.00    +0.000 N 
ATOM      6  N   UNL     1       3.167  -3.688  -1.737  0.00  0.00    +0.000 NA
ATOM      7  C   UNL     1       2.276  -3.144  -0.865  0.00  0.00    +0.000 A 
ATOM      8  H   UNL     1       6.214  -3.807  -2.223  0.00  0.00    +0.000 HD
ENDROOT
BRANCH   1  10
ATOM      9  N   UNL     1       1.480  -0.121   1.011  0.00  0.00    +0.000 N 
ATOM     10  C   UNL     1       1.464  -1.466   0.767  0.00  0.00    +0.000 C 
ATOM     11  O   UNL     1       0.585  -2.185   1.226  0.00  0.00    +0.000 OA
ATOM     12  H   UNL     1       0.690   0.255   1.520  0.00  0.00    +0.000 HD
ATOM     13  H   UNL     1       2.020   0.526   0.450  0.00  0.00    +0.000 HD
ENDBRANCH   1  10
BRANCH   5  14
ATOM     14  C   UNL     1       5.062  -4.399  -3.921  0.00  0.00    +0.000 C 
ATOM     15  C   UNL     1       5.232  -3.633  -5.228  0.00  0.00    +0.000 C 
ATOM     16  C   UNL     1       3.878  -4.115  -4.824  0.00  0.00    +0.000 C 
BRANCH  14  17
ATOM     17  C   UNL     1       5.530  -5.858  -3.890  0.00  0.00    +0.000 C 
ATOM     18  C   UNL     1       4.869  -6.641  -2.746  0.00  0.00    +0.000 C 
ATOM     19  C   UNL     1       5.292  -8.108  -2.765  0.00  0.00    +0.000 C 
ATOM     20  C   UNL     1       6.810  -8.255  -2.723  0.00  0.00    +0.000 C 
ATOM     21  C   UNL     1       7.490  -7.455  -3.831  0.00  0.00    +0.000 C 
ATOM     22  C   UNL     1       7.059  -5.987  -3.818  0.00  0.00    +0.000 C 
ENDBRANCH  14  17
ENDBRANCH   5  14
TORSDOF 3
