REMARK  Name = 
REMARK  7 active torsions:
REMARK  status: ('A' for Active; 'I' for Inactive)
REMARK    1  A    between atoms: C_1  and  O_2
REMARK    2  A    between atoms: O_2  and  C_3
REMARK    3  A    between atoms: C_3  and  C_4
REMARK    4  A    between atoms: C_6  and  C_7
REMARK    5  A    between atoms: C_7  and  N_8
REMARK    6  A    between atoms: C_9  and  C_11
REMARK    7  A    between atoms: C_24  and  C_26
REMARK                            x       y       z     vdW  Elec       q    Type
REMARK                         _______ _______ _______ _____ _____    ______ ____
ROOT
ATOM      1  C   UNL     1       4.268  -0.493  -1.115  0.00  0.00    +0.000 C 
ATOM      2  C   UNL     1       4.806  -1.220  -2.363  0.00  0.00    +0.000 C 
ATOM      3  C   UNL     1       6.353  -1.175  -2.429  0.00  0.00    +0.000 C 
ATOM      4  C   UNL     1       6.945  -1.689  -1.105  0.00  0.00    +0.000 C 
ATOM      5  C   UNL     1       6.317  -1.003   0.120  0.00  0.00    +0.000 C 
ATOM      6  N   UNL     1       4.860  -1.148   0.080  0.00  0.00    +0.000 N 
ATOM      7  C   UNL     1       4.112  -2.002   0.905  0.00  0.00    +0.000 C 
ATOM      8  O   UNL     1       2.892  -2.129   0.840  0.00  0.00    +0.000 OA
ENDROOT
BRANCH   7   9
ATOM      9  C   UNL     1       4.770  -2.855   1.933  0.00  0.00    +0.000 A 
ATOM     10  C   UNL     1       4.180  -2.972   3.197  0.00  0.00    +0.000 A 
ATOM     11  C   UNL     1       4.729  -3.832   4.154  0.00  0.00    +0.000 A 
ATOM     12  C   UNL     1       5.878  -4.568   3.853  0.00  0.00    +0.000 A 
ATOM     13  C   UNL     1       6.450  -4.478   2.594  0.00  0.00    +0.000 A 
ATOM     14  C   UNL     1       5.872  -3.659   1.627  0.00  0.00    +0.000 A 
ENDBRANCH   7   9
BRANCH   1  15
ATOM     15  C   UNL     1       2.736  -0.301  -1.208  0.00  0.00    +0.000 C 
BRANCH  15  17
ATOM     16  C   UNL     1       2.701   1.774  -0.015  0.00  0.00    +0.000 C 
ATOM     17  O   UNL     1       2.150   0.476  -0.158  0.00  0.00    +0.000 OA
ENDBRANCH  15  17
ENDBRANCH   1  15
BRANCH   3  18
ATOM     18  C   UNL     1       6.939   0.211  -2.745  0.00  0.00    +0.000 C 
BRANCH  18  19
ATOM     19  N   UNL     1       6.484   0.728  -4.011  0.00  0.00    +0.000 N 
ATOM     20  C   UNL     1       5.440   1.612  -4.109  0.00  0.00    +0.000 C 
ATOM     21  O   UNL     1       4.845   2.032  -3.119  0.00  0.00    +0.000 OA
ATOM     22  H   UNL     1       6.853   0.289  -4.849  0.00  0.00    +0.000 HD
BRANCH  20  23
ATOM     23  C   UNL     1       5.092   2.069  -5.453  0.00  0.00    +0.000 A 
ATOM     24  C   UNL     1       4.385   3.253  -5.605  0.00  0.00    +0.000 A 
ATOM     25  S   UNL     1       4.109   3.678  -7.231  0.00  0.00    +0.000 S 
ATOM     26  C   UNL     1       4.876   2.264  -7.786  0.00  0.00    +0.000 A 
ATOM     27  N   UNL     1       4.970   1.997  -9.116  0.00  0.00    +0.000 NA
ATOM     28  C   UNL     1       5.539   0.873  -9.395  0.00  0.00    +0.000 A 
ATOM     29  N   UNL     1       6.030  -0.008  -8.466  0.00  0.00    +0.000 N 
ATOM     30  C   UNL     1       5.997   0.239  -7.114  0.00  0.00    +0.000 A 
ATOM     31  O   UNL     1       6.509  -0.537  -6.313  0.00  0.00    +0.000 OA
ATOM     32  C   UNL     1       5.349   1.483  -6.744  0.00  0.00    +0.000 A 
ATOM     33  H   UNL     1       6.481  -0.864  -8.754  0.00  0.00    +0.000 HD
ENDBRANCH  20  23
ENDBRANCH  18  19
ENDBRANCH   3  18
TORSDOF 6
