REMARK  Name = 
REMARK  7 active torsions:
REMARK  status: ('A' for Active; 'I' for Inactive)
REMARK    1  A    between atoms: C_1  and  C_2
REMARK    2  A    between atoms: C_2  and  N_3
REMARK    3  A    between atoms: C_2  and  C_16
REMARK    4  A    between atoms: C_4  and  C_6
REMARK    5  A    between atoms: C_19  and  C_20
REMARK    6  A    between atoms: C_20  and  N_21
REMARK    7  A    between atoms: C_22  and  C_24
REMARK                            x       y       z     vdW  Elec       q    Type
REMARK                         _______ _______ _______ _____ _____    ______ ____
ROOT
ATOM      1  C   UNL     1       1.418  -0.551  -0.995  0.00  0.00    +0.000 C 
ATOM      2  C   UNL     1       2.472  -0.077   0.014  0.00  0.00    +0.000 C 
ENDROOT
BRANCH   2   3
ATOM      3  C   UNL     1       2.799  -1.105   1.087  0.00  0.00    +0.000 A 
ATOM      4  C   UNL     1       3.199  -0.675   2.364  0.00  0.00    +0.000 A 
ATOM      5  C   UNL     1       3.490  -1.595   3.378  0.00  0.00    +0.000 A 
ATOM      6  C   UNL     1       3.403  -2.971   3.134  0.00  0.00    +0.000 A 
ATOM      7  C   UNL     1       3.034  -3.405   1.857  0.00  0.00    +0.000 A 
ATOM      8  C   UNL     1       2.749  -2.486   0.845  0.00  0.00    +0.000 A 
BRANCH   6   9
ATOM      9  C   UNL     1       3.663  -3.980   4.222  0.00  0.00    +0.000 C 
BRANCH   9  10
ATOM     10  N   UNL     1       2.442  -4.342   4.907  0.00  0.00    +0.000 N 
ATOM     11  C   UNL     1       2.454  -5.205   5.974  0.00  0.00    +0.000 C 
ATOM     12  O   UNL     1       3.487  -5.748   6.365  0.00  0.00    +0.000 OA
ATOM     13  H   UNL     1       1.564  -3.977   4.552  0.00  0.00    +0.000 HD
BRANCH  11  14
ATOM     14  C   UNL     1       1.110  -5.543   6.611  0.00  0.00    +0.000 C 
ATOM     15  C   UNL     1       0.413  -6.680   5.900  0.00  0.00    +0.000 C 
ATOM     16  C   UNL     1      -0.390  -5.978   4.825  0.00  0.00    +0.000 C 
ATOM     17  O   UNL     1      -0.588  -4.621   5.255  0.00  0.00    +0.000 OA
ATOM     18  C   UNL     1       0.084  -4.435   6.513  0.00  0.00    +0.000 C 
ENDBRANCH  11  14
ENDBRANCH   9  10
ENDBRANCH   6   9
ENDBRANCH   2   3
BRANCH   2  19
ATOM     19  N   UNL     1       3.693   0.306  -0.669  0.00  0.00    +0.000 N 
ATOM     20  C   UNL     1       3.840   1.515  -1.294  0.00  0.00    +0.000 C 
ATOM     21  O   UNL     1       2.998   2.407  -1.222  0.00  0.00    +0.000 OA
ATOM     22  H   UNL     1       4.336  -0.447  -0.892  0.00  0.00    +0.000 HD
BRANCH  20  23
ATOM     23  C   UNL     1       5.097   1.713  -2.024  0.00  0.00    +0.000 A 
ATOM     24  C   UNL     1       5.633   2.986  -2.156  0.00  0.00    +0.000 A 
ATOM     25  S   UNL     1       7.093   3.022  -3.037  0.00  0.00    +0.000 S 
ATOM     26  C   UNL     1       7.028   1.344  -3.318  0.00  0.00    +0.000 A 
ATOM     27  N   UNL     1       7.976   0.724  -4.070  0.00  0.00    +0.000 NA
ATOM     28  C   UNL     1       7.780  -0.542  -4.236  0.00  0.00    +0.000 A 
ATOM     29  N   UNL     1       6.729  -1.247  -3.704  0.00  0.00    +0.000 N 
ATOM     30  C   UNL     1       5.780  -0.677  -2.888  0.00  0.00    +0.000 A 
ATOM     31  O   UNL     1       4.915  -1.353  -2.341  0.00  0.00    +0.000 OA
ATOM     32  C   UNL     1       5.929   0.758  -2.710  0.00  0.00    +0.000 A 
ATOM     33  H   UNL     1       6.653  -2.243  -3.849  0.00  0.00    +0.000 HD
ENDBRANCH  20  23
ENDBRANCH   2  19
TORSDOF 6
