REMARK  Name = 
REMARK  5 active torsions:
REMARK  status: ('A' for Active; 'I' for Inactive)
REMARK    1  A    between atoms: C_8  and  C_9
REMARK    2  A    between atoms: N_11  and  C_12
REMARK    3  A    between atoms: C_12  and  C_13
REMARK    4  A    between atoms: C_16  and  O_17
REMARK    5  A    between atoms: O_17  and  C_18
REMARK                            x       y       z     vdW  Elec       q    Type
REMARK                         _______ _______ _______ _____ _____    ______ ____
ROOT
ATOM      1  C   UNL     1       6.451  -2.885  -0.036  0.00  0.00    +0.000 C 
ATOM      2  O   UNL     1       6.711  -4.085  -0.045  0.00  0.00    +0.000 OA
ATOM      3  N   UNL     1       7.447  -1.945  -0.024  0.00  0.00    +0.000 N 
ATOM      4  H   UNL     1       7.228  -0.952   0.014  0.00  0.00    +0.000 HD
ENDROOT
BRANCH   1  12
ATOM      5  N   UNL     1       0.916   0.080  -0.293  0.00  0.00    +0.000 N 
ATOM      6  C   UNL     1       2.278   0.085  -0.171  0.00  0.00    +0.000 A 
ATOM      7  N   UNL     1       2.864   1.256  -0.117  0.00  0.00    +0.000 NA
ATOM      8  N   UNL     1       4.238   1.305  -0.028  0.00  0.00    +0.000 N 
ATOM      9  C   UNL     1       5.108   0.229  -0.007  0.00  0.00    +0.000 A 
ATOM     10  O   UNL     1       6.323   0.398   0.048  0.00  0.00    +0.000 OA
ATOM     11  C   UNL     1       4.479  -1.081  -0.044  0.00  0.00    +0.000 A 
ATOM     12  C   UNL     1       5.050  -2.414  -0.043  0.00  0.00    +0.000 A 
ATOM     13  C   UNL     1       4.023  -3.353  -0.063  0.00  0.00    +0.000 A 
ATOM     14  S   UNL     1       2.458  -2.672  -0.108  0.00  0.00    +0.000 S 
ATOM     15  C   UNL     1       3.101  -1.108  -0.107  0.00  0.00    +0.000 A 
ATOM     16  H   UNL     1       0.470   0.959  -0.060  0.00  0.00    +0.000 HD
ATOM     17  H   UNL     1       0.421  -0.755  -0.008  0.00  0.00    +0.000 HD
ATOM     18  H   UNL     1       4.653   2.231  -0.017  0.00  0.00    +0.000 HD
ENDBRANCH   1  12
BRANCH   3  19
ATOM     19  C   UNL     1       8.845  -2.321  -0.028  0.00  0.00    +0.000 C 
BRANCH  19  20
ATOM     20  C   UNL     1       9.753  -1.122  -0.004  0.00  0.00    +0.000 A 
ATOM     21  C   UNL     1      10.150  -0.561   1.221  0.00  0.00    +0.000 A 
ATOM     22  C   UNL     1      10.991   0.556   1.254  0.00  0.00    +0.000 A 
ATOM     23  C   UNL     1      11.478   1.109   0.069  0.00  0.00    +0.000 A 
ATOM     24  C   UNL     1      11.065   0.579  -1.155  0.00  0.00    +0.000 A 
ATOM     25  C   UNL     1      10.208  -0.529  -1.192  0.00  0.00    +0.000 A 
BRANCH  23  26
ATOM     26  O   UNL     1      12.290   2.222   0.015  0.00  0.00    +0.000 OA
BRANCH  26  27
ATOM     27  C   UNL     1      13.279   2.370   0.983  0.00  0.00    +0.000 A 
ATOM     28  C   UNL     1      13.738   3.661   1.209  0.00  0.00    +0.000 A 
ATOM     29  C   UNL     1      14.717   3.852   2.182  0.00  0.00    +0.000 A 
ATOM     30  C   UNL     1      15.202   2.755   2.885  0.00  0.00    +0.000 A 
ATOM     31  C   UNL     1      14.702   1.503   2.572  0.00  0.00    +0.000 A 
ATOM     32  N   UNL     1      13.766   1.286   1.627  0.00  0.00    +0.000 NA
ENDBRANCH  26  27
ENDBRANCH  23  26
ENDBRANCH  19  20
ENDBRANCH   3  19
TORSDOF 5
