REMARK  Name = 
REMARK  7 active torsions:
REMARK  status: ('A' for Active; 'I' for Inactive)
REMARK    1  A    between atoms: C_1  and  O_2
REMARK    2  A    between atoms: O_2  and  C_3
REMARK    3  A    between atoms: C_3  and  C_5
REMARK    4  A    between atoms: C_8  and  N_9
REMARK    5  A    between atoms: N_9  and  C_10
REMARK    6  A    between atoms: C_10  and  C_11
REMARK    7  A    between atoms: C_14  and  N_15
REMARK                            x       y       z     vdW  Elec       q    Type
REMARK                         _______ _______ _______ _____ _____    ______ ____
ROOT
ATOM      1  N   UNL     1       8.818  -0.988   1.275  0.00  0.00    +0.000 N 
ATOM      2  H   UNL     1       9.195  -1.756   0.722  0.00  0.00    +0.000 HD
ENDROOT
BRANCH   1   6
ATOM      3  C   UNL     1       4.622  -0.806   0.913  0.00  0.00    +0.000 A 
ATOM      4  C   UNL     1       5.409   0.080   0.169  0.00  0.00    +0.000 A 
ATOM      5  C   UNL     1       6.806   0.026   0.262  0.00  0.00    +0.000 A 
ATOM      6  C   UNL     1       7.433  -0.891   1.113  0.00  0.00    +0.000 A 
ATOM      7  C   UNL     1       6.635  -1.821   1.790  0.00  0.00    +0.000 A 
ATOM      8  C   UNL     1       5.242  -1.775   1.705  0.00  0.00    +0.000 A 
BRANCH   3   9
ATOM      9  C   UNL     1       3.139  -0.757   0.896  0.00  0.00    +0.000 C 
ATOM     10  O   UNL     1       2.429  -1.697   1.220  0.00  0.00    +0.000 OA
BRANCH   9  12
ATOM     11  C   UNL     1       1.296   0.643   0.611  0.00  0.00    +0.000 C 
ATOM     12  O   UNL     1       2.715   0.483   0.547  0.00  0.00    +0.000 OA
ENDBRANCH   9  12
ENDBRANCH   3   9
ENDBRANCH   1   6
BRANCH   1  13
ATOM     13  C   UNL     1       9.620   0.221   1.131  0.00  0.00    +0.000 C 
BRANCH  13  14
ATOM     14  C   UNL     1      10.895   0.127   1.941  0.00  0.00    +0.000 A 
ATOM     15  C   UNL     1      12.028   0.849   1.542  0.00  0.00    +0.000 A 
ATOM     16  C   UNL     1      13.184   0.860   2.333  0.00  0.00    +0.000 A 
ATOM     17  C   UNL     1      13.250   0.123   3.516  0.00  0.00    +0.000 A 
ATOM     18  C   UNL     1      12.104  -0.545   3.948  0.00  0.00    +0.000 A 
ATOM     19  C   UNL     1      10.944  -0.555   3.165  0.00  0.00    +0.000 A 
BRANCH  17  20
ATOM     20  N   UNL     1      14.354   0.256   4.369  0.00  0.00    +0.000 N 
ATOM     21  H   UNL     1      15.220   0.470   3.886  0.00  0.00    +0.000 HD
ATOM     22  H   UNL     1      14.457  -0.513   5.023  0.00  0.00    +0.000 HD
ENDBRANCH  17  20
ENDBRANCH  13  14
ENDBRANCH   1  13
TORSDOF 6
