REMARK  Name = 
REMARK  3 active torsions:
REMARK  status: ('A' for Active; 'I' for Inactive)
REMARK    1  A    between atoms: C_2  and  C_4
REMARK    2  A    between atoms: N_8  and  C_9
REMARK    3  A    between atoms: C_9  and  C_10
REMARK                            x       y       z     vdW  Elec       q    Type
REMARK                         _______ _______ _______ _____ _____    ______ ____
ROOT
ATOM      1  C   UNL     1       2.440   1.841   0.891  0.00  0.00    +0.000 A 
ATOM      2  C   UNL     1       2.145   1.982   2.242  0.00  0.00    +0.000 A 
ATOM      3  C   UNL     1       2.978   2.767   3.040  0.00  0.00    +0.000 A 
ATOM      4  C   UNL     1       4.102   3.373   2.485  0.00  0.00    +0.000 A 
ATOM      5  N   UNL     1       4.925   4.239   3.190  0.00  0.00    +0.000 N 
ATOM      6  N   UNL     1       4.415   3.214   1.185  0.00  0.00    +0.000 NA
ATOM      7  C   UNL     1       3.588   2.454   0.417  0.00  0.00    +0.000 A 
ATOM      8  H   UNL     1       5.759   4.379   2.621  0.00  0.00    +0.000 HD
ENDROOT
BRANCH   1  10
ATOM      9  N   UNL     1       0.265   0.951   0.284  0.00  0.00    +0.000 N 
ATOM     10  C   UNL     1       1.587   1.077  -0.041  0.00  0.00    +0.000 C 
ATOM     11  O   UNL     1       2.031   0.608  -1.080  0.00  0.00    +0.000 OA
ATOM     12  H   UNL     1      -0.330   0.521  -0.415  0.00  0.00    +0.000 HD
ATOM     13  H   UNL     1      -0.186   1.528   0.982  0.00  0.00    +0.000 HD
ENDBRANCH   1  10
BRANCH   5  14
ATOM     14  C   UNL     1       5.189   3.948   4.589  0.00  0.00    +0.000 C 
BRANCH  14  15
ATOM     15  C   UNL     1       6.138   4.948   5.212  0.00  0.00    +0.000 A 
ATOM     16  C   UNL     1       5.880   6.300   5.171  0.00  0.00    +0.000 A 
ATOM     17  C   UNL     1       6.741   7.086   5.894  0.00  0.00    +0.000 A 
ATOM     18  N   UNL     1       7.765   6.602   6.621  0.00  0.00    +0.000 NA
ATOM     19  C   UNL     1       7.964   5.275   6.606  0.00  0.00    +0.000 A 
ATOM     20  N   UNL     1       8.948   4.722   7.384  0.00  0.00    +0.000 N 
ATOM     21  C   UNL     1       9.723   5.527   8.323  0.00  0.00    +0.000 C 
ATOM     22  C   UNL     1      11.186   5.628   7.870  0.00  0.00    +0.000 C 
ATOM     23  O   UNL     1      11.755   4.332   7.616  0.00  0.00    +0.000 OA
ATOM     24  C   UNL     1      11.012   3.660   6.584  0.00  0.00    +0.000 C 
ATOM     25  C   UNL     1       9.546   3.446   6.994  0.00  0.00    +0.000 C 
ATOM     26  N   UNL     1       7.181   4.441   5.904  0.00  0.00    +0.000 NA
ENDBRANCH  14  15
ENDBRANCH   5  14
TORSDOF 3
