REMARK  Name = 
REMARK  9 active torsions:
REMARK  status: ('A' for Active; 'I' for Inactive)
REMARK    1  A    between atoms: C_1  and  C_2
REMARK    2  A    between atoms: C_2  and  C_3
REMARK    3  A    between atoms: C_5  and  O_6
REMARK    4  A    between atoms: O_6  and  C_7
REMARK    5  A    between atoms: C_9  and  C_10
REMARK    6  A    between atoms: C_10  and  C_11
REMARK    7  A    between atoms: C_11  and  N_12
REMARK    8  A    between atoms: C_16  and  C_17
REMARK    9  A    between atoms: C_23  and  C_24
REMARK                            x       y       z     vdW  Elec       q    Type
REMARK                         _______ _______ _______ _____ _____    ______ ____
ROOT
ATOM      1  C   UNL     1      -3.903   0.691   0.854  0.00  0.00    +0.000 A 
ATOM      2  C   UNL     1      -3.595   0.722   2.220  0.00  0.00    +0.000 A 
ATOM      3  C   UNL     1      -4.611   0.734   3.189  0.00  0.00    +0.000 A 
ATOM      4  C   UNL     1      -5.944   0.720   2.743  0.00  0.00    +0.000 A 
ATOM      5  C   UNL     1      -6.267   0.728   1.379  0.00  0.00    +0.000 A 
ATOM      6  C   UNL     1      -5.232   0.709   0.437  0.00  0.00    +0.000 A 
ENDROOT
BRANCH   5   7
ATOM      7  C   UNL     1      -7.703   0.783   0.921  0.00  0.00    +0.000 C 
ATOM      8  F   UNL     1      -8.601   0.850   1.944  0.00  0.00    +0.000 F 
ATOM      9  F   UNL     1      -7.953   1.867   0.136  0.00  0.00    +0.000 F 
ATOM     10  F   UNL     1      -8.058  -0.304   0.183  0.00  0.00    +0.000 F 
ENDBRANCH   5   7
BRANCH   1  11
ATOM     11  O   UNL     1      -2.836   0.684  -0.013  0.00  0.00    +0.000 OA
BRANCH  11  16
ATOM     12  C   UNL     1      -3.015  -1.418  -3.984  0.00  0.00    +0.000 C 
ATOM     13  C   UNL     1      -2.294  -1.445  -2.636  0.00  0.00    +0.000 C 
ATOM     14  C   UNL     1      -1.254  -2.558  -2.579  0.00  0.00    +0.000 C 
ATOM     15  C   UNL     1      -3.247  -1.408  -1.412  0.00  0.00    +0.000 C 
ATOM     16  C   UNL     1      -3.039   0.127  -1.333  0.00  0.00    +0.000 C 
ATOM     17  C   UNL     1      -1.753  -0.065  -2.170  0.00  0.00    +0.000 C 
ENDBRANCH  11  16
ENDBRANCH   1  11
BRANCH   3  18
ATOM     18  C   UNL     1      -4.242   0.785   4.666  0.00  0.00    +0.000 C 
BRANCH  18  19
ATOM     19  C   UNL     1      -5.453   0.785   5.609  0.00  0.00    +0.000 C 
BRANCH  19  20
ATOM     20  N   UNL     1      -5.092   0.866   7.027  0.00  0.00    +0.000 N 
ATOM     21  C   UNL     1      -6.251   0.883   7.841  0.00  0.00    +0.000 A 
ATOM     22  C   UNL     1      -6.105   0.980   9.221  0.00  0.00    +0.000 A 
ATOM     23  C   UNL     1      -7.245   0.991  10.033  0.00  0.00    +0.000 A 
ATOM     24  C   UNL     1      -8.513   0.904   9.457  0.00  0.00    +0.000 A 
ATOM     25  C   UNL     1      -8.566   0.796   8.080  0.00  0.00    +0.000 A 
ATOM     26  N   UNL     1      -7.474   0.780   7.277  0.00  0.00    +0.000 NA
ATOM     27  H   UNL     1      -4.545   1.696   7.240  0.00  0.00    +0.000 HD
BRANCH  24  28
ATOM     28  C   UNL     1      -9.717   0.926  10.321  0.00  0.00    +0.000 C 
ATOM     29  N   UNL     1     -10.956   0.873   9.743  0.00  0.00    +0.000 N 
ATOM     30  O   UNL     1      -9.618   1.003  11.541  0.00  0.00    +0.000 OA
ATOM     31  H   UNL     1     -11.155   0.830   8.756  0.00  0.00    +0.000 HD
ATOM     32  H   UNL     1     -11.748   0.906  10.373  0.00  0.00    +0.000 HD
ENDBRANCH  24  28
ENDBRANCH  19  20
ENDBRANCH  18  19
ENDBRANCH   3  18
TORSDOF 7
