REMARK  Name = 
REMARK  6 active torsions:
REMARK  status: ('A' for Active; 'I' for Inactive)
REMARK    1  A    between atoms: C_2  and  C_4
REMARK    2  A    between atoms: C_7  and  N_8
REMARK    3  A    between atoms: N_8  and  C_9
REMARK    4  A    between atoms: C_9  and  C_10
REMARK    5  A    between atoms: C_10  and  C_11
REMARK    6  A    between atoms: C_15  and  C_16
REMARK                            x       y       z     vdW  Elec       q    Type
REMARK                         _______ _______ _______ _____ _____    ______ ____
ROOT
ATOM      1  C   UNL     1       5.268  -4.966   3.101  0.00  0.00    +0.000 C 
ENDROOT
BRANCH   1   2
ATOM      2  N   UNL     1       5.666  -3.598   2.792  0.00  0.00    +0.000 N 
ATOM      3  H   UNL     1       6.110  -3.088   3.554  0.00  0.00    +0.000 HD
BRANCH   2   7
ATOM      4  C   UNL     1       3.374  -1.105   0.267  0.00  0.00    +0.000 A 
ATOM      5  C   UNL     1       2.906  -2.383   0.578  0.00  0.00    +0.000 A 
ATOM      6  C   UNL     1       3.644  -3.211   1.433  0.00  0.00    +0.000 A 
ATOM      7  C   UNL     1       4.841  -2.779   2.017  0.00  0.00    +0.000 A 
ATOM      8  C   UNL     1       5.297  -1.494   1.690  0.00  0.00    +0.000 A 
ATOM      9  C   UNL     1       4.578  -0.665   0.821  0.00  0.00    +0.000 A 
BRANCH   4  11
ATOM     10  N   UNL     1       1.309  -0.392  -0.816  0.00  0.00    +0.000 N 
ATOM     11  C   UNL     1       2.659  -0.219  -0.688  0.00  0.00    +0.000 C 
ATOM     12  O   UNL     1       3.245   0.650  -1.322  0.00  0.00    +0.000 OA
ATOM     13  H   UNL     1       0.826   0.273  -1.406  0.00  0.00    +0.000 HD
ATOM     14  H   UNL     1       0.761  -0.917  -0.150  0.00  0.00    +0.000 HD
ENDBRANCH   4  11
ENDBRANCH   2   7
ENDBRANCH   1   2
BRANCH   1  15
ATOM     15  C   UNL     1       6.343  -5.669   3.937  0.00  0.00    +0.000 C 
BRANCH  15  16
ATOM     16  C   UNL     1       5.965  -7.101   4.208  0.00  0.00    +0.000 A 
ATOM     17  C   UNL     1       5.173  -7.436   5.298  0.00  0.00    +0.000 A 
ATOM     18  N   UNL     1       4.747  -8.686   5.556  0.00  0.00    +0.000 NA
ATOM     19  C   UNL     1       5.126  -9.654   4.684  0.00  0.00    +0.000 A 
ATOM     20  C   UNL     1       5.928  -9.458   3.555  0.00  0.00    +0.000 A 
ATOM     21  C   UNL     1       6.342  -8.136   3.337  0.00  0.00    +0.000 A 
BRANCH  20  22
ATOM     22  C   UNL     1       6.291 -10.573   2.649  0.00  0.00    +0.000 A 
ATOM     23  C   UNL     1       6.488 -11.882   3.136  0.00  0.00    +0.000 A 
ATOM     24  C   UNL     1       6.800 -12.947   2.281  0.00  0.00    +0.000 A 
ATOM     25  C   UNL     1       6.938 -12.723   0.917  0.00  0.00    +0.000 A 
ATOM     26  C   UNL     1       6.764 -11.439   0.423  0.00  0.00    +0.000 A 
ATOM     27  F   UNL     1       6.899 -11.216  -0.891  0.00  0.00    +0.000 F 
ATOM     28  C   UNL     1       6.443 -10.376   1.266  0.00  0.00    +0.000 A 
ENDBRANCH  20  22
ENDBRANCH  15  16
ENDBRANCH   1  15
TORSDOF 6
