REMARK  Name = 
REMARK  4 active torsions:
REMARK  status: ('A' for Active; 'I' for Inactive)
REMARK    1  A    between atoms: C_2  and  C_4
REMARK    2  A    between atoms: C_7  and  N_8
REMARK    3  A    between atoms: N_8  and  C_9
REMARK    4  A    between atoms: C_9  and  C_10
REMARK                            x       y       z     vdW  Elec       q    Type
REMARK                         _______ _______ _______ _____ _____    ______ ____
ROOT
ATOM      1  C   UNL     1       8.599  -1.031  -2.555  0.00  0.00    +0.000 A 
ATOM      2  C   UNL     1       8.512  -1.831  -3.684  0.00  0.00    +0.000 A 
ATOM      3  N   UNL     1       7.393  -2.538  -3.993  0.00  0.00    +0.000 NA
ATOM      4  C   UNL     1       6.354  -2.445  -3.131  0.00  0.00    +0.000 A 
ATOM      5  C   UNL     1       6.477  -1.643  -1.984  0.00  0.00    +0.000 A 
ATOM      6  N   UNL     1       7.574  -0.905  -1.673  0.00  0.00    +0.000 NA
ENDROOT
BRANCH   1   8
ATOM      7  N   UNL     1       9.840   0.487  -1.140  0.00  0.00    +0.000 N 
ATOM      8  C   UNL     1       9.850  -0.274  -2.277  0.00  0.00    +0.000 C 
ATOM      9  O   UNL     1      10.829  -0.325  -3.013  0.00  0.00    +0.000 OA
ATOM     10  H   UNL     1      10.668   1.010  -0.886  0.00  0.00    +0.000 HD
ATOM     11  H   UNL     1       9.025   0.495  -0.540  0.00  0.00    +0.000 HD
ENDBRANCH   1   8
BRANCH   4  12
ATOM     12  N   UNL     1       5.171  -3.202  -3.324  0.00  0.00    +0.000 N 
ATOM     13  H   UNL     1       4.377  -2.698  -2.943  0.00  0.00    +0.000 HD
BRANCH  12  14
ATOM     14  C   UNL     1       4.896  -3.774  -4.669  0.00  0.00    +0.000 C 
ATOM     15  C   UNL     1       4.698  -2.829  -5.843  0.00  0.00    +0.000 C 
ATOM     16  C   UNL     1       3.511  -3.522  -5.263  0.00  0.00    +0.000 C 
BRANCH  14  17
ATOM     17  C   UNL     1       5.469  -5.168  -4.923  0.00  0.00    +0.000 A 
ATOM     18  C   UNL     1       4.833  -6.321  -4.425  0.00  0.00    +0.000 A 
ATOM     19  C   UNL     1       5.280  -7.604  -4.754  0.00  0.00    +0.000 A 
ATOM     20  C   UNL     1       6.387  -7.763  -5.583  0.00  0.00    +0.000 A 
ATOM     21  C   UNL     1       7.059  -6.642  -6.058  0.00  0.00    +0.000 A 
ATOM     22  C   UNL     1       6.609  -5.362  -5.722  0.00  0.00    +0.000 A 
ENDBRANCH  14  17
ENDBRANCH  12  14
ENDBRANCH   4  12
TORSDOF 4
