REMARK  Name = 
REMARK  9 active torsions:
REMARK  status: ('A' for Active; 'I' for Inactive)
REMARK    1  A    between atoms: C_1  and  C_2
REMARK    2  A    between atoms: C_2  and  C_3
REMARK    3  A    between atoms: C_3  and  N_4
REMARK    4  A    between atoms: C_3  and  C_17
REMARK    5  A    between atoms: C_5  and  C_7
REMARK    6  A    between atoms: C_20  and  C_21
REMARK    7  A    between atoms: C_21  and  C_22
REMARK    8  A    between atoms: C_22  and  O_23
REMARK    9  A    between atoms: C_22  and  C_24
REMARK                            x       y       z     vdW  Elec       q    Type
REMARK                         _______ _______ _______ _____ _____    ______ ____
ROOT
ATOM      1  C   UNL     1       3.049  -0.999  -1.041  0.00  0.00    +0.000 C 
ENDROOT
BRANCH   1   2
ATOM      2  C   UNL     1       4.554  -1.125  -1.179  0.00  0.00    +0.000 A 
ATOM      3  C   UNL     1       5.180  -2.344  -0.923  0.00  0.00    +0.000 A 
ATOM      4  C   UNL     1       6.519  -2.523  -1.258  0.00  0.00    +0.000 A 
ATOM      5  C   UNL     1       7.219  -1.468  -1.839  0.00  0.00    +0.000 A 
ATOM      6  N   UNL     1       6.659  -0.248  -2.024  0.00  0.00    +0.000 NA
ATOM      7  C   UNL     1       5.353  -0.105  -1.694  0.00  0.00    +0.000 A 
BRANCH   5   8
ATOM      8  C   UNL     1       8.638  -1.657  -2.325  0.00  0.00    +0.000 C 
BRANCH   8   9
ATOM      9  C   UNL     1       8.751  -2.718  -3.439  0.00  0.00    +0.000 C 
BRANCH   9  10
ATOM     10  C   UNL     1      10.178  -2.985  -3.898  0.00  0.00    +0.000 A 
ATOM     11  C   UNL     1      10.402  -3.932  -4.900  0.00  0.00    +0.000 A 
ATOM     12  C   UNL     1      11.704  -4.178  -5.329  0.00  0.00    +0.000 A 
ATOM     13  C   UNL     1      12.751  -3.472  -4.748  0.00  0.00    +0.000 A 
ATOM     14  C   UNL     1      12.448  -2.552  -3.765  0.00  0.00    +0.000 A 
ATOM     15  N   UNL     1      11.194  -2.292  -3.326  0.00  0.00    +0.000 NA
ENDBRANCH   9  10
BRANCH   9  16
ATOM     16  O   UNL     1       7.976  -2.342  -4.588  0.00  0.00    +0.000 OA
ATOM     17  H   UNL     1       8.195  -1.412  -4.776  0.00  0.00    +0.000 HD
ENDBRANCH   9  16
ENDBRANCH   8   9
ENDBRANCH   5   8
ENDBRANCH   1   2
BRANCH   1  18
ATOM     18  N   UNL     1       2.711   0.054  -0.102  0.00  0.00    +0.000 N 
ATOM     19  C   UNL     1       1.572   0.061   0.664  0.00  0.00    +0.000 C 
ATOM     20  O   UNL     1       0.805  -0.893   0.732  0.00  0.00    +0.000 OA
ATOM     21  H   UNL     1       3.192   0.934  -0.239  0.00  0.00    +0.000 HD
BRANCH  19  22
ATOM     22  C   UNL     1       1.343   1.293   1.432  0.00  0.00    +0.000 A 
ATOM     23  C   UNL     1       0.685   1.266   2.653  0.00  0.00    +0.000 A 
ATOM     24  S   UNL     1       0.527   2.811   3.370  0.00  0.00    +0.000 S 
ATOM     25  C   UNL     1       1.273   3.570   2.041  0.00  0.00    +0.000 A 
ATOM     26  N   UNL     1       1.403   4.920   1.979  0.00  0.00    +0.000 NA
ATOM     27  C   UNL     1       1.944   5.356   0.889  0.00  0.00    +0.000 A 
ATOM     28  N   UNL     1       2.387   4.560  -0.134  0.00  0.00    +0.000 N 
ATOM     29  C   UNL     1       2.356   3.188  -0.079  0.00  0.00    +0.000 A 
ATOM     30  O   UNL     1       2.893   2.507  -0.945  0.00  0.00    +0.000 OA
ATOM     31  C   UNL     1       1.691   2.653   1.095  0.00  0.00    +0.000 A 
ATOM     32  H   UNL     1       2.843   4.960  -0.940  0.00  0.00    +0.000 HD
ENDBRANCH  19  22
ENDBRANCH   1  18
BRANCH   1  34
ATOM     33  C   UNL     1       2.662  -1.884  -3.412  0.00  0.00    +0.000 C 
ATOM     34  C   UNL     1       2.398  -0.753  -2.420  0.00  0.00    +0.000 C 
ENDBRANCH   1  34
TORSDOF 8
