REMARK  Name = 
REMARK  7 active torsions:
REMARK  status: ('A' for Active; 'I' for Inactive)
REMARK    1  A    between atoms: C_1  and  C_2
REMARK    2  A    between atoms: C_2  and  N_3
REMARK    3  A    between atoms: C_2  and  C_16
REMARK    4  A    between atoms: C_4  and  C_6
REMARK    5  A    between atoms: C_19  and  O_20
REMARK    6  A    between atoms: O_20  and  C_21
REMARK    7  A    between atoms: C_21  and  C_22
REMARK                            x       y       z     vdW  Elec       q    Type
REMARK                         _______ _______ _______ _____ _____    ______ ____
ROOT
ATOM      1  C   UNL     1       3.555  -0.358  -1.049  0.00  0.00    +0.000 C 
ATOM      2  C   UNL     1       2.549   0.089   0.020  0.00  0.00    +0.000 C 
ENDROOT
BRANCH   2   3
ATOM      3  C   UNL     1       2.965  -0.475   1.371  0.00  0.00    +0.000 A 
ATOM      4  C   UNL     1       3.295   0.359   2.447  0.00  0.00    +0.000 A 
ATOM      5  C   UNL     1       3.599  -0.192   3.699  0.00  0.00    +0.000 A 
ATOM      6  C   UNL     1       3.564  -1.574   3.889  0.00  0.00    +0.000 A 
ATOM      7  C   UNL     1       3.305  -2.410   2.804  0.00  0.00    +0.000 A 
ATOM      8  C   UNL     1       2.990  -1.865   1.565  0.00  0.00    +0.000 A 
BRANCH   6   9
ATOM      9  O   UNL     1       3.772  -2.018   5.170  0.00  0.00    +0.000 OA
BRANCH   9  10
ATOM     10  C   UNL     1       3.213  -3.308   5.437  0.00  0.00    +0.000 C 
BRANCH  10  11
ATOM     11  C   UNL     1       2.953  -3.481   6.911  0.00  0.00    +0.000 A 
ATOM     12  C   UNL     1       2.139  -2.565   7.592  0.00  0.00    +0.000 A 
ATOM     13  C   UNL     1       1.814  -2.772   8.932  0.00  0.00    +0.000 A 
ATOM     14  C   UNL     1       2.297  -3.894   9.600  0.00  0.00    +0.000 A 
ATOM     15  C   UNL     1       3.111  -4.809   8.933  0.00  0.00    +0.000 A 
ATOM     16  C   UNL     1       3.437  -4.606   7.592  0.00  0.00    +0.000 A 
ENDBRANCH  10  11
ENDBRANCH   9  10
ENDBRANCH   6   9
ENDBRANCH   2   3
BRANCH   2  17
ATOM     17  N   UNL     1       1.188  -0.352  -0.259  0.00  0.00    +0.000 N 
ATOM     18  C   UNL     1       0.496  -0.023  -1.393  0.00  0.00    +0.000 C 
ATOM     19  O   UNL     1       0.984   0.647  -2.299  0.00  0.00    +0.000 OA
ATOM     20  H   UNL     1       0.647  -0.635   0.554  0.00  0.00    +0.000 HD
BRANCH  18  21
ATOM     21  C   UNL     1      -0.857  -0.581  -1.513  0.00  0.00    +0.000 A 
ATOM     22  C   UNL     1      -1.391  -0.818  -2.771  0.00  0.00    +0.000 A 
ATOM     23  S   UNL     1      -2.962  -1.480  -2.735  0.00  0.00    +0.000 S 
ATOM     24  C   UNL     1      -3.001  -1.434  -1.035  0.00  0.00    +0.000 A 
ATOM     25  N   UNL     1      -4.106  -1.833  -0.350  0.00  0.00    +0.000 NA
ATOM     26  C   UNL     1      -4.010  -1.714   0.934  0.00  0.00    +0.000 A 
ATOM     27  N   UNL     1      -2.904  -1.248   1.593  0.00  0.00    +0.000 N 
ATOM     28  C   UNL     1      -1.749  -0.873   0.944  0.00  0.00    +0.000 A 
ATOM     29  O   UNL     1      -0.749  -0.527   1.563  0.00  0.00    +0.000 OA
ATOM     30  C   UNL     1      -1.818  -0.952  -0.501  0.00  0.00    +0.000 A 
ATOM     31  H   UNL     1      -2.887  -1.201   2.601  0.00  0.00    +0.000 HD
ENDBRANCH  18  21
ENDBRANCH   2  17
TORSDOF 6
