REMARK  Name = 
REMARK  5 active torsions:
REMARK  status: ('A' for Active; 'I' for Inactive)
REMARK    1  A    between atoms: C_1  and  O_2
REMARK    2  A    between atoms: O_2  and  C_3
REMARK    3  A    between atoms: C_7  and  C_8
REMARK    4  A    between atoms: C_8  and  N_9
REMARK    5  A    between atoms: C_10  and  C_12
REMARK                            x       y       z     vdW  Elec       q    Type
REMARK                         _______ _______ _______ _____ _____    ______ ____
ROOT
ATOM      1  N   UNL     1       7.069  -3.934   0.499  0.00  0.00    +0.000 N 
ATOM      2  C   UNL     1       7.922  -4.652   1.294  0.00  0.00    +0.000 C 
ATOM      3  O   UNL     1       8.095  -4.381   2.480  0.00  0.00    +0.000 OA
ATOM      4  H   UNL     1       7.097  -4.057  -0.508  0.00  0.00    +0.000 HD
ENDROOT
BRANCH   2   5
ATOM      5  C   UNL     1       8.575  -5.814   0.678  0.00  0.00    +0.000 A 
ATOM      6  C   UNL     1       9.030  -6.848   1.486  0.00  0.00    +0.000 A 
ATOM      7  S   UNL     1       9.726  -8.140   0.620  0.00  0.00    +0.000 S 
ATOM      8  C   UNL     1       9.491  -7.343  -0.865  0.00  0.00    +0.000 A 
ATOM      9  N   UNL     1       9.903  -7.907  -2.032  0.00  0.00    +0.000 NA
ATOM     10  C   UNL     1       9.698  -7.177  -3.077  0.00  0.00    +0.000 A 
ATOM     11  N   UNL     1       9.110  -5.939  -3.062  0.00  0.00    +0.000 N 
ATOM     12  C   UNL     1       8.641  -5.348  -1.911  0.00  0.00    +0.000 A 
ATOM     13  O   UNL     1       8.066  -4.264  -1.939  0.00  0.00    +0.000 OA
ATOM     14  C   UNL     1       8.869  -6.116  -0.703  0.00  0.00    +0.000 A 
ATOM     15  H   UNL     1       8.968  -5.423  -3.918  0.00  0.00    +0.000 HD
ENDBRANCH   2   5
BRANCH   1  16
ATOM     16  C   UNL     1       6.344  -2.787   0.991  0.00  0.00    +0.000 C 
BRANCH  16  21
ATOM     17  C   UNL     1       3.643  -1.956  -1.578  0.00  0.00    +0.000 A 
ATOM     18  C   UNL     1       2.530  -2.575  -1.009  0.00  0.00    +0.000 A 
ATOM     19  C   UNL     1       2.650  -3.252   0.208  0.00  0.00    +0.000 A 
ATOM     20  C   UNL     1       3.879  -3.311   0.861  0.00  0.00    +0.000 A 
ATOM     21  C   UNL     1       5.005  -2.684   0.311  0.00  0.00    +0.000 A 
ATOM     22  C   UNL     1       4.873  -2.013  -0.914  0.00  0.00    +0.000 A 
BRANCH  17  24
ATOM     23  C   UNL     1       2.451  -1.241  -3.507  0.00  0.00    +0.000 C 
ATOM     24  O   UNL     1       3.665  -1.276  -2.765  0.00  0.00    +0.000 OA
ENDBRANCH  17  24
ENDBRANCH  16  21
ENDBRANCH   1  16
TORSDOF 4
