REMARK  Name = 
REMARK  7 active torsions:
REMARK  status: ('A' for Active; 'I' for Inactive)
REMARK    1  A    between atoms: C_1  and  O_2
REMARK    2  A    between atoms: O_2  and  C_3
REMARK    3  A    between atoms: C_3  and  C_5
REMARK    4  A    between atoms: N_9  and  C_10
REMARK    5  A    between atoms: C_10  and  C_11
REMARK    6  A    between atoms: C_16  and  O_17
REMARK    7  A    between atoms: O_17  and  C_18
REMARK                            x       y       z     vdW  Elec       q    Type
REMARK                         _______ _______ _______ _____ _____    ______ ____
ROOT
ATOM      1  C   UNL     1       4.622   0.436   0.764  0.00  0.00    +0.000 A 
ATOM      2  C   UNL     1       5.171   0.783   1.990  0.00  0.00    +0.000 A 
ATOM      3  C   UNL     1       6.557   0.846   2.121  0.00  0.00    +0.000 A 
ATOM      4  C   UNL     1       7.375   0.574   1.012  0.00  0.00    +0.000 A 
ATOM      5  N   UNL     1       8.735   0.670   1.135  0.00  0.00    +0.000 N 
ATOM      6  N   UNL     1       6.844   0.282  -0.188  0.00  0.00    +0.000 NA
ATOM      7  C   UNL     1       5.495   0.201  -0.288  0.00  0.00    +0.000 A 
ATOM      8  H   UNL     1       9.183   0.378   1.999  0.00  0.00    +0.000 HD
ENDROOT
BRANCH   1   9
ATOM      9  C   UNL     1       3.168   0.283   0.538  0.00  0.00    +0.000 C 
ATOM     10  O   UNL     1       2.690  -0.027  -0.527  0.00  0.00    +0.000 OA
BRANCH   9  12
ATOM     11  C   UNL     1       1.069   0.400   1.554  0.00  0.00    +0.000 C 
ATOM     12  O   UNL     1       2.485   0.519   1.690  0.00  0.00    +0.000 OA
ENDBRANCH   9  12
ENDBRANCH   1   9
BRANCH   5  13
ATOM     13  C   UNL     1       9.594   0.982  -0.006  0.00  0.00    +0.000 C 
BRANCH  13  14
ATOM     14  C   UNL     1      11.071   0.953   0.362  0.00  0.00    +0.000 A 
ATOM     15  N   UNL     1      11.395   0.589   1.641  0.00  0.00    +0.000 NA
ATOM     16  C   UNL     1      12.700   0.567   1.970  0.00  0.00    +0.000 A 
ATOM     17  C   UNL     1      13.721   0.877   1.090  0.00  0.00    +0.000 A 
ATOM     18  C   UNL     1      13.388   1.248  -0.211  0.00  0.00    +0.000 A 
ATOM     19  C   UNL     1      12.047   1.300  -0.596  0.00  0.00    +0.000 A 
BRANCH  19  20
ATOM     20  O   UNL     1      11.599   1.678  -1.833  0.00  0.00    +0.000 OA
ATOM     21  C   UNL     1      12.578   2.037  -2.802  0.00  0.00    +0.000 C 
ENDBRANCH  19  20
ENDBRANCH  13  14
ENDBRANCH   5  13
TORSDOF 5
