REMARK  Name = 
REMARK  4 active torsions:
REMARK  status: ('A' for Active; 'I' for Inactive)
REMARK    1  A    between atoms: C_2  and  C_4
REMARK    2  A    between atoms: N_8  and  C_9
REMARK    3  A    between atoms: C_9  and  C_10
REMARK    4  A    between atoms: C_14  and  C_15
REMARK                            x       y       z     vdW  Elec       q    Type
REMARK                         _______ _______ _______ _____ _____    ______ ____
ROOT
ATOM      1  C   UNL     1       5.140  -4.808  -3.593  0.00  0.00    +0.000 C 
ENDROOT
BRANCH   1   6
ATOM      2  C   UNL     1       2.431  -4.297  -7.958  0.00  0.00    +0.000 A 
ATOM      3  C   UNL     1       2.353  -5.256  -6.956  0.00  0.00    +0.000 A 
ATOM      4  C   UNL     1       3.223  -5.177  -5.871  0.00  0.00    +0.000 A 
ATOM      5  C   UNL     1       4.161  -4.149  -5.804  0.00  0.00    +0.000 A 
ATOM      6  N   UNL     1       4.996  -3.952  -4.742  0.00  0.00    +0.000 N 
ATOM      7  N   UNL     1       4.266  -3.237  -6.791  0.00  0.00    +0.000 NA
ATOM      8  C   UNL     1       3.413  -3.328  -7.845  0.00  0.00    +0.000 A 
ATOM      9  H   UNL     1       5.681  -3.227  -4.907  0.00  0.00    +0.000 HD
BRANCH   2  11
ATOM     10  N   UNL     1       0.286  -4.843  -8.942  0.00  0.00    +0.000 N 
ATOM     11  C   UNL     1       1.518  -4.281  -9.117  0.00  0.00    +0.000 C 
ATOM     12  O   UNL     1       1.833  -3.754 -10.177  0.00  0.00    +0.000 OA
ATOM     13  H   UNL     1      -0.368  -4.729  -9.706  0.00  0.00    +0.000 HD
ATOM     14  H   UNL     1      -0.098  -5.045  -8.028  0.00  0.00    +0.000 HD
ENDBRANCH   2  11
ENDBRANCH   1   6
BRANCH   1  15
ATOM     15  C   UNL     1       6.093  -5.950  -3.851  0.00  0.00    +0.000 A 
ATOM     16  C   UNL     1       7.434  -5.705  -4.162  0.00  0.00    +0.000 A 
ATOM     17  C   UNL     1       8.314  -6.765  -4.355  0.00  0.00    +0.000 A 
ATOM     18  C   UNL     1       7.868  -8.082  -4.212  0.00  0.00    +0.000 A 
ATOM     19  C   UNL     1       6.541  -8.372  -3.850  0.00  0.00    +0.000 A 
ATOM     20  C   UNL     1       5.661  -7.281  -3.708  0.00  0.00    +0.000 A 
BRANCH  19  21
ATOM     21  C   UNL     1       6.107  -9.750  -3.516  0.00  0.00    +0.000 A 
ATOM     22  C   UNL     1       6.989 -10.642  -2.870  0.00  0.00    +0.000 A 
ATOM     23  C   UNL     1       6.574 -11.903  -2.430  0.00  0.00    +0.000 A 
ATOM     24  C   UNL     1       5.257 -12.302  -2.623  0.00  0.00    +0.000 A 
ATOM     25  C   UNL     1       4.380 -11.448  -3.278  0.00  0.00    +0.000 A 
ATOM     26  F   UNL     1       3.106 -11.826  -3.453  0.00  0.00    +0.000 F 
ATOM     27  C   UNL     1       4.789 -10.195  -3.734  0.00  0.00    +0.000 A 
ENDBRANCH  19  21
ENDBRANCH   1  15
TORSDOF 4
