REMARK  Name = 
REMARK  8 active torsions:
REMARK  status: ('A' for Active; 'I' for Inactive)
REMARK    1  A    between atoms: C_1  and  C_2
REMARK    2  A    between atoms: C_2  and  C_3
REMARK    3  A    between atoms: C_2  and  N_4
REMARK    4  A    between atoms: C_5  and  C_7
REMARK    5  A    between atoms: C_10  and  O_11
REMARK    6  A    between atoms: O_11  and  C_12
REMARK    7  A    between atoms: C_12  and  C_13
REMARK    8  A    between atoms: C_13  and  C_16
REMARK                            x       y       z     vdW  Elec       q    Type
REMARK                         _______ _______ _______ _____ _____    ______ ____
ROOT
ATOM      1  C   UNL     1       4.952   0.099  -3.049  0.00  0.00    +0.000 A 
ATOM      2  N   UNL     1       5.988  -0.714  -3.367  0.00  0.00    +0.000 NA
ATOM      3  C   UNL     1       6.417  -0.633  -4.647  0.00  0.00    +0.000 A 
ATOM      4  C   UNL     1       5.874   0.205  -5.604  0.00  0.00    +0.000 A 
ATOM      5  C   UNL     1       4.818   0.974  -5.157  0.00  0.00    +0.000 A 
ATOM      6  N   UNL     1       4.335   0.947  -3.896  0.00  0.00    +0.000 NA
ENDROOT
BRANCH   1   8
ATOM      7  N   UNL     1       5.221  -0.753  -0.764  0.00  0.00    +0.000 N 
ATOM      8  C   UNL     1       4.491   0.079  -1.606  0.00  0.00    +0.000 C 
ATOM      9  O   UNL     1       3.550   0.762  -1.211  0.00  0.00    +0.000 OA
ATOM     10  H   UNL     1       5.911  -1.356  -1.203  0.00  0.00    +0.000 HD
BRANCH   7  12
ATOM     11  C   UNL     1       3.852  -1.977   0.871  0.00  0.00    +0.000 C 
ATOM     12  C   UNL     1       4.904  -0.895   0.648  0.00  0.00    +0.000 C 
ATOM     13  C   UNL     1       6.163  -1.196   1.456  0.00  0.00    +0.000 C 
ENDBRANCH   7  12
ENDBRANCH   1   8
BRANCH   4  14
ATOM     14  O   UNL     1       6.259   0.352  -6.901  0.00  0.00    +0.000 OA
BRANCH  14  15
ATOM     15  C   UNL     1       7.381  -0.436  -7.335  0.00  0.00    +0.000 C 
BRANCH  15  16
ATOM     16  C   UNL     1       7.715  -0.150  -8.813  0.00  0.00    +0.000 C 
ATOM     17  F   UNL     1       6.615  -0.438  -9.568  0.00  0.00    +0.000 F 
ATOM     18  F   UNL     1       7.920   1.192  -8.960  0.00  0.00    +0.000 F 
BRANCH  16  19
ATOM     19  C   UNL     1       8.919  -0.948  -9.248  0.00  0.00    +0.000 A 
ATOM     20  C   UNL     1      10.223  -0.453  -9.121  0.00  0.00    +0.000 A 
ATOM     21  C   UNL     1      11.302  -1.240  -9.515  0.00  0.00    +0.000 A 
ATOM     22  C   UNL     1      11.042  -2.504 -10.017  0.00  0.00    +0.000 A 
ATOM     23  N   UNL     1       9.801  -3.015 -10.149  0.00  0.00    +0.000 NA
ATOM     24  C   UNL     1       8.768  -2.225  -9.775  0.00  0.00    +0.000 A 
ENDBRANCH  16  19
ENDBRANCH  15  16
ENDBRANCH  14  15
ENDBRANCH   4  14
TORSDOF 6
