REMARK  Name = 
REMARK  7 active torsions:
REMARK  status: ('A' for Active; 'I' for Inactive)
REMARK    1  A    between atoms: C_2  and  C_4
REMARK    2  A    between atoms: C_7  and  N_8
REMARK    3  A    between atoms: N_8  and  C_9
REMARK    4  A    between atoms: C_9  and  C_10
REMARK    5  A    between atoms: C_10  and  C_13
REMARK    6  A    between atoms: C_18  and  O_19
REMARK    7  A    between atoms: O_19  and  C_20
REMARK                            x       y       z     vdW  Elec       q    Type
REMARK                         _______ _______ _______ _____ _____    ______ ____
ROOT
ATOM      1  C   UNL     1       6.024  -4.579  -5.617  0.00  0.00    +0.000 C 
ATOM      2  F   UNL     1       7.313  -4.130  -5.565  0.00  0.00    +0.000 F 
ATOM      3  F   UNL     1       6.016  -5.726  -4.868  0.00  0.00    +0.000 F 
ENDROOT
BRANCH   1   4
ATOM      4  C   UNL     1       5.579  -4.832  -7.043  0.00  0.00    +0.000 A 
ATOM      5  C   UNL     1       6.060  -4.047  -8.098  0.00  0.00    +0.000 A 
ATOM      6  C   UNL     1       5.656  -4.321  -9.404  0.00  0.00    +0.000 A 
ATOM      7  F   UNL     1       6.141  -3.573 -10.405  0.00  0.00    +0.000 F 
ATOM      8  C   UNL     1       4.776  -5.358  -9.693  0.00  0.00    +0.000 A 
ATOM      9  C   UNL     1       4.278  -6.131  -8.650  0.00  0.00    +0.000 A 
ATOM     10  C   UNL     1       4.679  -5.869  -7.335  0.00  0.00    +0.000 A 
BRANCH   9  11
ATOM     11  O   UNL     1       3.434  -7.201  -8.788  0.00  0.00    +0.000 OA
BRANCH  11  12
ATOM     12  C   UNL     1       2.622  -7.322  -9.977  0.00  0.00    +0.000 C 
ATOM     13  C   UNL     1       1.465  -6.320 -10.166  0.00  0.00    +0.000 C 
ATOM     14  N   UNL     1       0.512  -7.425 -10.339  0.00  0.00    +0.000 NA
ATOM     15  C   UNL     1       1.517  -8.395  -9.883  0.00  0.00    +0.000 C 
ATOM     16  H   UNL     1       0.203  -7.569 -11.300  0.00  0.00    +0.000 HD
ENDBRANCH  11  12
ENDBRANCH   9  11
ENDBRANCH   1   4
BRANCH   1  17
ATOM     17  C   UNL     1       5.101  -3.549  -4.920  0.00  0.00    +0.000 C 
BRANCH  17  18
ATOM     18  N   UNL     1       5.482  -3.293  -3.521  0.00  0.00    +0.000 N 
ATOM     19  H   UNL     1       5.834  -4.112  -3.024  0.00  0.00    +0.000 HD
BRANCH  18  23
ATOM     20  C   UNL     1       3.494  -0.514  -1.056  0.00  0.00    +0.000 A 
ATOM     21  C   UNL     1       3.041  -0.719  -2.361  0.00  0.00    +0.000 A 
ATOM     22  C   UNL     1       3.683  -1.652  -3.184  0.00  0.00    +0.000 A 
ATOM     23  C   UNL     1       4.759  -2.416  -2.720  0.00  0.00    +0.000 A 
ATOM     24  C   UNL     1       5.215  -2.176  -1.415  0.00  0.00    +0.000 A 
ATOM     25  C   UNL     1       4.595  -1.231  -0.589  0.00  0.00    +0.000 A 
BRANCH  20  27
ATOM     26  N   UNL     1       1.528   0.742  -0.366  0.00  0.00    +0.000 N 
ATOM     27  C   UNL     1       2.853   0.480  -0.158  0.00  0.00    +0.000 C 
ATOM     28  O   UNL     1       3.468   1.017   0.754  0.00  0.00    +0.000 OA
ATOM     29  H   UNL     1       1.078   1.328   0.324  0.00  0.00    +0.000 HD
ATOM     30  H   UNL     1       0.939   0.136  -0.920  0.00  0.00    +0.000 HD
ENDBRANCH  20  27
ENDBRANCH  18  23
ENDBRANCH  17  18
ENDBRANCH   1  17
TORSDOF 7
