REMARK  Name = 
REMARK  5 active torsions:
REMARK  status: ('A' for Active; 'I' for Inactive)
REMARK    1  A    between atoms: C_1  and  C_2
REMARK    2  A    between atoms: C_6  and  C_7
REMARK    3  A    between atoms: C_7  and  N_8
REMARK    4  A    between atoms: C_13  and  C_14
REMARK    5  A    between atoms: C_14  and  O_15
REMARK                            x       y       z     vdW  Elec       q    Type
REMARK                         _______ _______ _______ _____ _____    ______ ____
ROOT
ATOM      1  N   UNL     1      -3.160   2.403   0.075  0.00  0.00    +0.000 N 
ATOM      2  C   UNL     1      -3.980   2.939  -0.891  0.00  0.00    +0.000 A 
ATOM      3  C   UNL     1      -5.277   2.606  -0.577  0.00  0.00    +0.000 A 
ATOM      4  C   UNL     1      -5.254   1.876   0.641  0.00  0.00    +0.000 A 
ATOM      5  C   UNL     1      -6.255   1.274   1.431  0.00  0.00    +0.000 A 
ATOM      6  C   UNL     1      -5.914   0.605   2.619  0.00  0.00    +0.000 A 
ATOM      7  C   UNL     1      -4.577   0.595   3.035  0.00  0.00    +0.000 A 
ATOM      8  C   UNL     1      -3.562   1.175   2.262  0.00  0.00    +0.000 A 
ATOM      9  C   UNL     1      -3.922   1.797   1.056  0.00  0.00    +0.000 A 
ENDROOT
BRANCH   1  10
ATOM     10  C   UNL     1      -1.703   2.470   0.042  0.00  0.00    +0.000 C 
BRANCH  10  16
ATOM     11  C   UNL     1       1.225  -1.376   0.641  0.00  0.00    +0.000 C 
ATOM     12  C   UNL     1       0.290  -0.627  -0.262  0.00  0.00    +0.000 A 
ATOM     13  C   UNL     1       0.035  -1.078  -1.552  0.00  0.00    +0.000 A 
ATOM     14  C   UNL     1      -0.800  -0.323  -2.367  0.00  0.00    +0.000 A 
ATOM     15  C   UNL     1      -1.365   0.846  -1.869  0.00  0.00    +0.000 A 
ATOM     16  C   UNL     1      -1.096   1.221  -0.554  0.00  0.00    +0.000 A 
ATOM     17  N   UNL     1      -0.261   0.507   0.243  0.00  0.00    +0.000 NA
ENDBRANCH  10  16
ENDBRANCH   1  10
BRANCH   6  18
ATOM     18  C   UNL     1      -7.005  -0.025   3.448  0.00  0.00    +0.000 C 
BRANCH  18  19
ATOM     19  O   UNL     1      -6.553  -1.186   4.133  0.00  0.00    +0.000 OA
ATOM     20  H   UNL     1      -6.130  -1.753   3.465  0.00  0.00    +0.000 HD
ENDBRANCH  18  19
ENDBRANCH   6  18
TORSDOF 4
