REMARK  Name = 
REMARK  7 active torsions:
REMARK  status: ('A' for Active; 'I' for Inactive)
REMARK    1  A    between atoms: N_1  and  C_2
REMARK    2  A    between atoms: C_2  and  C_3
REMARK    3  A    between atoms: C_6  and  C_7
REMARK    4  A    between atoms: C_7  and  C_8
REMARK    5  A    between atoms: C_11  and  C_12
REMARK    6  A    between atoms: C_12  and  N_13
REMARK    7  A    between atoms: C_14  and  C_16
REMARK                            x       y       z     vdW  Elec       q    Type
REMARK                         _______ _______ _______ _____ _____    ______ ____
ROOT
ATOM      1  C   UNL     1       6.635   4.145  -0.562  0.00  0.00    +0.000 A 
ATOM      2  C   UNL     1       7.240   4.032  -1.810  0.00  0.00    +0.000 A 
ATOM      3  C   UNL     1       8.631   3.947  -1.886  0.00  0.00    +0.000 A 
ATOM      4  C   UNL     1       9.399   4.062  -0.726  0.00  0.00    +0.000 A 
ATOM      5  C   UNL     1       8.710   4.228   0.469  0.00  0.00    +0.000 A 
ATOM      6  N   UNL     1       7.357   4.259   0.578  0.00  0.00    +0.000 NA
ENDROOT
BRANCH   1   7
ATOM      7  C   UNL     1       5.127   4.045  -0.438  0.00  0.00    +0.000 C 
BRANCH   7  11
ATOM      8  C   UNL     1       2.250   6.483  -1.509  0.00  0.00    +0.000 C 
ATOM      9  C   UNL     1       3.732   6.644  -1.885  0.00  0.00    +0.000 C 
ATOM     10  C   UNL     1       4.687   6.538  -0.696  0.00  0.00    +0.000 C 
ATOM     11  C   UNL     1       4.463   5.292   0.182  0.00  0.00    +0.000 C 
ATOM     12  C   UNL     1       2.967   5.056   0.482  0.00  0.00    +0.000 C 
ATOM     13  C   UNL     1       2.061   5.168  -0.741  0.00  0.00    +0.000 C 
BRANCH   8  14
ATOM     14  C   UNL     1       1.720   7.731  -0.770  0.00  0.00    +0.000 C 
BRANCH  14  15
ATOM     15  N   UNL     1       0.306   7.619  -0.414  0.00  0.00    +0.000 NA
ATOM     16  H   UNL     1      -0.082   8.548  -0.254  0.00  0.00    +0.000 HD
ATOM     17  H   UNL     1       0.227   7.137   0.483  0.00  0.00    +0.000 HD
ENDBRANCH  14  15
ENDBRANCH   8  14
ENDBRANCH   7  11
ENDBRANCH   1   7
BRANCH   4  18
ATOM     18  C   UNL     1      10.901   4.019  -0.769  0.00  0.00    +0.000 C 
BRANCH  18  19
ATOM     19  N   UNL     1      11.437   2.687  -0.660  0.00  0.00    +0.000 N 
ATOM     20  C   UNL     1      12.792   2.461  -0.636  0.00  0.00    +0.000 C 
ATOM     21  O   UNL     1      13.615   3.375  -0.679  0.00  0.00    +0.000 OA
ATOM     22  H   UNL     1      10.817   1.910  -0.877  0.00  0.00    +0.000 HD
BRANCH  20  23
ATOM     23  C   UNL     1      13.202   1.058  -0.481  0.00  0.00    +0.000 A 
ATOM     24  C   UNL     1      14.411   0.756   0.131  0.00  0.00    +0.000 A 
ATOM     25  S   UNL     1      14.722  -0.917   0.245  0.00  0.00    +0.000 S 
ATOM     26  C   UNL     1      13.271  -1.299  -0.557  0.00  0.00    +0.000 A 
ATOM     27  N   UNL     1      12.943  -2.590  -0.827  0.00  0.00    +0.000 NA
ATOM     28  C   UNL     1      11.828  -2.736  -1.476  0.00  0.00    +0.000 A 
ATOM     29  N   UNL     1      11.016  -1.703  -1.861  0.00  0.00    +0.000 N 
ATOM     30  C   UNL     1      11.274  -0.389  -1.545  0.00  0.00    +0.000 A 
ATOM     31  O   UNL     1      10.468   0.500  -1.801  0.00  0.00    +0.000 OA
ATOM     32  C   UNL     1      12.539  -0.168  -0.869  0.00  0.00    +0.000 A 
ATOM     33  H   UNL     1      10.147  -1.887  -2.339  0.00  0.00    +0.000 HD
ENDBRANCH  20  23
ENDBRANCH  18  19
ENDBRANCH   4  18
TORSDOF 7
