REMARK  Name = 
REMARK  5 active torsions:
REMARK  status: ('A' for Active; 'I' for Inactive)
REMARK    1  A    between atoms: C_2  and  C_4
REMARK    2  A    between atoms: C_7  and  N_8
REMARK    3  A    between atoms: N_8  and  C_9
REMARK    4  A    between atoms: C_9  and  C_10
REMARK    5  A    between atoms: C_14  and  C_15
REMARK                            x       y       z     vdW  Elec       q    Type
REMARK                         _______ _______ _______ _____ _____    ______ ____
ROOT
ATOM      1  C   UNL     1       4.923   1.069  -5.972  0.00  0.00    +0.000 C 
ENDROOT
BRANCH   1   2
ATOM      2  C   UNL     1       5.855   0.919  -7.163  0.00  0.00    +0.000 A 
ATOM      3  N   UNL     1       5.877   1.924  -8.060  0.00  0.00    +0.000 NA
ATOM      4  C   UNL     1       6.683   1.761  -9.119  0.00  0.00    +0.000 A 
ATOM      5  C   UNL     1       7.444   0.635  -9.325  0.00  0.00    +0.000 A 
ATOM      6  C   UNL     1       7.342  -0.366  -8.374  0.00  0.00    +0.000 A 
ATOM      7  N   UNL     1       6.546  -0.235  -7.290  0.00  0.00    +0.000 NA
BRANCH   6   8
ATOM      8  C   UNL     1       8.082  -1.639  -8.475  0.00  0.00    +0.000 A 
ATOM      9  C   UNL     1       8.474  -2.343  -7.319  0.00  0.00    +0.000 A 
ATOM     10  C   UNL     1       9.176  -3.553  -7.398  0.00  0.00    +0.000 A 
ATOM     11  C   UNL     1       9.499  -4.086  -8.642  0.00  0.00    +0.000 A 
ATOM     12  C   UNL     1       9.114  -3.406  -9.789  0.00  0.00    +0.000 A 
ATOM     13  F   UNL     1       9.417  -3.917 -10.990  0.00  0.00    +0.000 F 
ATOM     14  C   UNL     1       8.418  -2.204  -9.718  0.00  0.00    +0.000 A 
ENDBRANCH   6   8
ENDBRANCH   1   2
BRANCH   1  15
ATOM     15  N   UNL     1       5.423   0.393  -4.771  0.00  0.00    +0.000 N 
ATOM     16  H   UNL     1       5.857  -0.505  -4.981  0.00  0.00    +0.000 HD
BRANCH  15  20
ATOM     17  C   UNL     1       3.438   0.652  -1.064  0.00  0.00    +0.000 A 
ATOM     18  C   UNL     1       2.861   1.229  -2.196  0.00  0.00    +0.000 A 
ATOM     19  C   UNL     1       3.500   1.128  -3.435  0.00  0.00    +0.000 A 
ATOM     20  C   UNL     1       4.705   0.432  -3.582  0.00  0.00    +0.000 A 
ATOM     21  C   UNL     1       5.276  -0.135  -2.433  0.00  0.00    +0.000 A 
ATOM     22  C   UNL     1       4.656  -0.022  -1.182  0.00  0.00    +0.000 A 
BRANCH  17  24
ATOM     23  N   UNL     1       1.455   0.942   0.317  0.00  0.00    +0.000 N 
ATOM     24  C   UNL     1       2.814   0.792   0.276  0.00  0.00    +0.000 C 
ATOM     25  O   UNL     1       3.477   0.753   1.305  0.00  0.00    +0.000 OA
ATOM     26  H   UNL     1       1.031   0.958   1.235  0.00  0.00    +0.000 HD
ATOM     27  H   UNL     1       0.863   0.736  -0.474  0.00  0.00    +0.000 HD
ENDBRANCH  17  24
ENDBRANCH  15  20
ENDBRANCH   1  15
TORSDOF 5
