REMARK  Name = 
REMARK  5 active torsions:
REMARK  status: ('A' for Active; 'I' for Inactive)
REMARK    1  A    between atoms: N_1  and  C_2
REMARK    2  A    between atoms: C_2  and  C_3
REMARK    3  A    between atoms: C_5  and  C_6
REMARK    4  A    between atoms: C_6  and  N_7
REMARK    5  A    between atoms: C_12  and  C_13
REMARK                            x       y       z     vdW  Elec       q    Type
REMARK                         _______ _______ _______ _____ _____    ______ ____
ROOT
ATOM      1  N   UNL     1       2.691  -1.818  -5.023  0.00  0.00    +0.000 N 
ATOM      2  C   UNL     1       2.206  -2.505  -6.109  0.00  0.00    +0.000 A 
ATOM      3  C   UNL     1       1.836  -1.580  -7.064  0.00  0.00    +0.000 A 
ATOM      4  C   UNL     1       2.106  -0.288  -6.541  0.00  0.00    +0.000 A 
ATOM      5  C   UNL     1       1.920   1.031  -6.988  0.00  0.00    +0.000 A 
ATOM      6  C   UNL     1       2.306   2.075  -6.136  0.00  0.00    +0.000 A 
ATOM      7  C   UNL     1       2.892   1.750  -4.917  0.00  0.00    +0.000 A 
ATOM      8  N   UNL     1       3.104   0.499  -4.447  0.00  0.00    +0.000 NA
ATOM      9  C   UNL     1       2.679  -0.469  -5.285  0.00  0.00    +0.000 A 
ENDROOT
BRANCH   6  10
ATOM     10  C   UNL     1       2.082   3.513  -6.482  0.00  0.00    +0.000 C 
ATOM     11  F   UNL     1       1.496   3.699  -7.697  0.00  0.00    +0.000 F 
ATOM     12  F   UNL     1       1.280   4.145  -5.582  0.00  0.00    +0.000 F 
ATOM     13  F   UNL     1       3.238   4.231  -6.514  0.00  0.00    +0.000 F 
ENDBRANCH   6  10
BRANCH   1  14
ATOM     14  C   UNL     1       3.161  -2.426  -3.791  0.00  0.00    +0.000 C 
BRANCH  14  17
ATOM     15  C   UNL     1       2.440  -0.793  -1.308  0.00  0.00    +0.000 C 
ATOM     16  C   UNL     1       1.389  -1.358  -2.249  0.00  0.00    +0.000 C 
ATOM     17  C   UNL     1       2.062  -2.632  -2.729  0.00  0.00    +0.000 C 
ATOM     18  C   UNL     1       2.679  -3.112  -1.417  0.00  0.00    +0.000 C 
ATOM     19  O   UNL     1       3.008  -1.942  -0.641  0.00  0.00    +0.000 OA
BRANCH  15  20
ATOM     20  C   UNL     1       1.938   0.261  -0.313  0.00  0.00    +0.000 C 
BRANCH  20  21
ATOM     21  N   UNL     1       0.904  -0.237   0.598  0.00  0.00    +0.000 NA
ATOM     22  H   UNL     1       0.736   0.462   1.320  0.00  0.00    +0.000 HD
ATOM     23  H   UNL     1       1.286  -1.057   1.076  0.00  0.00    +0.000 HD
ENDBRANCH  20  21
ENDBRANCH  15  20
ENDBRANCH  14  17
ENDBRANCH   1  14
TORSDOF 5
