REMARK  Name = 
REMARK  6 active torsions:
REMARK  status: ('A' for Active; 'I' for Inactive)
REMARK    1  A    between atoms: C_2  and  C_25
REMARK    2  A    between atoms: N_3  and  C_4
REMARK    3  A    between atoms: C_4  and  C_5
REMARK    4  A    between atoms: C_8  and  C_9
REMARK    5  A    between atoms: C_9  and  N_10
REMARK    6  A    between atoms: C_11  and  C_13
REMARK                            x       y       z     vdW  Elec       q    Type
REMARK                         _______ _______ _______ _____ _____    ______ ____
ROOT
ATOM      1  C   UNL     1       3.360  -3.579   0.127  0.00  0.00    +0.000 A 
ATOM      2  C   UNL     1       4.708  -3.335   0.423  0.00  0.00    +0.000 A 
ATOM      3  C   UNL     1       5.615  -4.394   0.548  0.00  0.00    +0.000 A 
ATOM      4  C   UNL     1       5.197  -5.718   0.361  0.00  0.00    +0.000 A 
ATOM      5  C   UNL     1       3.846  -5.962   0.082  0.00  0.00    +0.000 A 
ATOM      6  C   UNL     1       2.940  -4.904  -0.045  0.00  0.00    +0.000 A 
ENDROOT
BRANCH   1   7
ATOM      7  C   UNL     1       2.378  -2.444   0.014  0.00  0.00    +0.000 C 
BRANCH   7  10
ATOM      8  O   UNL     1       0.739  -0.346  -0.712  0.00  0.00    +0.000 OA
ATOM      9  C   UNL     1       1.456  -0.835  -1.582  0.00  0.00    +0.000 C 
ATOM     10  N   UNL     1       2.306  -1.889  -1.315  0.00  0.00    +0.000 N 
ATOM     11  H   UNL     1       2.879  -2.262  -2.062  0.00  0.00    +0.000 HD
BRANCH   9  12
ATOM     12  C   UNL     1       1.475  -0.347  -2.946  0.00  0.00    +0.000 A 
ATOM     13  C   UNL     1       0.787   0.701  -3.530  0.00  0.00    +0.000 A 
ATOM     14  C   UNL     1       1.177   0.737  -4.890  0.00  0.00    +0.000 A 
ATOM     15  C   UNL     1       2.076  -0.290  -5.062  0.00  0.00    +0.000 A 
ATOM     16 CL   UNL     1       2.873  -0.717  -6.525  0.00  0.00    +0.000 Cl
ATOM     17  O   UNL     1       2.267  -0.953  -3.885  0.00  0.00    +0.000 OA
ENDBRANCH   9  12
ENDBRANCH   7  10
ENDBRANCH   1   7
BRANCH   4  18
ATOM     18  C   UNL     1       6.166  -6.864   0.496  0.00  0.00    +0.000 C 
BRANCH  18  19
ATOM     19  N   UNL     1       6.220  -7.347   1.852  0.00  0.00    +0.000 N 
ATOM     20  C   UNL     1       7.103  -8.328   2.228  0.00  0.00    +0.000 C 
ATOM     21  O   UNL     1       7.920  -8.802   1.443  0.00  0.00    +0.000 OA
ATOM     22  H   UNL     1       5.423  -7.141   2.445  0.00  0.00    +0.000 HD
BRANCH  20  23
ATOM     23  C   UNL     1       7.065  -8.740   3.638  0.00  0.00    +0.000 A 
ATOM     24  C   UNL     1       8.179  -9.342   4.209  0.00  0.00    +0.000 A 
ATOM     25  S   UNL     1       7.990  -9.705   5.865  0.00  0.00    +0.000 S 
ATOM     26  C   UNL     1       6.393  -9.119   5.866  0.00  0.00    +0.000 A 
ATOM     27  N   UNL     1       5.636  -9.159   6.996  0.00  0.00    +0.000 NA
ATOM     28  C   UNL     1       4.434  -8.711   6.848  0.00  0.00    +0.000 A 
ATOM     29  N   UNL     1       3.922  -8.224   5.673  0.00  0.00    +0.000 N 
ATOM     30  C   UNL     1       4.657  -8.140   4.515  0.00  0.00    +0.000 A 
ATOM     31  O   UNL     1       4.178  -7.664   3.491  0.00  0.00    +0.000 OA
ATOM     32  C   UNL     1       6.015  -8.638   4.625  0.00  0.00    +0.000 A 
ATOM     33  H   UNL     1       2.973  -7.883   5.625  0.00  0.00    +0.000 HD
ENDBRANCH  20  23
ENDBRANCH  18  19
ENDBRANCH   4  18
TORSDOF 6
