REMARK  Name = 
REMARK  8 active torsions:
REMARK  status: ('A' for Active; 'I' for Inactive)
REMARK    1  A    between atoms: N_1  and  C_2
REMARK    2  A    between atoms: C_2  and  C_3
REMARK    3  A    between atoms: C_3  and  N_4
REMARK    4  A    between atoms: C_3  and  C_17
REMARK    5  A    between atoms: C_5  and  C_7
REMARK    6  A    between atoms: C_20  and  O_21
REMARK    7  A    between atoms: O_21  and  C_22
REMARK    8  A    between atoms: C_22  and  C_23
REMARK                            x       y       z     vdW  Elec       q    Type
REMARK                         _______ _______ _______ _____ _____    ______ ____
ROOT
ATOM      1  C   UNL     1       2.958   1.245  -0.232  0.00  0.00    +0.000 C 
ENDROOT
BRANCH   1   2
ATOM      2  C   UNL     1       4.480   1.284  -0.187  0.00  0.00    +0.000 A 
ATOM      3  C   UNL     1       5.208   1.803  -1.265  0.00  0.00    +0.000 A 
ATOM      4  C   UNL     1       6.600   1.919  -1.191  0.00  0.00    +0.000 A 
ATOM      5  C   UNL     1       7.277   1.530  -0.036  0.00  0.00    +0.000 A 
ATOM      6  C   UNL     1       6.567   0.952   1.016  0.00  0.00    +0.000 A 
ATOM      7  C   UNL     1       5.180   0.843   0.947  0.00  0.00    +0.000 A 
BRANCH   5   8
ATOM      8  O   UNL     1       8.624   1.767  -0.024  0.00  0.00    +0.000 OA
BRANCH   8   9
ATOM      9  C   UNL     1       9.193   1.895   1.285  0.00  0.00    +0.000 C 
BRANCH   9  10
ATOM     10  C   UNL     1      10.504   2.648   1.263  0.00  0.00    +0.000 A 
ATOM     11  C   UNL     1      11.394   2.516   0.201  0.00  0.00    +0.000 A 
ATOM     12  C   UNL     1      12.597   3.210   0.247  0.00  0.00    +0.000 A 
ATOM     13  C   UNL     1      12.885   4.011   1.344  0.00  0.00    +0.000 A 
ATOM     14  C   UNL     1      11.953   4.077   2.364  0.00  0.00    +0.000 A 
ATOM     15  N   UNL     1      10.776   3.415   2.348  0.00  0.00    +0.000 NA
ENDBRANCH   9  10
ENDBRANCH   8   9
ENDBRANCH   5   8
ENDBRANCH   1   2
BRANCH   1  16
ATOM     16  N   UNL     1       2.445   2.185   0.758  0.00  0.00    +0.000 N 
ATOM     17  C   UNL     1       1.214   2.771   0.656  0.00  0.00    +0.000 C 
ATOM     18  O   UNL     1       0.422   2.473  -0.234  0.00  0.00    +0.000 OA
ATOM     19  H   UNL     1       3.099   2.515   1.462  0.00  0.00    +0.000 HD
BRANCH  17  20
ATOM     20  C   UNL     1       0.870   3.766   1.680  0.00  0.00    +0.000 A 
ATOM     21  C   UNL     1      -0.464   4.064   1.926  0.00  0.00    +0.000 A 
ATOM     22  S   UNL     1      -0.689   5.295   3.084  0.00  0.00    +0.000 S 
ATOM     23  C   UNL     1       0.989   5.500   3.272  0.00  0.00    +0.000 A 
ATOM     24  N   UNL     1       1.489   6.469   4.082  0.00  0.00    +0.000 NA
ATOM     25  C   UNL     1       2.779   6.542   4.097  0.00  0.00    +0.000 A 
ATOM     26  N   UNL     1       3.613   5.706   3.401  0.00  0.00    +0.000 N 
ATOM     27  C   UNL     1       3.156   4.650   2.655  0.00  0.00    +0.000 A 
ATOM     28  O   UNL     1       3.921   3.802   2.205  0.00  0.00    +0.000 OA
ATOM     29  C   UNL     1       1.708   4.586   2.522  0.00  0.00    +0.000 A 
ATOM     30  H   UNL     1       4.615   5.776   3.507  0.00  0.00    +0.000 HD
ENDBRANCH  17  20
ENDBRANCH   1  16
BRANCH   1  31
ATOM     31  C   UNL     1       2.398  -0.191  -0.007  0.00  0.00    +0.000 C 
BRANCH  31  32
ATOM     32  N   UNL     1       2.879  -1.185  -0.977  0.00  0.00    +0.000 NA
ATOM     33  H   UNL     1       2.625  -2.117  -0.654  0.00  0.00    +0.000 HD
ATOM     34  H   UNL     1       3.900  -1.162  -1.010  0.00  0.00    +0.000 HD
ENDBRANCH  31  32
ENDBRANCH   1  31
TORSDOF 8
