REMARK  Name = 
REMARK  6 active torsions:
REMARK  status: ('A' for Active; 'I' for Inactive)
REMARK    1  A    between atoms: C_1  and  C_2
REMARK    2  A    between atoms: C_6  and  C_7
REMARK    3  A    between atoms: C_7  and  C_8
REMARK    4  A    between atoms: C_11  and  C_12
REMARK    5  A    between atoms: C_12  and  N_13
REMARK    6  A    between atoms: C_14  and  C_16
REMARK                            x       y       z     vdW  Elec       q    Type
REMARK                         _______ _______ _______ _____ _____    ______ ____
ROOT
ATOM      1  C   UNL     1      -7.454   2.070   0.201  0.00  0.00    +0.000 C 
ENDROOT
BRANCH   1   5
ATOM      2  C   UNL     1      -3.148   2.488   0.071  0.00  0.00    +0.000 A 
ATOM      3  C   UNL     1      -3.771   1.888   1.175  0.00  0.00    +0.000 A 
ATOM      4  C   UNL     1      -5.163   1.768   1.229  0.00  0.00    +0.000 A 
ATOM      5  C   UNL     1      -5.959   2.253   0.184  0.00  0.00    +0.000 A 
ATOM      6  C   UNL     1      -5.340   2.919  -0.882  0.00  0.00    +0.000 A 
ATOM      7  C   UNL     1      -3.948   3.024  -0.945  0.00  0.00    +0.000 A 
BRANCH   2   8
ATOM      8  C   UNL     1      -1.639   2.514  -0.043  0.00  0.00    +0.000 C 
BRANCH   8  14
ATOM      9  C   UNL     1       1.081   0.938  -3.775  0.00  0.00    +0.000 C 
ATOM     10  C   UNL     1       0.294   0.589  -2.548  0.00  0.00    +0.000 A 
ATOM     11  C   UNL     1       0.185  -0.731  -2.126  0.00  0.00    +0.000 A 
ATOM     12  C   UNL     1      -0.577  -1.009  -0.999  0.00  0.00    +0.000 A 
ATOM     13  C   UNL     1      -1.198   0.034  -0.321  0.00  0.00    +0.000 A 
ATOM     14  C   UNL     1      -1.040   1.337  -0.789  0.00  0.00    +0.000 A 
ATOM     15  N   UNL     1      -0.300   1.618  -1.893  0.00  0.00    +0.000 NA
ENDBRANCH   8  14
ENDBRANCH   2   8
ENDBRANCH   1   5
BRANCH   1  16
ATOM     16  N   UNL     1      -8.117   3.172   0.847  0.00  0.00    +0.000 N 
ATOM     17  C   UNL     1      -9.476   3.165   1.031  0.00  0.00    +0.000 C 
ATOM     18  O   UNL     1     -10.173   2.207   0.709  0.00  0.00    +0.000 OA
ATOM     19  H   UNL     1      -7.608   4.049   0.900  0.00  0.00    +0.000 HD
BRANCH  17  20
ATOM     20  C   UNL     1     -10.054   4.342   1.692  0.00  0.00    +0.000 A 
ATOM     21  C   UNL     1     -11.264   4.227   2.364  0.00  0.00    +0.000 A 
ATOM     22  S   UNL     1     -11.780   5.678   3.097  0.00  0.00    +0.000 S 
ATOM     23  C   UNL     1     -10.427   6.523   2.505  0.00  0.00    +0.000 A 
ATOM     24  N   UNL     1     -10.270   7.851   2.748  0.00  0.00    +0.000 NA
ATOM     25  C   UNL     1      -9.214   8.370   2.216  0.00  0.00    +0.000 A 
ATOM     26  N   UNL     1      -8.295   7.678   1.470  0.00  0.00    +0.000 N 
ATOM     27  C   UNL     1      -8.399   6.331   1.221  0.00  0.00    +0.000 A 
ATOM     28  O   UNL     1      -7.533   5.732   0.587  0.00  0.00    +0.000 OA
ATOM     29  C   UNL     1      -9.579   5.703   1.778  0.00  0.00    +0.000 A 
ATOM     30  H   UNL     1      -7.480   8.140   1.095  0.00  0.00    +0.000 HD
ENDBRANCH  17  20
ENDBRANCH   1  16
TORSDOF 5
