REMARK  Name = 
REMARK  13 active torsions:
REMARK  status: ('A' for Active; 'I' for Inactive)
REMARK    1  A    between atoms: N_1  and  CA_2
REMARK    2  A    between atoms: CA_2  and  C_3
REMARK    3  A    between atoms: CA_2  and  C_5
REMARK    4  A    between atoms: C_3  and  O_4
REMARK    5  A    between atoms: C_5  and  C_6
REMARK    6  A    between atoms: C_6  and  N_7
REMARK    7  A    between atoms: C_6  and  C_24
REMARK    8  A    between atoms: N_7  and  C_8
REMARK    9  A    between atoms: C_8  and  C_9
REMARK   10  A    between atoms: C_12  and  C_13
REMARK   11  A    between atoms: C_13  and  N_14
REMARK   12  A    between atoms: N_14  and  C_15
REMARK   13  A    between atoms: C_15  and  C_16
REMARK                            x       y       z     vdW  Elec       q    Type
REMARK                         _______ _______ _______ _____ _____    ______ ____
ROOT
ATOM      1  C   UNL     1       4.459  -1.162  -0.525  0.00  0.00    +0.000 C 
ENDROOT
BRANCH   1   2
ATOM      2  C   UNL     1       5.034  -2.562  -0.345  0.00  0.00    +0.000 A 
ATOM      3  C   UNL     1       6.086  -3.048  -1.112  0.00  0.00    +0.000 A 
ATOM      4  S   UNL     1       6.120  -4.759  -1.178  0.00  0.00    +0.000 S 
ATOM      5  C   UNL     1       4.853  -4.880  -0.048  0.00  0.00    +0.000 A 
ATOM      6  N   UNL     1       4.309  -6.083   0.282  0.00  0.00    +0.000 NA
ATOM      7  C   UNL     1       3.434  -6.022   1.232  0.00  0.00    +0.000 A 
ATOM      8  N   UNL     1       3.083  -4.878   1.901  0.00  0.00    +0.000 N 
ATOM      9  C   UNL     1       3.622  -3.643   1.612  0.00  0.00    +0.000 A 
ATOM     10  O   UNL     1       3.430  -2.685   2.353  0.00  0.00    +0.000 OA
ATOM     11  C   UNL     1       4.512  -3.640   0.466  0.00  0.00    +0.000 A 
ATOM     12  H   UNL     1       2.498  -4.920   2.721  0.00  0.00    +0.000 HD
ENDBRANCH   1   2
BRANCH   1  13
ATOM     13  N   UNL     1       3.072  -1.392  -1.005  0.00  0.00    +0.000 NA
ATOM     14  H   UNL     1       3.087  -2.095  -1.746  0.00  0.00    +0.000 HD
BRANCH  13  15
ATOM     15  C   UNL     1       2.429  -0.193  -1.546  0.00  0.00    +0.000 C 
BRANCH  15  16
ATOM     16  C   UNL     1       0.973  -0.398  -1.912  0.00  0.00    +0.000 A 
ATOM     17  C   UNL     1       0.040  -0.823  -0.952  0.00  0.00    +0.000 A 
ATOM     18  C   UNL     1      -1.333  -0.853  -1.246  0.00  0.00    +0.000 A 
ATOM     19  C   UNL     1      -1.792  -0.448  -2.505  0.00  0.00    +0.000 A 
ATOM     20  C   UNL     1      -0.860  -0.051  -3.474  0.00  0.00    +0.000 A 
ATOM     21  C   UNL     1       0.510  -0.023  -3.179  0.00  0.00    +0.000 A 
BRANCH  19  22
ATOM     22  C   UNL     1      -3.281  -0.434  -2.819  0.00  0.00    +0.000 C 
BRANCH  22  23
ATOM     23  N   UNL     1      -4.012   0.464  -1.928  0.00  0.00    +0.000 NA
ATOM     24  H   UNL     1      -3.633   1.409  -2.001  0.00  0.00    +0.000 HD
BRANCH  23  25
ATOM     25  C   UNL     1      -5.443   0.530  -2.288  0.00  0.00    +0.000 C 
BRANCH  25  26
ATOM     26  C   UNL     1      -6.236   1.496  -1.415  0.00  0.00    +0.000 A 
ATOM     27  N   UNL     1      -5.851   2.793  -1.408  0.00  0.00    +0.000 NA
ATOM     28  C   UNL     1      -6.547   3.618  -0.603  0.00  0.00    +0.000 A 
ATOM     29  C   UNL     1      -7.605   3.212   0.174  0.00  0.00    +0.000 A 
ATOM     30  C   UNL     1      -7.932   1.881   0.079  0.00  0.00    +0.000 A 
ATOM     31  N   UNL     1      -7.275   1.006  -0.705  0.00  0.00    +0.000 NA
ENDBRANCH  25  26
ENDBRANCH  23  25
ENDBRANCH  22  23
ENDBRANCH  19  22
ENDBRANCH  15  16
ENDBRANCH  13  15
ENDBRANCH   1  13
BRANCH   1  32
ATOM     32  C   UNL     1       4.459  -0.216   0.686  0.00  0.00    +0.000 C 
BRANCH  32  33
ATOM     33  CA  UNL     1       5.796   0.116   1.353  0.00  0.00    +0.000 C 
BRANCH  33  34
ATOM     34  N   UNL     1       5.521   0.954   2.549  0.00  0.00    +0.000 NA
ATOM     35  H1  UNL     1       4.828   0.469   3.126  0.00  0.00    +0.000 HD
ATOM     36  H2  UNL     1       5.044   1.811   2.252  0.00  0.00    +0.000 HD
ENDBRANCH  33  34
BRANCH  33  37
ATOM     37  C   UNL     1       6.764   0.907   0.449  0.00  0.00    +0.000 C 
BRANCH  37  38
ATOM     38  O   UNL     1       7.959   1.221   1.170  0.00  0.00    +0.000 OA
ATOM     39  H   UNL     1       7.712   1.167   2.116  0.00  0.00    +0.000 HD
ENDBRANCH  37  38
ENDBRANCH  33  37
ENDBRANCH  32  33
ENDBRANCH   1  32
TORSDOF 13
