REMARK  Name = 
REMARK  9 active torsions:
REMARK  status: ('A' for Active; 'I' for Inactive)
REMARK    1  A    between atoms: C_1  and  C_2
REMARK    2  A    between atoms: C_2  and  C_3
REMARK    3  A    between atoms: C_3  and  N_4
REMARK    4  A    between atoms: C_3  and  C_17
REMARK    5  A    between atoms: C_5  and  C_7
REMARK    6  A    between atoms: C_20  and  C_21
REMARK    7  A    between atoms: C_21  and  N_22
REMARK    8  A    between atoms: C_21  and  C_23
REMARK    9  A    between atoms: C_23  and  C_24
REMARK                            x       y       z     vdW  Elec       q    Type
REMARK                         _______ _______ _______ _____ _____    ______ ____
ROOT
ATOM      1  C   UNL     1       2.981  -1.197   0.934  0.00  0.00    +0.000 C 
ENDROOT
BRANCH   1   2
ATOM      2  C   UNL     1       4.500  -1.234   1.045  0.00  0.00    +0.000 A 
ATOM      3  C   UNL     1       5.172  -0.518   2.028  0.00  0.00    +0.000 A 
ATOM      4  N   UNL     1       6.529  -0.448   2.090  0.00  0.00    +0.000 NA
ATOM      5  C   UNL     1       7.211  -1.142   1.140  0.00  0.00    +0.000 A 
ATOM      6  C   UNL     1       6.537  -1.838   0.146  0.00  0.00    +0.000 A 
ATOM      7  N   UNL     1       5.192  -1.891   0.075  0.00  0.00    +0.000 NA
BRANCH   5   8
ATOM      8  C   UNL     1       8.725  -1.036   1.080  0.00  0.00    +0.000 C 
BRANCH   8   9
ATOM      9  N   UNL     1       9.132   0.146   0.296  0.00  0.00    +0.000 NA
ATOM     10  H   UNL     1       8.714   0.973   0.725  0.00  0.00    +0.000 HD
ATOM     11  H   UNL     1       8.739   0.090  -0.642  0.00  0.00    +0.000 HD
ENDBRANCH   8   9
BRANCH   8  12
ATOM     12  C   UNL     1       9.341  -1.018   2.498  0.00  0.00    +0.000 C 
BRANCH  12  13
ATOM     13  C   UNL     1      10.848  -0.984   2.482  0.00  0.00    +0.000 A 
ATOM     14  C   UNL     1      11.613  -2.146   2.447  0.00  0.00    +0.000 A 
ATOM     15  C   UNL     1      12.988  -2.019   2.374  0.00  0.00    +0.000 A 
ATOM     16  N   UNL     1      13.614  -0.825   2.340  0.00  0.00    +0.000 NA
ATOM     17  N   UNL     1      12.875   0.313   2.376  0.00  0.00    +0.000 NA
ATOM     18  C   UNL     1      11.529   0.224   2.438  0.00  0.00    +0.000 A 
ENDBRANCH  12  13
ENDBRANCH   8  12
ENDBRANCH   5   8
ENDBRANCH   1   2
BRANCH   1  19
ATOM     19  N   UNL     1       2.617  -0.094   0.060  0.00  0.00    +0.000 N 
ATOM     20  C   UNL     1       1.524   0.706   0.246  0.00  0.00    +0.000 C 
ATOM     21  O   UNL     1       0.809   0.618   1.241  0.00  0.00    +0.000 OA
ATOM     22  H   UNL     1       3.099  -0.086  -0.834  0.00  0.00    +0.000 HD
BRANCH  20  23
ATOM     23  C   UNL     1       1.287   1.721  -0.789  0.00  0.00    +0.000 A 
ATOM     24  C   UNL     1       0.564   2.867  -0.488  0.00  0.00    +0.000 A 
ATOM     25  S   UNL     1       0.410   3.943  -1.804  0.00  0.00    +0.000 S 
ATOM     26  C   UNL     1       1.258   2.890  -2.837  0.00  0.00    +0.000 A 
ATOM     27  N   UNL     1       1.453   3.200  -4.147  0.00  0.00    +0.000 NA
ATOM     28  C   UNL     1       2.075   2.294  -4.824  0.00  0.00    +0.000 A 
ATOM     29  N   UNL     1       2.531   1.110  -4.308  0.00  0.00    +0.000 N 
ATOM     30  C   UNL     1       2.404   0.780  -2.981  0.00  0.00    +0.000 A 
ATOM     31  O   UNL     1       2.901  -0.248  -2.534  0.00  0.00    +0.000 OA
ATOM     32  C   UNL     1       1.680   1.749  -2.180  0.00  0.00    +0.000 A 
ATOM     33  H   UNL     1       3.035   0.453  -4.884  0.00  0.00    +0.000 HD
ENDBRANCH  20  23
ENDBRANCH   1  19
BRANCH   1  35
ATOM     34  C   UNL     1       0.970  -2.644   0.184  0.00  0.00    +0.000 C 
ATOM     35  C   UNL     1       2.475  -2.544   0.371  0.00  0.00    +0.000 C 
ENDBRANCH   1  35
TORSDOF 8
