REMARK  Name = 
REMARK  9 active torsions:
REMARK  status: ('A' for Active; 'I' for Inactive)
REMARK    1  A    between atoms: C_1  and  O_2
REMARK    2  A    between atoms: O_2  and  C_3
REMARK    3  A    between atoms: C_10  and  C_11
REMARK    4  A    between atoms: N_13  and  C_14
REMARK    5  A    between atoms: C_14  and  C_15
REMARK    6  A    between atoms: C_18  and  O_19
REMARK    7  A    between atoms: O_19  and  C_20
REMARK    8  A    between atoms: C_20  and  C_21
REMARK    9  A    between atoms: C_25  and  C_26
REMARK                            x       y       z     vdW  Elec       q    Type
REMARK                         _______ _______ _______ _____ _____    ______ ____
ROOT
ATOM      1  C   UNL     1       1.476   2.666  -1.869  0.00  0.00    +0.000 A 
ATOM      2  C   UNL     1       1.398   1.338  -2.308  0.00  0.00    +0.000 A 
ATOM      3  C   UNL     1       0.203   0.811  -2.817  0.00  0.00    +0.000 A 
ATOM      4  C   UNL     1      -0.914   1.625  -2.984  0.00  0.00    +0.000 A 
ATOM      5  C   UNL     1      -0.807   2.980  -2.664  0.00  0.00    +0.000 A 
ATOM      6  C   UNL     1       0.370   3.495  -2.094  0.00  0.00    +0.000 A 
ENDROOT
BRANCH   1   7
ATOM      7  C   UNL     1       2.704   3.159  -1.141  0.00  0.00    +0.000 C 
BRANCH   7  10
ATOM      8  C   UNL     1       4.696   3.009  -2.617  0.00  0.00    +0.000 C 
ATOM      9  O   UNL     1       4.843   1.812  -2.413  0.00  0.00    +0.000 OA
ATOM     10  N   UNL     1       3.687   3.733  -2.028  0.00  0.00    +0.000 N 
ATOM     11  H   UNL     1       3.607   4.713  -2.231  0.00  0.00    +0.000 HD
BRANCH   8  19
ATOM     12  C   UNL     1       4.865   6.300  -3.640  0.00  0.00    +0.000 A 
ATOM     13  N   UNL     1       5.175   7.508  -4.148  0.00  0.00    +0.000 NA
ATOM     14  C   UNL     1       6.242   7.602  -4.937  0.00  0.00    +0.000 A 
ATOM     15  N   UNL     1       7.060   6.614  -5.292  0.00  0.00    +0.000 NA
ATOM     16  C   UNL     1       6.722   5.428  -4.754  0.00  0.00    +0.000 A 
ATOM     17  S   UNL     1       7.653   4.051  -5.096  0.00  0.00    +0.000 S 
ATOM     18  C   UNL     1       6.660   3.071  -4.121  0.00  0.00    +0.000 A 
ATOM     19  C   UNL     1       5.616   3.760  -3.509  0.00  0.00    +0.000 A 
ATOM     20  C   UNL     1       5.651   5.167  -3.907  0.00  0.00    +0.000 A 
BRANCH  12  22
ATOM     21  C   UNL     1       2.798   7.212  -3.112  0.00  0.00    +0.000 C 
ATOM     22  O   UNL     1       3.775   6.223  -2.802  0.00  0.00    +0.000 OA
ENDBRANCH  12  22
ENDBRANCH   8  19
ENDBRANCH   7  10
ENDBRANCH   1   7
BRANCH   4  23
ATOM     23  O   UNL     1      -2.128   1.215  -3.475  0.00  0.00    +0.000 OA
BRANCH  23  24
ATOM     24  C   UNL     1      -2.472  -0.150  -3.212  0.00  0.00    +0.000 C 
BRANCH  24  25
ATOM     25  C   UNL     1      -3.854  -0.481  -3.811  0.00  0.00    +0.000 C 
ATOM     26  C   UNL     1      -4.238  -1.948  -3.529  0.00  0.00    +0.000 C 
ATOM     27  C   UNL     1      -3.412  -2.931  -4.362  0.00  0.00    +0.000 C 
ATOM     28  N   UNL     1      -3.529  -2.608  -5.781  0.00  0.00    +0.000 N 
ATOM     29  C   UNL     1      -4.031  -3.423  -6.783  0.00  0.00    +0.000 C 
ATOM     30  C   UNL     1      -4.537  -4.808  -6.456  0.00  0.00    +0.000 C 
ATOM     31  O   UNL     1      -4.087  -3.051  -7.958  0.00  0.00    +0.000 OA
ATOM     32  C   UNL     1      -3.108  -1.248  -6.130  0.00  0.00    +0.000 C 
ATOM     33  C   UNL     1      -3.904  -0.215  -5.329  0.00  0.00    +0.000 C 
ENDBRANCH  24  25
ENDBRANCH  23  24
ENDBRANCH   4  23
TORSDOF 7
