REMARK  Name = 
REMARK  9 active torsions:
REMARK  status: ('A' for Active; 'I' for Inactive)
REMARK    1  A    between atoms: C_1  and  C_2
REMARK    2  A    between atoms: C_2  and  C_3
REMARK    3  A    between atoms: C_5  and  N_6
REMARK    4  A    between atoms: N_6  and  C_7
REMARK    5  A    between atoms: C_11  and  C_12
REMARK    6  A    between atoms: C_12  and  C_13
REMARK    7  A    between atoms: C_13  and  N_14
REMARK    8  A    between atoms: N_14  and  C_15
REMARK    9  A    between atoms: C_18  and  C_19
REMARK                            x       y       z     vdW  Elec       q    Type
REMARK                         _______ _______ _______ _____ _____    ______ ____
ROOT
ATOM      1  C   UNL     1      -3.828  -1.880  -5.925  0.00  0.00    +0.000 C 
ENDROOT
BRANCH   1   6
ATOM      2  C   UNL     1      -1.553  -1.066  -2.940  0.00  0.00    +0.000 A 
ATOM      3  C   UNL     1      -0.423  -0.587  -3.610  0.00  0.00    +0.000 A 
ATOM      4  C   UNL     1      -0.377  -0.552  -5.005  0.00  0.00    +0.000 A 
ATOM      5  C   UNL     1      -1.476  -0.973  -5.753  0.00  0.00    +0.000 A 
ATOM      6  C   UNL     1      -2.629  -1.440  -5.113  0.00  0.00    +0.000 A 
ATOM      7  C   UNL     1      -2.657  -1.473  -3.707  0.00  0.00    +0.000 A 
BRANCH   2   8
ATOM      8  N   UNL     1      -1.649  -1.050  -1.538  0.00  0.00    +0.000 N 
ATOM      9  H   UNL     1      -2.309  -1.702  -1.130  0.00  0.00    +0.000 HD
BRANCH   8  14
ATOM     10  C   UNL     1       0.774  -1.895   0.108  0.00  0.00    +0.000 C 
ATOM     11  C   UNL     1       0.296  -0.466   0.105  0.00  0.00    +0.000 C 
ATOM     12  C   UNL     1       1.398   0.561   0.156  0.00  0.00    +0.000 C 
ATOM     13  C   UNL     1      -1.016  -0.160   0.790  0.00  0.00    +0.000 C 
ATOM     14  C   UNL     1      -0.925  -0.095  -0.709  0.00  0.00    +0.000 C 
ENDBRANCH   8  14
ENDBRANCH   2   8
ENDBRANCH   1   6
BRANCH   1  15
ATOM     15  C   UNL     1      -4.798  -0.729  -6.219  0.00  0.00    +0.000 C 
BRANCH  15  16
ATOM     16  N   UNL     1      -5.909  -1.178  -7.067  0.00  0.00    +0.000 N 
ATOM     17  H   UNL     1      -6.231  -2.125  -6.869  0.00  0.00    +0.000 HD
BRANCH  16  18
ATOM     18  C   UNL     1      -6.970  -0.305  -7.340  0.00  0.00    +0.000 A 
ATOM     19  C   UNL     1      -6.917   1.066  -7.074  0.00  0.00    +0.000 A 
ATOM     20  C   UNL     1      -7.975   1.918  -7.433  0.00  0.00    +0.000 A 
ATOM     21  C   UNL     1      -9.085   1.419  -8.110  0.00  0.00    +0.000 A 
ATOM     22  C   UNL     1      -9.148   0.055  -8.408  0.00  0.00    +0.000 A 
ATOM     23  C   UNL     1      -8.092  -0.790  -8.029  0.00  0.00    +0.000 A 
BRANCH  21  24
ATOM     24  C   UNL     1     -10.165   2.375  -8.476  0.00  0.00    +0.000 C 
ATOM     25  N   UNL     1     -10.952   2.064  -9.549  0.00  0.00    +0.000 N 
ATOM     26  O   UNL     1     -10.322   3.428  -7.869  0.00  0.00    +0.000 OA
ATOM     27  H   UNL     1     -10.698   1.352 -10.218  0.00  0.00    +0.000 HD
ATOM     28  H   UNL     1     -11.590   2.788  -9.852  0.00  0.00    +0.000 HD
ENDBRANCH  21  24
ENDBRANCH  16  18
ENDBRANCH  15  16
ENDBRANCH   1  15
TORSDOF 7
