REMARK  Name = 
REMARK  6 active torsions:
REMARK  status: ('A' for Active; 'I' for Inactive)
REMARK    1  A    between atoms: C_1  and  O_2
REMARK    2  A    between atoms: O_2  and  C_3
REMARK    3  A    between atoms: C_8  and  C_9
REMARK    4  A    between atoms: C_9  and  N_10
REMARK    5  A    between atoms: C_15  and  C_16
REMARK    6  A    between atoms: C_16  and  O_17
REMARK                            x       y       z     vdW  Elec       q    Type
REMARK                         _______ _______ _______ _____ _____    ______ ____
ROOT
ATOM      1  N   UNL     1       1.104   0.821  -4.076  0.00  0.00    +0.000 N 
ATOM      2  C   UNL     1       1.069   2.072  -4.644  0.00  0.00    +0.000 A 
ATOM      3  C   UNL     1       0.770   1.922  -5.978  0.00  0.00    +0.000 A 
ATOM      4  C   UNL     1       0.638   0.532  -6.240  0.00  0.00    +0.000 A 
ATOM      5  C   UNL     1       0.355  -0.217  -7.401  0.00  0.00    +0.000 A 
ATOM      6  C   UNL     1       0.292  -1.620  -7.341  0.00  0.00    +0.000 A 
ATOM      7  C   UNL     1       0.466  -2.259  -6.108  0.00  0.00    +0.000 A 
ATOM      8  C   UNL     1       0.751  -1.540  -4.942  0.00  0.00    +0.000 A 
ATOM      9  C   UNL     1       0.840  -0.140  -5.033  0.00  0.00    +0.000 A 
ENDROOT
BRANCH   1  10
ATOM     10  C   UNL     1       1.399   0.564  -2.666  0.00  0.00    +0.000 C 
BRANCH  10  16
ATOM     11  C   UNL     1       0.338   0.182  -0.427  0.00  0.00    +0.000 A 
ATOM     12  N   UNL     1      -0.661   0.196   0.485  0.00  0.00    +0.000 NA
ATOM     13  C   UNL     1      -1.893   0.502   0.035  0.00  0.00    +0.000 A 
ATOM     14  C   UNL     1      -2.174   0.782  -1.289  0.00  0.00    +0.000 A 
ATOM     15  C   UNL     1      -1.121   0.793  -2.200  0.00  0.00    +0.000 A 
ATOM     16  C   UNL     1       0.183   0.513  -1.775  0.00  0.00    +0.000 A 
BRANCH  11  18
ATOM     17  C   UNL     1       1.551  -1.034   1.142  0.00  0.00    +0.000 C 
ATOM     18  O   UNL     1       1.601  -0.186  -0.005  0.00  0.00    +0.000 OA
ENDBRANCH  11  18
ENDBRANCH  10  16
ENDBRANCH   1  10
BRANCH   6  19
ATOM     19  C   UNL     1      -0.037  -2.403  -8.588  0.00  0.00    +0.000 C 
BRANCH  19  20
ATOM     20  O   UNL     1       0.633  -3.658  -8.615  0.00  0.00    +0.000 OA
ATOM     21  H   UNL     1       1.557  -3.484  -8.368  0.00  0.00    +0.000 HD
ENDBRANCH  19  20
ENDBRANCH   6  19
TORSDOF 5
