REMARK  Name = 
REMARK  9 active torsions:
REMARK  status: ('A' for Active; 'I' for Inactive)
REMARK    1  A    between atoms: C_1  and  O_2
REMARK    2  A    between atoms: O_2  and  C_3
REMARK    3  A    between atoms: C_6  and  O_7
REMARK    4  A    between atoms: O_7  and  C_8
REMARK    5  A    between atoms: C_8  and  C_9
REMARK    6  A    between atoms: C_9  and  C_10
REMARK    7  A    between atoms: C_9  and  C_11
REMARK    8  A    between atoms: C_9  and  C_12
REMARK    9  A    between atoms: C_16  and  C_17
REMARK                            x       y       z     vdW  Elec       q    Type
REMARK                         _______ _______ _______ _____ _____    ______ ____
ROOT
ATOM      1  C   UNL     1       5.936  -6.832  -1.972  0.00  0.00    +0.000 C 
ATOM      2  C   UNL     1       7.374  -6.356  -2.280  0.00  0.00    +0.000 C 
ATOM      3  C   UNL     1       5.901  -7.456  -0.558  0.00  0.00    +0.000 C 
ENDROOT
BRANCH   1   4
ATOM      4  C   UNL     1       5.529  -7.894  -3.015  0.00  0.00    +0.000 A 
ATOM      5  C   UNL     1       6.256  -9.088  -3.139  0.00  0.00    +0.000 A 
ATOM      6  C   UNL     1       5.872 -10.073  -4.048  0.00  0.00    +0.000 A 
ATOM      7  C   UNL     1       4.730  -9.902  -4.832  0.00  0.00    +0.000 A 
ATOM      8  C   UNL     1       3.960  -8.733  -4.745  0.00  0.00    +0.000 A 
ATOM      9  C   UNL     1       4.413  -7.733  -3.858  0.00  0.00    +0.000 A 
BRANCH   8  10
ATOM     10  C   UNL     1       2.699  -8.559  -5.510  0.00  0.00    +0.000 A 
ATOM     11  C   UNL     1       1.638  -7.790  -5.001  0.00  0.00    +0.000 A 
ATOM     12  C   UNL     1       0.467  -7.659  -5.733  0.00  0.00    +0.000 A 
ATOM     13  N   UNL     1       0.262  -8.245  -6.927  0.00  0.00    +0.000 NA
ATOM     14  C   UNL     1       1.277  -8.988  -7.409  0.00  0.00    +0.000 A 
ATOM     15  C   UNL     1       2.490  -9.165  -6.755  0.00  0.00    +0.000 A 
ENDBRANCH   8  10
ENDBRANCH   1   4
BRANCH   1  16
ATOM     16  C   UNL     1       5.035  -5.558  -1.952  0.00  0.00    +0.000 C 
BRANCH  16  17
ATOM     17  O   UNL     1       3.694  -5.884  -1.562  0.00  0.00    +0.000 OA
BRANCH  17  21
ATOM     18  C   UNL     1       0.721  -2.953  -1.512  0.00  0.00    +0.000 A 
ATOM     19  C   UNL     1       2.032  -2.575  -1.797  0.00  0.00    +0.000 A 
ATOM     20  C   UNL     1       3.055  -3.529  -1.832  0.00  0.00    +0.000 A 
ATOM     21  C   UNL     1       2.776  -4.872  -1.583  0.00  0.00    +0.000 A 
ATOM     22  C   UNL     1       1.461  -5.255  -1.315  0.00  0.00    +0.000 A 
ATOM     23  C   UNL     1       0.439  -4.302  -1.280  0.00  0.00    +0.000 A 
BRANCH  18  25
ATOM     24  C   UNL     1      -0.084  -0.725  -1.597  0.00  0.00    +0.000 C 
ATOM     25  O   UNL     1      -0.353  -2.112  -1.430  0.00  0.00    +0.000 OA
ENDBRANCH  18  25
ENDBRANCH  17  21
ENDBRANCH  16  17
ENDBRANCH   1  16
TORSDOF 6
