REMARK  Name = 
REMARK  4 active torsions:
REMARK  status: ('A' for Active; 'I' for Inactive)
REMARK    1  A    between atoms: C_2  and  C_4
REMARK    2  A    between atoms: C_7  and  N_8
REMARK    3  A    between atoms: N_8  and  C_9
REMARK    4  A    between atoms: C_9  and  C_10
REMARK                            x       y       z     vdW  Elec       q    Type
REMARK                         _______ _______ _______ _____ _____    ______ ____
ROOT
ATOM      1  C   UNL     1       3.298  -1.484   0.153  0.00  0.00    +0.000 A 
ATOM      2  C   UNL     1       3.587  -1.264   1.488  0.00  0.00    +0.000 A 
ATOM      3  N   UNL     1       4.096  -2.240   2.290  0.00  0.00    +0.000 NA
ATOM      4  C   UNL     1       4.276  -3.456   1.736  0.00  0.00    +0.000 A 
ATOM      5  C   UNL     1       4.013  -3.639   0.371  0.00  0.00    +0.000 A 
ATOM      6  N   UNL     1       3.513  -2.682  -0.452  0.00  0.00    +0.000 NA
ENDROOT
BRANCH   1   8
ATOM      7  N   UNL     1       2.418  -0.743  -1.970  0.00  0.00    +0.000 N 
ATOM      8  C   UNL     1       2.734  -0.393  -0.684  0.00  0.00    +0.000 C 
ATOM      9  O   UNL     1       2.560   0.742  -0.258  0.00  0.00    +0.000 OA
ATOM     10  H   UNL     1       2.029  -0.052  -2.595  0.00  0.00    +0.000 HD
ATOM     11  H   UNL     1       2.555  -1.698  -2.280  0.00  0.00    +0.000 HD
ENDBRANCH   1   8
BRANCH   4  12
ATOM     12  N   UNL     1       4.791  -4.444   2.571  0.00  0.00    +0.000 N 
ATOM     13  H   UNL     1       5.797  -4.313   2.642  0.00  0.00    +0.000 HD
BRANCH  12  14
ATOM     14  C   UNL     1       4.460  -5.822   2.235  0.00  0.00    +0.000 C 
BRANCH  14  15
ATOM     15  C   UNL     1       4.580  -6.749   3.422  0.00  0.00    +0.000 A 
ATOM     16  C   UNL     1       4.338  -6.317   4.734  0.00  0.00    +0.000 A 
ATOM     17  C   UNL     1       4.349  -7.225   5.796  0.00  0.00    +0.000 A 
ATOM     18  C   UNL     1       4.587  -8.577   5.557  0.00  0.00    +0.000 A 
ATOM     19  C   UNL     1       4.820  -9.023   4.259  0.00  0.00    +0.000 A 
ATOM     20  C   UNL     1       4.815  -8.116   3.198  0.00  0.00    +0.000 A 
ENDBRANCH  14  15
ENDBRANCH  12  14
ENDBRANCH   4  12
TORSDOF 4
