REMARK  Name = 
REMARK  9 active torsions:
REMARK  status: ('A' for Active; 'I' for Inactive)
REMARK    1  A    between atoms: C_1  and  O_2
REMARK    2  A    between atoms: O_2  and  C_3
REMARK    3  A    between atoms: C_10  and  C_11
REMARK    4  A    between atoms: N_13  and  C_14
REMARK    5  A    between atoms: C_14  and  C_15
REMARK    6  A    between atoms: C_18  and  C_19
REMARK    7  A    between atoms: C_19  and  N_20
REMARK    8  A    between atoms: N_20  and  C_21
REMARK    9  A    between atoms: C_21  and  C_22
REMARK                            x       y       z     vdW  Elec       q    Type
REMARK                         _______ _______ _______ _____ _____    ______ ____
ROOT
ATOM      1  C   UNL     1       2.137  -2.712   2.151  0.00  0.00    +0.000 A 
ATOM      2  C   UNL     1       1.210  -3.614   2.662  0.00  0.00    +0.000 A 
ATOM      3  C   UNL     1       0.235  -3.154   3.545  0.00  0.00    +0.000 A 
ATOM      4  C   UNL     1       0.197  -1.804   3.905  0.00  0.00    +0.000 A 
ATOM      5  C   UNL     1       1.147  -0.972   3.325  0.00  0.00    +0.000 A 
ATOM      6  N   UNL     1       2.100  -1.388   2.453  0.00  0.00    +0.000 NA
ENDROOT
BRANCH   1   7
ATOM      7  C   UNL     1       3.178  -3.178   1.155  0.00  0.00    +0.000 C 
BRANCH   7  10
ATOM      8  C   UNL     1       3.064  -3.896  -1.213  0.00  0.00    +0.000 C 
ATOM      9  O   UNL     1       3.855  -4.818  -1.023  0.00  0.00    +0.000 OA
ATOM     10  N   UNL     1       2.674  -3.074  -0.197  0.00  0.00    +0.000 N 
ATOM     11  H   UNL     1       2.132  -2.243  -0.397  0.00  0.00    +0.000 HD
BRANCH   8  19
ATOM     12  C   UNL     1       0.728  -1.663  -2.393  0.00  0.00    +0.000 A 
ATOM     13  N   UNL     1      -0.117  -0.898  -3.113  0.00  0.00    +0.000 NA
ATOM     14  C   UNL     1      -0.216  -1.131  -4.424  0.00  0.00    +0.000 A 
ATOM     15  N   UNL     1       0.431  -2.061  -5.122  0.00  0.00    +0.000 NA
ATOM     16  C   UNL     1       1.268  -2.795  -4.370  0.00  0.00    +0.000 A 
ATOM     17  S   UNL     1       2.174  -4.036  -5.092  0.00  0.00    +0.000 S 
ATOM     18  C   UNL     1       2.908  -4.432  -3.611  0.00  0.00    +0.000 A 
ATOM     19  C   UNL     1       2.494  -3.639  -2.547  0.00  0.00    +0.000 A 
ATOM     20  C   UNL     1       1.501  -2.668  -3.003  0.00  0.00    +0.000 A 
BRANCH  12  22
ATOM     21  C   UNL     1      -0.309  -0.792  -0.488  0.00  0.00    +0.000 C 
ATOM     22  O   UNL     1       0.851  -1.401  -1.048  0.00  0.00    +0.000 OA
ENDBRANCH  12  22
ENDBRANCH   8  19
ENDBRANCH   7  10
ENDBRANCH   1   7
BRANCH   4  23
ATOM     23  C   UNL     1      -0.824  -1.281   4.885  0.00  0.00    +0.000 C 
BRANCH  23  24
ATOM     24  N   UNL     1      -0.670  -1.943   6.178  0.00  0.00    +0.000 NA
ATOM     25  H   UNL     1       0.266  -1.761   6.537  0.00  0.00    +0.000 HD
BRANCH  24  26
ATOM     26  C   UNL     1      -1.649  -1.488   7.169  0.00  0.00    +0.000 C 
BRANCH  26  27
ATOM     27  C   UNL     1      -1.473  -2.258   8.463  0.00  0.00    +0.000 A 
ATOM     28  C   UNL     1      -1.598  -3.662   8.424  0.00  0.00    +0.000 A 
ATOM     29  C   UNL     1      -1.405  -4.441   9.566  0.00  0.00    +0.000 A 
ATOM     30  C   UNL     1      -1.086  -3.832  10.775  0.00  0.00    +0.000 A 
ATOM     31  C   UNL     1      -0.980  -2.444  10.842  0.00  0.00    +0.000 A 
ATOM     32  C   UNL     1      -1.180  -1.658   9.698  0.00  0.00    +0.000 A 
ATOM     33 CL   UNL     1      -1.048   0.054   9.887  0.00  0.00    +0.000 Cl
ENDBRANCH  26  27
ENDBRANCH  24  26
ENDBRANCH  23  24
ENDBRANCH   4  23
TORSDOF 8
