REMARK  Name = 
REMARK  4 active torsions:
REMARK  status: ('A' for Active; 'I' for Inactive)
REMARK    1  A    between atoms: C_2  and  C_4
REMARK    2  A    between atoms: N_8  and  C_9
REMARK    3  A    between atoms: C_9  and  C_10
REMARK    4  A    between atoms: C_15  and  N_16
REMARK                            x       y       z     vdW  Elec       q    Type
REMARK                         _______ _______ _______ _____ _____    ______ ____
ROOT
ATOM      1  C   UNL     1       6.087  -4.418   2.979  0.00  0.00    +0.000 C 
ENDROOT
BRANCH   1   6
ATOM      2  C   UNL     1       6.490   0.187   1.321  0.00  0.00    +0.000 A 
ATOM      3  C   UNL     1       5.720  -0.436   2.271  0.00  0.00    +0.000 A 
ATOM      4  N   UNL     1       5.935  -1.699   2.696  0.00  0.00    +0.000 NA
ATOM      5  C   UNL     1       6.956  -2.371   2.138  0.00  0.00    +0.000 A 
ATOM      6  N   UNL     1       7.245  -3.661   2.550  0.00  0.00    +0.000 N 
ATOM      7  N   UNL     1       7.743  -1.861   1.180  0.00  0.00    +0.000 NA
ATOM      8  C   UNL     1       7.492  -0.589   0.787  0.00  0.00    +0.000 A 
ATOM      9  H   UNL     1       7.803  -4.091   1.823  0.00  0.00    +0.000 HD
BRANCH   2  11
ATOM     10  N   UNL     1       5.654   2.429   1.725  0.00  0.00    +0.000 N 
ATOM     11  C   UNL     1       6.261   1.561   0.858  0.00  0.00    +0.000 C 
ATOM     12  O   UNL     1       6.625   1.922  -0.253  0.00  0.00    +0.000 OA
ATOM     13  H   UNL     1       5.586   3.393   1.417  0.00  0.00    +0.000 HD
ATOM     14  H   UNL     1       5.568   2.259   2.716  0.00  0.00    +0.000 HD
ENDBRANCH   2  11
ENDBRANCH   1   6
BRANCH   1  15
ATOM     15  C   UNL     1       6.509  -5.792   3.446  0.00  0.00    +0.000 A 
ATOM     16  C   UNL     1       7.402  -5.930   4.512  0.00  0.00    +0.000 A 
ATOM     17  C   UNL     1       7.717  -7.195   4.980  0.00  0.00    +0.000 A 
ATOM     18  F   UNL     1       8.570  -7.325   6.005  0.00  0.00    +0.000 F 
ATOM     19  C   UNL     1       7.157  -8.338   4.411  0.00  0.00    +0.000 A 
ATOM     20  C   UNL     1       6.267  -8.248   3.335  0.00  0.00    +0.000 A 
ATOM     21  C   UNL     1       5.961  -6.954   2.869  0.00  0.00    +0.000 A 
BRANCH  20  22
ATOM     22  N   UNL     1       5.687  -9.362   2.764  0.00  0.00    +0.000 N 
ATOM     23  C   UNL     1       5.411 -10.602   3.509  0.00  0.00    +0.000 C 
ATOM     24  C   UNL     1       6.190 -11.778   2.904  0.00  0.00    +0.000 C 
ATOM     25  O   UNL     1       5.925 -11.915   1.497  0.00  0.00    +0.000 OA
ATOM     26  C   UNL     1       6.311 -10.718   0.802  0.00  0.00    +0.000 C 
ATOM     27  C   UNL     1       5.535  -9.487   1.305  0.00  0.00    +0.000 C 
ENDBRANCH  20  22
ENDBRANCH   1  15
TORSDOF 4
