REMARK  Name = 
REMARK  6 active torsions:
REMARK  status: ('A' for Active; 'I' for Inactive)
REMARK    1  A    between atoms: C_1  and  O_2
REMARK    2  A    between atoms: O_2  and  C_3
REMARK    3  A    between atoms: C_7  and  C_8
REMARK    4  A    between atoms: C_12  and  C_13
REMARK    5  A    between atoms: C_13  and  N_14
REMARK    6  A    between atoms: C_18  and  C_19
REMARK                            x       y       z     vdW  Elec       q    Type
REMARK                         _______ _______ _______ _____ _____    ______ ____
ROOT
ATOM      1  C   UNL     1       2.116   7.666  -3.334  0.00  0.00    +0.000 C 
ATOM      2  C   UNL     1       0.781   8.396  -3.386  0.00  0.00    +0.000 C 
ATOM      3  C   UNL     1       0.997   7.200  -4.250  0.00  0.00    +0.000 C 
ENDROOT
BRANCH   1   4
ATOM      4  N   UNL     1       3.299   8.351  -3.893  0.00  0.00    +0.000 N 
ATOM      5  C   UNL     1       4.275   7.709  -4.670  0.00  0.00    +0.000 A 
ATOM      6  C   UNL     1       3.980   6.718  -5.602  0.00  0.00    +0.000 A 
ATOM      7  C   UNL     1       4.996   6.192  -6.404  0.00  0.00    +0.000 A 
ATOM      8  C   UNL     1       6.297   6.665  -6.264  0.00  0.00    +0.000 A 
ATOM      9  C   UNL     1       6.515   7.636  -5.300  0.00  0.00    +0.000 A 
ATOM     10  N   UNL     1       5.537   8.169  -4.519  0.00  0.00    +0.000 NA
ATOM     11  H   UNL     1       3.812   8.951  -3.250  0.00  0.00    +0.000 HD
BRANCH   8  12
ATOM     12  C   UNL     1       7.376   6.100  -7.105  0.00  0.00    +0.000 C 
ATOM     13  N   UNL     1       8.480   6.874  -7.331  0.00  0.00    +0.000 N 
ATOM     14  O   UNL     1       7.268   4.990  -7.612  0.00  0.00    +0.000 OA
ATOM     15  H   UNL     1       8.517   7.867  -7.145  0.00  0.00    +0.000 HD
ATOM     16  H   UNL     1       9.153   6.505  -7.992  0.00  0.00    +0.000 HD
ENDBRANCH   8  12
ENDBRANCH   1   4
BRANCH   1  21
ATOM     17  C   UNL     1       3.038   4.774  -0.936  0.00  0.00    +0.000 A 
ATOM     18  C   UNL     1       3.016   5.437   0.296  0.00  0.00    +0.000 A 
ATOM     19  C   UNL     1       2.695   6.795   0.374  0.00  0.00    +0.000 A 
ATOM     20  C   UNL     1       2.404   7.515  -0.785  0.00  0.00    +0.000 A 
ATOM     21  C   UNL     1       2.404   6.897  -2.046  0.00  0.00    +0.000 A 
ATOM     22  C   UNL     1       2.707   5.528  -2.084  0.00  0.00    +0.000 A 
BRANCH  17  27
ATOM     23  C   UNL     1       4.370   1.525  -2.367  0.00  0.00    +0.000 A 
ATOM     24  C   UNL     1       3.961   0.665  -1.360  0.00  0.00    +0.000 A 
ATOM     25  N   UNL     1       3.331   1.060  -0.229  0.00  0.00    +0.000 NA
ATOM     26  C   UNL     1       3.065   2.385  -0.117  0.00  0.00    +0.000 A 
ATOM     27  C   UNL     1       3.397   3.348  -1.071  0.00  0.00    +0.000 A 
ATOM     28  C   UNL     1       4.082   2.877  -2.207  0.00  0.00    +0.000 A 
BRANCH  23  30
ATOM     29  C   UNL     1       5.853   1.830  -4.181  0.00  0.00    +0.000 C 
ATOM     30  O   UNL     1       4.979   0.969  -3.455  0.00  0.00    +0.000 OA
ENDBRANCH  23  30
ENDBRANCH  17  27
ENDBRANCH   1  21
TORSDOF 5
