REMARK  Name = 
REMARK  9 active torsions:
REMARK  status: ('A' for Active; 'I' for Inactive)
REMARK    1  A    between atoms: N_1  and  C_2
REMARK    2  A    between atoms: C_2  and  C_3
REMARK    3  A    between atoms: C_3  and  N_4
REMARK    4  A    between atoms: N_4  and  C_5
REMARK    5  A    between atoms: C_5  and  C_6
REMARK    6  A    between atoms: C_9  and  C_10
REMARK    7  A    between atoms: C_10  and  N_11
REMARK    8  A    between atoms: C_12  and  C_14
REMARK    9  A    between atoms: C_21  and  C_23
REMARK                            x       y       z     vdW  Elec       q    Type
REMARK                         _______ _______ _______ _____ _____    ______ ____
ROOT
ATOM      1  N   UNL     1       4.604   0.581  -1.090  0.00  0.00    +0.000 N 
ATOM      2  C   UNL     1       5.114  -0.060  -2.252  0.00  0.00    +0.000 C 
ATOM      3  O   UNL     1       4.643   0.264  -3.344  0.00  0.00    +0.000 OA
ENDROOT
BRANCH   2   4
ATOM      4  C   UNL     1       6.154  -1.129  -2.213  0.00  0.00    +0.000 A 
ATOM      5  C   UNL     1       6.589  -1.833  -1.103  0.00  0.00    +0.000 A 
ATOM      6  S   UNL     1       7.702  -3.081  -1.398  0.00  0.00    +0.000 S 
ATOM      7  C   UNL     1       7.651  -2.774  -3.058  0.00  0.00    +0.000 A 
ATOM      8  N   UNL     1       8.366  -3.564  -3.899  0.00  0.00    +0.000 NA
ATOM      9  C   UNL     1       8.226  -3.270  -5.146  0.00  0.00    +0.000 A 
ATOM     10  N   UNL     1       7.458  -2.238  -5.617  0.00  0.00    +0.000 N 
ATOM     11  C   UNL     1       6.823  -1.332  -4.792  0.00  0.00    +0.000 A 
ATOM     12  O   UNL     1       6.376  -0.296  -5.270  0.00  0.00    +0.000 OA
ATOM     13  C   UNL     1       6.849  -1.692  -3.378  0.00  0.00    +0.000 A 
ATOM     14  H   UNL     1       7.460  -2.006  -6.598  0.00  0.00    +0.000 HD
ENDBRANCH   2   4
BRANCH   1  15
ATOM     15  C   UNL     1       3.655   1.693  -1.355  0.00  0.00    +0.000 C 
BRANCH  15  16
ATOM     16  C   UNL     1       2.775   2.248  -0.207  0.00  0.00    +0.000 C 
BRANCH  16  17
ATOM     17  N   UNL     1       3.488   2.996   0.835  0.00  0.00    +0.000 NA
ATOM     18  H   UNL     1       2.831   3.257   1.570  0.00  0.00    +0.000 HD
ATOM     19  H   UNL     1       3.862   3.863   0.453  0.00  0.00    +0.000 HD
ENDBRANCH  16  17
ENDBRANCH  15  16
ENDBRANCH   1  15
BRANCH   1  20
ATOM     20  C   UNL     1       5.199   0.512   0.243  0.00  0.00    +0.000 C 
BRANCH  20  21
ATOM     21  C   UNL     1       4.408  -0.328   1.238  0.00  0.00    +0.000 A 
ATOM     22  C   UNL     1       3.974  -1.641   0.984  0.00  0.00    +0.000 A 
ATOM     23  C   UNL     1       3.243  -2.366   1.936  0.00  0.00    +0.000 A 
ATOM     24  C   UNL     1       2.853  -1.764   3.134  0.00  0.00    +0.000 A 
ATOM     25  C   UNL     1       3.326  -0.479   3.420  0.00  0.00    +0.000 A 
ATOM     26  C   UNL     1       4.109   0.217   2.494  0.00  0.00    +0.000 A 
BRANCH  24  27
ATOM     27  C   UNL     1       1.886  -2.446   4.062  0.00  0.00    +0.000 C 
BRANCH  27  28
ATOM     28  N   UNL     1       2.534  -3.217   5.090  0.00  0.00    +0.000 N 
ATOM     29  C   UNL     1       1.785  -3.806   6.079  0.00  0.00    +0.000 C 
ATOM     30  O   UNL     1       0.569  -3.675   6.153  0.00  0.00    +0.000 OA
ATOM     31  H   UNL     1       3.513  -3.436   4.990  0.00  0.00    +0.000 HD
BRANCH  29  32
ATOM     32  C   UNL     1       2.524  -4.595   7.028  0.00  0.00    +0.000 A 
ATOM     33  C   UNL     1       3.867  -4.865   7.195  0.00  0.00    +0.000 A 
ATOM     34  C   UNL     1       3.936  -5.699   8.324  0.00  0.00    +0.000 A 
ATOM     35  N   UNL     1       2.734  -5.950   8.844  0.00  0.00    +0.000 NA
ATOM     36  N   UNL     1       1.898  -5.265   8.044  0.00  0.00    +0.000 N 
ATOM     37  H   UNL     1       0.900  -5.290   8.240  0.00  0.00    +0.000 HD
ENDBRANCH  29  32
ENDBRANCH  27  28
ENDBRANCH  24  27
ENDBRANCH  20  21
ENDBRANCH   1  20
TORSDOF 9
