REMARK  Name = 
REMARK  8 active torsions:
REMARK  status: ('A' for Active; 'I' for Inactive)
REMARK    1  A    between atoms: C_1  and  O_2
REMARK    2  A    between atoms: O_2  and  C_3
REMARK    3  A    between atoms: C_7  and  C_8
REMARK    4  A    between atoms: N_10  and  C_11
REMARK    5  A    between atoms: C_11  and  C_12
REMARK    6  A    between atoms: C_15  and  C_16
REMARK    7  A    between atoms: C_16  and  N_17
REMARK    8  A    between atoms: C_18  and  C_20
REMARK                            x       y       z     vdW  Elec       q    Type
REMARK                         _______ _______ _______ _____ _____    ______ ____
ROOT
ATOM      1  C   UNL     1       7.741  -4.228   0.437  0.00  0.00    +0.000 A 
ATOM      2  C   UNL     1       7.768  -3.285   1.473  0.00  0.00    +0.000 A 
ATOM      3  C   UNL     1       7.869  -3.691   2.810  0.00  0.00    +0.000 A 
ATOM      4  C   UNL     1       7.967  -5.051   3.137  0.00  0.00    +0.000 A 
ATOM      5  C   UNL     1       7.959  -5.991   2.096  0.00  0.00    +0.000 A 
ATOM      6  C   UNL     1       7.858  -5.585   0.761  0.00  0.00    +0.000 A 
ENDROOT
BRANCH   1   7
ATOM      7  C   UNL     1       7.576  -3.788  -0.993  0.00  0.00    +0.000 C 
BRANCH   7  10
ATOM      8  C   UNL     1       8.884  -3.093  -2.948  0.00  0.00    +0.000 C 
ATOM      9  O   UNL     1       7.889  -2.905  -3.639  0.00  0.00    +0.000 OA
ATOM     10  N   UNL     1       8.835  -3.527  -1.639  0.00  0.00    +0.000 N 
ATOM     11  H   UNL     1       9.712  -3.654  -1.141  0.00  0.00    +0.000 HD
BRANCH   8  16
ATOM     12  C   UNL     1      12.515  -2.902  -3.198  0.00  0.00    +0.000 A 
ATOM     13  C   UNL     1      12.685  -2.476  -4.512  0.00  0.00    +0.000 A 
ATOM     14  N   UNL     1      11.639  -2.229  -5.343  0.00  0.00    +0.000 NA
ATOM     15  C   UNL     1      10.413  -2.432  -4.799  0.00  0.00    +0.000 A 
ATOM     16  C   UNL     1      10.245  -2.863  -3.490  0.00  0.00    +0.000 A 
ATOM     17  N   UNL     1      11.294  -3.104  -2.655  0.00  0.00    +0.000 NA
BRANCH  12  19
ATOM     18  C   UNL     1      13.327  -3.559  -1.114  0.00  0.00    +0.000 C 
ATOM     19  O   UNL     1      13.642  -3.134  -2.440  0.00  0.00    +0.000 OA
ENDBRANCH  12  19
ENDBRANCH   8  16
ENDBRANCH   7  10
ENDBRANCH   1   7
BRANCH   4  20
ATOM     20  C   UNL     1       8.040  -5.515   4.572  0.00  0.00    +0.000 C 
BRANCH  20  21
ATOM     21  N   UNL     1       6.728  -5.767   5.114  0.00  0.00    +0.000 N 
ATOM     22  C   UNL     1       6.545  -6.161   6.417  0.00  0.00    +0.000 C 
ATOM     23  O   UNL     1       7.483  -6.300   7.197  0.00  0.00    +0.000 OA
ATOM     24  H   UNL     1       5.991  -5.956   4.443  0.00  0.00    +0.000 HD
BRANCH  22  25
ATOM     25  C   UNL     1       5.152  -6.347   6.846  0.00  0.00    +0.000 A 
ATOM     26  C   UNL     1       4.809  -6.194   8.183  0.00  0.00    +0.000 A 
ATOM     27  S   UNL     1       3.142  -6.401   8.487  0.00  0.00    +0.000 S 
ATOM     28  C   UNL     1       2.831  -6.758   6.853  0.00  0.00    +0.000 A 
ATOM     29  N   UNL     1       1.576  -7.068   6.427  0.00  0.00    +0.000 NA
ATOM     30  C   UNL     1       1.494  -7.340   5.167  0.00  0.00    +0.000 A 
ATOM     31  N   UNL     1       2.548  -7.317   4.291  0.00  0.00    +0.000 N 
ATOM     32  C   UNL     1       3.823  -6.974   4.668  0.00  0.00    +0.000 A 
ATOM     33  O   UNL     1       4.733  -6.910   3.849  0.00  0.00    +0.000 OA
ATOM     34  C   UNL     1       3.976  -6.686   6.081  0.00  0.00    +0.000 A 
ATOM     35  H   UNL     1       2.413  -7.521   3.312  0.00  0.00    +0.000 HD
ENDBRANCH  22  25
ENDBRANCH  20  21
ENDBRANCH   4  20
TORSDOF 7
