REMARK  Name = 
REMARK  8 active torsions:
REMARK  status: ('A' for Active; 'I' for Inactive)
REMARK    1  A    between atoms: C_1  and  C_2
REMARK    2  A    between atoms: C_4  and  C_5
REMARK    3  A    between atoms: C_5  and  N_6
REMARK    4  A    between atoms: N_6  and  C_7
REMARK    5  A    between atoms: C_7  and  C_8
REMARK    6  A    between atoms: C_11  and  C_12
REMARK    7  A    between atoms: C_12  and  N_13
REMARK    8  A    between atoms: C_14  and  C_16
REMARK                            x       y       z     vdW  Elec       q    Type
REMARK                         _______ _______ _______ _____ _____    ______ ____
ROOT
ATOM      1  C   UNL     1       2.962   5.266   0.077  0.00  0.00    +0.000 A 
ATOM      2  C   UNL     1       1.683   5.609   0.537  0.00  0.00    +0.000 A 
ATOM      3  C   UNL     1       1.270   6.944   0.613  0.00  0.00    +0.000 A 
ATOM      4  C   UNL     1       2.121   7.988   0.230  0.00  0.00    +0.000 A 
ATOM      5  C   UNL     1       3.407   7.649  -0.215  0.00  0.00    +0.000 A 
ATOM      6  C   UNL     1       3.821   6.308  -0.295  0.00  0.00    +0.000 A 
ENDROOT
BRANCH   1   7
ATOM      7  C   UNL     1       3.406   3.814   0.008  0.00  0.00    +0.000 C 
BRANCH   7   8
ATOM      8  N   UNL     1       2.534   3.038  -0.870  0.00  0.00    +0.000 NA
ATOM      9  H   UNL     1       1.593   3.049  -0.476  0.00  0.00    +0.000 HD
BRANCH   8  10
ATOM     10  C   UNL     1       2.905   1.624  -0.977  0.00  0.00    +0.000 C 
BRANCH  10  14
ATOM     11  C   UNL     1       0.326  -0.270  -5.000  0.00  0.00    +0.000 C 
ATOM     12  C   UNL     1       0.841   0.154  -3.678  0.00  0.00    +0.000 A 
ATOM     13  C   UNL     1       1.998   0.805  -3.310  0.00  0.00    +0.000 A 
ATOM     14  C   UNL     1       1.919   0.953  -1.901  0.00  0.00    +0.000 A 
ATOM     15  N   UNL     1       0.785   0.418  -1.423  0.00  0.00    +0.000 NA
ATOM     16  N   UNL     1       0.164  -0.070  -2.511  0.00  0.00    +0.000 N 
ATOM     17  H   UNL     1      -0.722  -0.545  -2.383  0.00  0.00    +0.000 HD
ENDBRANCH  10  14
ENDBRANCH   8  10
ENDBRANCH   7   8
ENDBRANCH   1   7
BRANCH   4  18
ATOM     18  C   UNL     1       1.686   9.437   0.277  0.00  0.00    +0.000 C 
BRANCH  18  19
ATOM     19  N   UNL     1       1.977  10.075   1.538  0.00  0.00    +0.000 N 
ATOM     20  C   UNL     1       1.669  11.385   1.795  0.00  0.00    +0.000 C 
ATOM     21  O   UNL     1       1.117  12.121   0.982  0.00  0.00    +0.000 OA
ATOM     22  H   UNL     1       2.740   9.677   2.074  0.00  0.00    +0.000 HD
BRANCH  20  23
ATOM     23  C   UNL     1       1.996  11.843   3.154  0.00  0.00    +0.000 A 
ATOM     24  C   UNL     1       1.243  12.840   3.758  0.00  0.00    +0.000 A 
ATOM     25  S   UNL     1       1.761  13.218   5.340  0.00  0.00    +0.000 S 
ATOM     26  C   UNL     1       3.030  12.086   5.260  0.00  0.00    +0.000 A 
ATOM     27  N   UNL     1       3.894  11.928   6.293  0.00  0.00    +0.000 NA
ATOM     28  C   UNL     1       4.832  11.049   6.080  0.00  0.00    +0.000 A 
ATOM     29  N   UNL     1       4.960  10.320   4.934  0.00  0.00    +0.000 N 
ATOM     30  C   UNL     1       4.071  10.399   3.888  0.00  0.00    +0.000 A 
ATOM     31  O   UNL     1       4.153   9.654   2.922  0.00  0.00    +0.000 OA
ATOM     32  C   UNL     1       3.035  11.405   4.056  0.00  0.00    +0.000 A 
ATOM     33  H   UNL     1       5.691   9.625   4.842  0.00  0.00    +0.000 HD
ENDBRANCH  20  23
ENDBRANCH  18  19
ENDBRANCH   4  18
TORSDOF 7
