REMARK  Name = 
REMARK  6 active torsions:
REMARK  status: ('A' for Active; 'I' for Inactive)
REMARK    1  A    between atoms: C_1  and  O_2
REMARK    2  A    between atoms: O_2  and  C_3
REMARK    3  A    between atoms: C_5  and  C_6
REMARK    4  A    between atoms: C_11  and  O_12
REMARK    5  A    between atoms: O_12  and  C_13
REMARK    6  A    between atoms: C_13  and  C_14
REMARK                            x       y       z     vdW  Elec       q    Type
REMARK                         _______ _______ _______ _____ _____    ______ ____
ROOT
ATOM      1  C   UNL     1       3.060  -0.906   0.835  0.00  0.00    +0.000 A 
ATOM      2  C   UNL     1       2.735  -2.256   1.025  0.00  0.00    +0.000 A 
ATOM      3  C   UNL     1       3.579  -3.108   1.759  0.00  0.00    +0.000 A 
ATOM      4  C   UNL     1       4.772  -2.609   2.275  0.00  0.00    +0.000 A 
ATOM      5  C   UNL     1       5.107  -1.271   2.086  0.00  0.00    +0.000 A 
ATOM      6  C   UNL     1       4.240  -0.400   1.411  0.00  0.00    +0.000 A 
ENDROOT
BRANCH   3   7
ATOM      7  C   UNL     1       3.158  -4.525   1.941  0.00  0.00    +0.000 C 
ATOM      8  N   UNL     1       3.975  -5.369   2.644  0.00  0.00    +0.000 N 
ATOM      9  O   UNL     1       2.104  -4.943   1.482  0.00  0.00    +0.000 OA
ATOM     10  H   UNL     1       4.860  -5.124   3.057  0.00  0.00    +0.000 HD
ATOM     11  H   UNL     1       3.661  -6.321   2.745  0.00  0.00    +0.000 HD
ENDBRANCH   3   7
BRANCH   1  13
ATOM     12  C   UNL     1       0.971  -0.423  -0.221  0.00  0.00    +0.000 C 
ATOM     13  O   UNL     1       2.304  -0.029   0.094  0.00  0.00    +0.000 OA
ENDBRANCH   1  13
BRANCH   6  14
ATOM     14  O   UNL     1       4.494   0.951   1.309  0.00  0.00    +0.000 OA
BRANCH  14  15
ATOM     15  C   UNL     1       5.327   1.476   2.353  0.00  0.00    +0.000 C 
BRANCH  15  16
ATOM     16  C   UNL     1       5.167   2.956   2.558  0.00  0.00    +0.000 A 
ATOM     17  C   UNL     1       4.348   3.761   1.766  0.00  0.00    +0.000 A 
ATOM     18  C   UNL     1       4.229   5.116   2.062  0.00  0.00    +0.000 A 
ATOM     19  C   UNL     1       4.944   5.615   3.139  0.00  0.00    +0.000 A 
ATOM     20 CL   UNL     1       4.827   7.267   3.583  0.00  0.00    +0.000 Cl
ATOM     21  N   UNL     1       5.758   4.881   3.919  0.00  0.00    +0.000 NA
ATOM     22  C   UNL     1       5.851   3.570   3.609  0.00  0.00    +0.000 A 
ENDBRANCH  15  16
ENDBRANCH  14  15
ENDBRANCH   6  14
TORSDOF 5
