REMARK  Name = 
REMARK  7 active torsions:
REMARK  status: ('A' for Active; 'I' for Inactive)
REMARK    1  A    between atoms: C_1  and  O_2
REMARK    2  A    between atoms: O_2  and  C_3
REMARK    3  A    between atoms: N_9  and  C_10
REMARK    4  A    between atoms: C_10  and  C_11
REMARK    5  A    between atoms: C_14  and  C_15
REMARK    6  A    between atoms: C_15  and  C_16
REMARK    7  A    between atoms: C_16  and  N_17
REMARK                            x       y       z     vdW  Elec       q    Type
REMARK                         _______ _______ _______ _____ _____    ______ ____
ROOT
ATOM      1  C   UNL     1       6.015   1.580   2.921  0.00  0.00    +0.000 A 
ATOM      2  C   UNL     1       4.724   2.108   2.902  0.00  0.00    +0.000 A 
ATOM      3  C   UNL     1       4.286   2.857   1.812  0.00  0.00    +0.000 A 
ATOM      4  C   UNL     1       5.128   3.104   0.718  0.00  0.00    +0.000 A 
ATOM      5  C   UNL     1       6.457   2.668   0.792  0.00  0.00    +0.000 A 
ATOM      6  C   UNL     1       6.899   1.919   1.887  0.00  0.00    +0.000 A 
ENDROOT
BRANCH   1   7
ATOM      7  C   UNL     1       6.391   0.572   3.974  0.00  0.00    +0.000 C 
BRANCH   7  14
ATOM      8  C   UNL     1       3.035  -2.526   4.408  0.00  0.00    +0.000 A 
ATOM      9  C   UNL     1       3.381  -3.773   3.885  0.00  0.00    +0.000 A 
ATOM     10  C   UNL     1       4.606  -3.956   3.242  0.00  0.00    +0.000 A 
ATOM     11  C   UNL     1       5.507  -2.878   3.138  0.00  0.00    +0.000 A 
ATOM     12  C   UNL     1       6.795  -2.745   2.561  0.00  0.00    +0.000 A 
ATOM     13  C   UNL     1       7.220  -1.460   2.776  0.00  0.00    +0.000 A 
ATOM     14  N   UNL     1       6.235  -0.793   3.468  0.00  0.00    +0.000 N 
ATOM     15  C   UNL     1       5.151  -1.634   3.665  0.00  0.00    +0.000 A 
ATOM     16  C   UNL     1       3.900  -1.433   4.275  0.00  0.00    +0.000 A 
BRANCH   8  18
ATOM     17  C   UNL     1       1.313  -3.351   5.791  0.00  0.00    +0.000 C 
ATOM     18  O   UNL     1       1.844  -2.262   5.037  0.00  0.00    +0.000 OA
ENDBRANCH   8  18
ENDBRANCH   7  14
ENDBRANCH   1   7
BRANCH   4  19
ATOM     19  C   UNL     1       4.615   3.696  -0.579  0.00  0.00    +0.000 C 
BRANCH  19  20
ATOM     20  C   UNL     1       3.338   4.529  -0.433  0.00  0.00    +0.000 C 
BRANCH  20  21
ATOM     21  N   UNL     1       2.863   5.042  -1.704  0.00  0.00    +0.000 N 
ATOM     22  C   UNL     1       1.714   5.756  -1.782  0.00  0.00    +0.000 C 
ATOM     23  N   UNL     1       1.009   6.243  -0.831  0.00  0.00    +0.000 NA
ATOM     24  N   UNL     1       1.330   5.954  -3.055  0.00  0.00    +0.000 N 
ATOM     25  H   UNL     1       2.913   4.359  -2.458  0.00  0.00    +0.000 HD
ATOM     26  H   UNL     1       1.427   6.011   0.070  0.00  0.00    +0.000 HD
ATOM     27  H   UNL     1       2.087   6.288  -3.636  0.00  0.00    +0.000 HD
ATOM     28  H   UNL     1       0.561   6.618  -3.060  0.00  0.00    +0.000 HD
ENDBRANCH  20  21
ENDBRANCH  19  20
ENDBRANCH   4  19
TORSDOF 6
