REMARK  Name = 
REMARK  6 active torsions:
REMARK  status: ('A' for Active; 'I' for Inactive)
REMARK    1  A    between atoms: C_1  and  C_2
REMARK    2  A    between atoms: C_5  and  C_6
REMARK    3  A    between atoms: C_10  and  N_11
REMARK    4  A    between atoms: N_11  and  C_12
REMARK    5  A    between atoms: C_12  and  C_13
REMARK    6  A    between atoms: C_12  and  C_14
REMARK                            x       y       z     vdW  Elec       q    Type
REMARK                         _______ _______ _______ _____ _____    ______ ____
ROOT
ATOM      1  C   UNL     1      -1.436   1.953   1.513  0.00  0.00    +0.000 C 
ATOM      2  C   UNL     1      -0.644   0.857   0.857  0.00  0.00    +0.000 A 
ATOM      3  C   UNL     1      -1.123  -0.452   0.997  0.00  0.00    +0.000 A 
ATOM      4  N   UNL     1      -0.582  -1.544   0.421  0.00  0.00    +0.000 NA
ATOM      5  C   UNL     1       0.499  -1.309  -0.361  0.00  0.00    +0.000 A 
ATOM      6  C   UNL     1       1.073  -0.059  -0.540  0.00  0.00    +0.000 A 
ATOM      7  C   UNL     1       0.539   1.058   0.113  0.00  0.00    +0.000 A 
ENDROOT
BRANCH   5   8
ATOM      8  C   UNL     1       1.080  -2.492  -1.066  0.00  0.00    +0.000 C 
ATOM      9  N   UNL     1       0.437  -3.678  -0.831  0.00  0.00    +0.000 N 
ATOM     10  O   UNL     1       2.046  -2.424  -1.813  0.00  0.00    +0.000 OA
ATOM     11  H   UNL     1      -0.383  -3.687  -0.212  0.00  0.00    +0.000 HD
ATOM     12  H   UNL     1       0.744  -4.523  -1.282  0.00  0.00    +0.000 HD
ENDBRANCH   5   8
BRANCH   7  13
ATOM     13  N   UNL     1       1.108   2.329  -0.073  0.00  0.00    +0.000 N 
ATOM     14  H   UNL     1       0.694   3.054   0.502  0.00  0.00    +0.000 HD
BRANCH  13  15
ATOM     15  C   UNL     1       2.579   2.470  -0.198  0.00  0.00    +0.000 C 
ATOM     16  C   UNL     1       2.903   3.717  -1.029  0.00  0.00    +0.000 C 
BRANCH  15  17
ATOM     17  C   UNL     1       3.257   2.540   1.165  0.00  0.00    +0.000 A 
ATOM     18  C   UNL     1       4.286   1.647   1.509  0.00  0.00    +0.000 A 
ATOM     19  C   UNL     1       4.932   1.739   2.746  0.00  0.00    +0.000 A 
ATOM     20  C   UNL     1       4.557   2.722   3.660  0.00  0.00    +0.000 A 
ATOM     21  C   UNL     1       3.547   3.621   3.333  0.00  0.00    +0.000 A 
ATOM     22  C   UNL     1       2.904   3.532   2.097  0.00  0.00    +0.000 A 
ENDBRANCH  15  17
ENDBRANCH  13  15
ENDBRANCH   7  13
TORSDOF 4
