REMARK  Name = 
REMARK  6 active torsions:
REMARK  status: ('A' for Active; 'I' for Inactive)
REMARK    1  A    between atoms: N_1  and  C_2
REMARK    2  A    between atoms: C_2  and  C_3
REMARK    3  A    between atoms: C_3  and  C_4
REMARK    4  A    between atoms: C_7  and  O_8
REMARK    5  A    between atoms: O_8  and  C_9
REMARK    6  A    between atoms: C_14  and  N_15
REMARK                            x       y       z     vdW  Elec       q    Type
REMARK                         _______ _______ _______ _____ _____    ______ ____
ROOT
ATOM      1  O   UNL     1       8.714  -1.162   0.250  0.00  0.00    +0.000 OA
ENDROOT
BRANCH   1   2
ATOM      2  C   UNL     1       9.345  -0.281   1.035  0.00  0.00    +0.000 A 
ATOM      3  C   UNL     1       8.970   0.478   2.128  0.00  0.00    +0.000 A 
ATOM      4  N   UNL     1       9.993   1.275   2.573  0.00  0.00    +0.000 NA
ATOM      5  C   UNL     1      11.012   0.977   1.796  0.00  0.00    +0.000 A 
ATOM      6  C   UNL     1      12.340   1.461   1.804  0.00  0.00    +0.000 A 
ATOM      7  C   UNL     1      13.242   0.983   0.935  0.00  0.00    +0.000 A 
ATOM      8  C   UNL     1      12.717  -0.050  -0.027  0.00  0.00    +0.000 A 
ATOM      9  N   UNL     1      11.510  -0.518  -0.097  0.00  0.00    +0.000 NA
ATOM     10  N   UNL     1      10.680   0.019   0.849  0.00  0.00    +0.000 N 
BRANCH   7  11
ATOM     11  N   UNL     1      14.567   1.349   0.860  0.00  0.00    +0.000 N 
ATOM     12  H   UNL     1      14.782   2.233   1.317  0.00  0.00    +0.000 HD
ATOM     13  H   UNL     1      14.980   1.273  -0.066  0.00  0.00    +0.000 HD
ENDBRANCH   7  11
ENDBRANCH   1   2
BRANCH   1  17
ATOM     14  C   UNL     1       4.540  -1.296  -0.018  0.00  0.00    +0.000 A 
ATOM     15  C   UNL     1       5.197  -0.059  -0.012  0.00  0.00    +0.000 A 
ATOM     16  C   UNL     1       6.589   0.003   0.064  0.00  0.00    +0.000 A 
ATOM     17  C   UNL     1       7.340  -1.171   0.165  0.00  0.00    +0.000 A 
ATOM     18  C   UNL     1       6.699  -2.408   0.114  0.00  0.00    +0.000 A 
ATOM     19  C   UNL     1       5.304  -2.470   0.023  0.00  0.00    +0.000 A 
BRANCH  14  20
ATOM     20  C   UNL     1       3.032  -1.352  -0.082  0.00  0.00    +0.000 C 
BRANCH  20  21
ATOM     21  C   UNL     1       2.507  -1.337  -1.521  0.00  0.00    +0.000 C 
BRANCH  21  22
ATOM     22  N   UNL     1       1.044  -1.379  -1.545  0.00  0.00    +0.000 NA
ATOM     23  H   UNL     1       0.724  -1.363  -2.512  0.00  0.00    +0.000 HD
ATOM     24  H   UNL     1       0.671  -0.537  -1.108  0.00  0.00    +0.000 HD
ENDBRANCH  21  22
ENDBRANCH  20  21
ENDBRANCH  14  20
ENDBRANCH   1  17
TORSDOF 6
