REMARK  Name = 
REMARK  5 active torsions:
REMARK  status: ('A' for Active; 'I' for Inactive)
REMARK    1  A    between atoms: C_2  and  C_3
REMARK    2  A    between atoms: C_6  and  C_7
REMARK    3  A    between atoms: C_10  and  C_11
REMARK    4  A    between atoms: C_11  and  N_12
REMARK    5  A    between atoms: C_15  and  C_16
REMARK                            x       y       z     vdW  Elec       q    Type
REMARK                         _______ _______ _______ _____ _____    ______ ____
ROOT
ATOM      1  C   UNL     1       8.066   0.210   0.401  0.00  0.00    +0.000 C 
ATOM      2  C   UNL     1       9.012   0.774  -0.638  0.00  0.00    +0.000 C 
ATOM      3  C   UNL     1       8.978  -0.702  -0.431  0.00  0.00    +0.000 C 
ENDROOT
BRANCH   1   4
ATOM      4  N   UNL     1       8.373   0.218   1.834  0.00  0.00    +0.000 N 
ATOM      5  C   UNL     1       8.480   1.318   2.678  0.00  0.00    +0.000 A 
ATOM      6  C   UNL     1       7.909   2.553   2.437  0.00  0.00    +0.000 A 
ATOM      7  C   UNL     1       8.045   3.585   3.373  0.00  0.00    +0.000 A 
ATOM      8  C   UNL     1       8.768   3.349   4.536  0.00  0.00    +0.000 A 
ATOM      9  C   UNL     1       9.306   2.089   4.704  0.00  0.00    +0.000 A 
ATOM     10  N   UNL     1       9.174   1.086   3.811  0.00  0.00    +0.000 NA
ATOM     11  H   UNL     1       8.934  -0.532   2.224  0.00  0.00    +0.000 HD
BRANCH   7  12
ATOM     12  C   UNL     1       7.393   4.888   3.061  0.00  0.00    +0.000 C 
ATOM     13  N   UNL     1       7.541   5.923   3.940  0.00  0.00    +0.000 N 
ATOM     14  O   UNL     1       6.737   5.046   2.038  0.00  0.00    +0.000 OA
ATOM     15  H   UNL     1       8.072   5.898   4.795  0.00  0.00    +0.000 HD
ATOM     16  H   UNL     1       7.089   6.795   3.693  0.00  0.00    +0.000 HD
ENDBRANCH   7  12
ENDBRANCH   1   4
BRANCH   1  20
ATOM     17  C   UNL     1       3.828  -0.001  -0.709  0.00  0.00    +0.000 A 
ATOM     18  C   UNL     1       4.451   1.233  -0.492  0.00  0.00    +0.000 A 
ATOM     19  C   UNL     1       5.806   1.306  -0.154  0.00  0.00    +0.000 A 
ATOM     20  C   UNL     1       6.581   0.156   0.059  0.00  0.00    +0.000 A 
ATOM     21  C   UNL     1       5.938  -1.075  -0.110  0.00  0.00    +0.000 A 
ATOM     22  C   UNL     1       4.610  -1.152  -0.524  0.00  0.00    +0.000 A 
BRANCH  17  26
ATOM     23  C   UNL     1      -0.280  -0.351  -1.917  0.00  0.00    +0.000 A 
ATOM     24  C   UNL     1       0.445   0.788  -2.258  0.00  0.00    +0.000 A 
ATOM     25  C   UNL     1       1.781   0.905  -1.870  0.00  0.00    +0.000 A 
ATOM     26  C   UNL     1       2.413  -0.103  -1.119  0.00  0.00    +0.000 A 
ATOM     27  C   UNL     1       1.648  -1.233  -0.776  0.00  0.00    +0.000 A 
ATOM     28  C   UNL     1       0.321  -1.367  -1.178  0.00  0.00    +0.000 A 
BRANCH  23  30
ATOM     29  N   UNL     1      -2.747  -0.594  -2.650  0.00  0.00    +0.000 NA
ATOM     30  C   UNL     1      -1.643  -0.479  -2.323  0.00  0.00    +0.000 C 
ENDBRANCH  23  30
ENDBRANCH  17  26
ENDBRANCH   1  20
TORSDOF 5
