REMARK  Name = 
REMARK  6 active torsions:
REMARK  status: ('A' for Active; 'I' for Inactive)
REMARK    1  A    between atoms: C_2  and  C_20
REMARK    2  A    between atoms: N_3  and  C_4
REMARK    3  A    between atoms: C_4  and  C_5
REMARK    4  A    between atoms: C_8  and  C_9
REMARK    5  A    between atoms: C_9  and  N_10
REMARK    6  A    between atoms: C_11  and  C_13
REMARK                            x       y       z     vdW  Elec       q    Type
REMARK                         _______ _______ _______ _____ _____    ______ ____
ROOT
ATOM      1  C   UNL     1       2.263  -1.361   2.187  0.00  0.00    +0.000 C 
ENDROOT
BRANCH   1   2
ATOM      2  C   UNL     1       3.195  -1.901   3.244  0.00  0.00    +0.000 A 
ATOM      3  C   UNL     1       3.971  -1.035   4.028  0.00  0.00    +0.000 A 
ATOM      4  C   UNL     1       4.790  -1.532   5.052  0.00  0.00    +0.000 A 
ATOM      5  C   UNL     1       4.870  -2.909   5.303  0.00  0.00    +0.000 A 
ATOM      6  C   UNL     1       4.108  -3.775   4.505  0.00  0.00    +0.000 A 
ATOM      7  C   UNL     1       3.290  -3.278   3.482  0.00  0.00    +0.000 A 
BRANCH   5   8
ATOM      8  C   UNL     1       5.747  -3.455   6.407  0.00  0.00    +0.000 C 
BRANCH   8   9
ATOM      9  N   UNL     1       5.037  -3.583   7.660  0.00  0.00    +0.000 N 
ATOM     10  C   UNL     1       5.658  -4.065   8.794  0.00  0.00    +0.000 C 
ATOM     11  O   UNL     1       6.838  -4.409   8.815  0.00  0.00    +0.000 OA
ATOM     12  H   UNL     1       4.068  -3.298   7.694  0.00  0.00    +0.000 HD
BRANCH  10  13
ATOM     13  C   UNL     1       4.758  -4.080  10.028  0.00  0.00    +0.000 C 
ATOM     14  C   UNL     1       5.410  -4.653  11.288  0.00  0.00    +0.000 C 
ATOM     15  C   UNL     1       4.242  -5.054  12.188  0.00  0.00    +0.000 C 
ATOM     16  C   UNL     1       3.021  -5.170  11.278  0.00  0.00    +0.000 C 
ATOM     17  C   UNL     1       3.541  -4.984   9.859  0.00  0.00    +0.000 C 
ENDBRANCH  10  13
ENDBRANCH   8   9
ENDBRANCH   5   8
ENDBRANCH   1   2
BRANCH   1  20
ATOM     18  O   UNL     1       0.947  -0.602  -0.119  0.00  0.00    +0.000 OA
ATOM     19  C   UNL     1       2.160  -0.783  -0.184  0.00  0.00    +0.000 C 
ATOM     20  N   UNL     1       2.888  -1.239   0.892  0.00  0.00    +0.000 N 
ATOM     21  H   UNL     1       3.902  -1.176   0.871  0.00  0.00    +0.000 HD
BRANCH  19  22
ATOM     22  C   UNL     1       2.898  -0.544  -1.430  0.00  0.00    +0.000 A 
ATOM     23  C   UNL     1       2.240  -0.618  -2.651  0.00  0.00    +0.000 A 
ATOM     24  S   UNL     1       3.245  -0.289  -3.991  0.00  0.00    +0.000 S 
ATOM     25  C   UNL     1       4.582   0.011  -2.982  0.00  0.00    +0.000 A 
ATOM     26  N   UNL     1       5.780   0.400  -3.501  0.00  0.00    +0.000 NA
ATOM     27  C   UNL     1       6.691   0.630  -2.616  0.00  0.00    +0.000 A 
ATOM     28  N   UNL     1       6.522   0.493  -1.263  0.00  0.00    +0.000 N 
ATOM     29  C   UNL     1       5.347   0.058  -0.699  0.00  0.00    +0.000 A 
ATOM     30  O   UNL     1       5.252  -0.131   0.511  0.00  0.00    +0.000 OA
ATOM     31  C   UNL     1       4.277  -0.178  -1.646  0.00  0.00    +0.000 A 
ATOM     32  H   UNL     1       7.285   0.666  -0.625  0.00  0.00    +0.000 HD
ENDBRANCH  19  22
ENDBRANCH   1  20
TORSDOF 6
