REMARK  Name = 
REMARK  7 active torsions:
REMARK  status: ('A' for Active; 'I' for Inactive)
REMARK    1  A    between atoms: C_2  and  C_3
REMARK    2  A    between atoms: C_7  and  C_8
REMARK    3  A    between atoms: C_8  and  O_9
REMARK    4  A    between atoms: O_9  and  C_10
REMARK    5  A    between atoms: C_13  and  C_14
REMARK    6  A    between atoms: C_14  and  N_15
REMARK    7  A    between atoms: C_16  and  C_18
REMARK                            x       y       z     vdW  Elec       q    Type
REMARK                         _______ _______ _______ _____ _____    ______ ____
ROOT
ATOM      1  C   UNL     1       4.678   3.316   0.037  0.00  0.00    +0.000 A 
ATOM      2  C   UNL     1       4.381   4.366   0.909  0.00  0.00    +0.000 A 
ATOM      3  C   UNL     1       5.276   5.439   1.052  0.00  0.00    +0.000 A 
ATOM      4  C   UNL     1       6.478   5.463   0.329  0.00  0.00    +0.000 A 
ATOM      5  C   UNL     1       6.790   4.372  -0.489  0.00  0.00    +0.000 A 
ATOM      6  C   UNL     1       5.903   3.308  -0.628  0.00  0.00    +0.000 A 
ENDROOT
BRANCH   1   7
ATOM      7  O   UNL     1       3.730   2.337  -0.115  0.00  0.00    +0.000 OA
BRANCH   7   8
ATOM      8  C   UNL     1       3.803   1.640  -1.369  0.00  0.00    +0.000 C 
BRANCH   8  13
ATOM      9  C   UNL     1       0.073   1.259  -2.024  0.00  0.00    +0.000 A 
ATOM     10  C   UNL     1      -0.026  -0.112  -2.287  0.00  0.00    +0.000 A 
ATOM     11  C   UNL     1       1.112  -0.916  -2.254  0.00  0.00    +0.000 A 
ATOM     12  C   UNL     1       2.357  -0.359  -1.952  0.00  0.00    +0.000 A 
ATOM     13  C   UNL     1       2.469   1.010  -1.673  0.00  0.00    +0.000 A 
ATOM     14  C   UNL     1       1.323   1.816  -1.725  0.00  0.00    +0.000 A 
BRANCH   9  16
ATOM     15  N   UNL     1      -2.035   2.764  -2.088  0.00  0.00    +0.000 NA
ATOM     16  C   UNL     1      -1.093   2.091  -2.060  0.00  0.00    +0.000 C 
ENDBRANCH   9  16
ENDBRANCH   8  13
ENDBRANCH   7   8
ENDBRANCH   1   7
BRANCH   4  17
ATOM     17  C   UNL     1       7.445   6.616   0.407  0.00  0.00    +0.000 C 
BRANCH  17  18
ATOM     18  N   UNL     1       8.441   6.427   1.431  0.00  0.00    +0.000 N 
ATOM     19  C   UNL     1       9.397   7.386   1.659  0.00  0.00    +0.000 C 
ATOM     20  O   UNL     1       9.431   8.435   1.021  0.00  0.00    +0.000 OA
ATOM     21  H   UNL     1       8.596   5.482   1.770  0.00  0.00    +0.000 HD
BRANCH  19  22
ATOM     22  C   UNL     1      10.349   7.125   2.745  0.00  0.00    +0.000 A 
ATOM     23  C   UNL     1      10.943   8.192   3.407  0.00  0.00    +0.000 A 
ATOM     24  S   UNL     1      12.030   7.717   4.633  0.00  0.00    +0.000 S 
ATOM     25  C   UNL     1      11.772   6.069   4.297  0.00  0.00    +0.000 A 
ATOM     26  N   UNL     1      12.450   5.103   4.973  0.00  0.00    +0.000 NA
ATOM     27  C   UNL     1      12.171   3.898   4.602  0.00  0.00    +0.000 A 
ATOM     28  N   UNL     1      11.263   3.570   3.628  0.00  0.00    +0.000 N 
ATOM     29  C   UNL     1      10.523   4.510   2.951  0.00  0.00    +0.000 A 
ATOM     30  O   UNL     1       9.660   4.184   2.142  0.00  0.00    +0.000 OA
ATOM     31  C   UNL     1      10.833   5.883   3.297  0.00  0.00    +0.000 A 
ATOM     32  H   UNL     1      11.068   2.605   3.409  0.00  0.00    +0.000 HD
ENDBRANCH  19  22
ENDBRANCH  17  18
ENDBRANCH   4  17
TORSDOF 7
