REMARK  Name = 
REMARK  8 active torsions:
REMARK  status: ('A' for Active; 'I' for Inactive)
REMARK    1  A    between atoms: C_1  and  O_2
REMARK    2  A    between atoms: O_2  and  C_3
REMARK    3  A    between atoms: C_10  and  C_11
REMARK    4  A    between atoms: N_13  and  C_14
REMARK    5  A    between atoms: C_14  and  C_15
REMARK    6  A    between atoms: C_18  and  N_19
REMARK    7  A    between atoms: N_19  and  C_20
REMARK    8  A    between atoms: C_20  and  C_21
REMARK                            x       y       z     vdW  Elec       q    Type
REMARK                         _______ _______ _______ _____ _____    ______ ____
ROOT
ATOM      1  C   UNL     1       2.890   1.319   3.057  0.00  0.00    +0.000 C 
ENDROOT
BRANCH   1   2
ATOM      2  C   UNL     1       1.816   2.259   2.577  0.00  0.00    +0.000 A 
ATOM      3  C   UNL     1       0.534   1.793   2.258  0.00  0.00    +0.000 A 
ATOM      4  C   UNL     1      -0.463   2.678   1.819  0.00  0.00    +0.000 A 
ATOM      5  C   UNL     1      -0.204   4.046   1.700  0.00  0.00    +0.000 A 
ATOM      6  C   UNL     1       1.099   4.492   1.952  0.00  0.00    +0.000 A 
ATOM      7  C   UNL     1       2.094   3.618   2.399  0.00  0.00    +0.000 A 
BRANCH   5   8
ATOM      8  N   UNL     1      -1.132   4.988   1.245  0.00  0.00    +0.000 N 
ATOM      9  H   UNL     1      -0.989   5.179   0.257  0.00  0.00    +0.000 HD
BRANCH   8  10
ATOM     10  C   UNL     1      -2.544   4.788   1.551  0.00  0.00    +0.000 C 
BRANCH  10  11
ATOM     11  C   UNL     1      -3.276   6.117   1.610  0.00  0.00    +0.000 A 
ATOM     12  C   UNL     1      -4.648   6.174   1.315  0.00  0.00    +0.000 A 
ATOM     13  C   UNL     1      -5.360   7.371   1.448  0.00  0.00    +0.000 A 
ATOM     14  C   UNL     1      -4.707   8.522   1.884  0.00  0.00    +0.000 A 
ATOM     15 CL   UNL     1      -5.588   9.990   2.063  0.00  0.00    +0.000 Cl
ATOM     16  C   UNL     1      -3.350   8.487   2.188  0.00  0.00    +0.000 A 
ATOM     17  C   UNL     1      -2.642   7.289   2.060  0.00  0.00    +0.000 A 
ENDBRANCH  10  11
ENDBRANCH   8  10
ENDBRANCH   5   8
ENDBRANCH   1   2
BRANCH   1  20
ATOM     18  C   UNL     1       4.656  -0.122   2.152  0.00  0.00    +0.000 C 
ATOM     19  O   UNL     1       4.948  -0.508   3.281  0.00  0.00    +0.000 OA
ATOM     20  N   UNL     1       3.648   0.783   1.954  0.00  0.00    +0.000 N 
ATOM     21  H   UNL     1       3.460   1.146   1.029  0.00  0.00    +0.000 HD
BRANCH  18  29
ATOM     22  C   UNL     1       4.266   0.356  -1.239  0.00  0.00    +0.000 A 
ATOM     23  N   UNL     1       4.344   0.363  -2.586  0.00  0.00    +0.000 NA
ATOM     24  C   UNL     1       5.303  -0.364  -3.165  0.00  0.00    +0.000 A 
ATOM     25  N   UNL     1       6.215  -1.115  -2.556  0.00  0.00    +0.000 NA
ATOM     26  C   UNL     1       6.107  -1.090  -1.216  0.00  0.00    +0.000 A 
ATOM     27  S   UNL     1       7.188  -1.998  -0.276  0.00  0.00    +0.000 S 
ATOM     28  C   UNL     1       6.447  -1.481   1.162  0.00  0.00    +0.000 A 
ATOM     29  C   UNL     1       5.377  -0.616   0.966  0.00  0.00    +0.000 A 
ATOM     30  C   UNL     1       5.174  -0.384  -0.462  0.00  0.00    +0.000 A 
BRANCH  22  32
ATOM     31  C   UNL     1       2.162   1.341  -1.480  0.00  0.00    +0.000 C 
ATOM     32  O   UNL     1       3.301   1.141  -0.645  0.00  0.00    +0.000 OA
ENDBRANCH  22  32
ENDBRANCH  18  29
ENDBRANCH   1  20
TORSDOF 7
