REMARK  Name = 
REMARK  7 active torsions:
REMARK  status: ('A' for Active; 'I' for Inactive)
REMARK    1  A    between atoms: C_2  and  C_20
REMARK    2  A    between atoms: N_3  and  C_4
REMARK    3  A    between atoms: C_4  and  C_5
REMARK    4  A    between atoms: C_8  and  C_9
REMARK    5  A    between atoms: C_9  and  N_10
REMARK    6  A    between atoms: N_10  and  C_11
REMARK    7  A    between atoms: C_11  and  C_12
REMARK                            x       y       z     vdW  Elec       q    Type
REMARK                         _______ _______ _______ _____ _____    ______ ____
ROOT
ATOM      1  C   UNL     1       2.190   1.160  -2.306  0.00  0.00    +0.000 C 
ENDROOT
BRANCH   1   2
ATOM      2  C   UNL     1       3.176   1.890  -3.186  0.00  0.00    +0.000 A 
ATOM      3  C   UNL     1       3.062   3.271  -3.389  0.00  0.00    +0.000 A 
ATOM      4  C   UNL     1       3.948   3.939  -4.240  0.00  0.00    +0.000 A 
ATOM      5  C   UNL     1       4.957   3.241  -4.919  0.00  0.00    +0.000 A 
ATOM      6  C   UNL     1       5.049   1.854  -4.741  0.00  0.00    +0.000 A 
ATOM      7  C   UNL     1       4.165   1.186  -3.887  0.00  0.00    +0.000 A 
BRANCH   5   8
ATOM      8  C   UNL     1       5.901   3.961  -5.855  0.00  0.00    +0.000 C 
BRANCH   8   9
ATOM      9  N   UNL     1       6.647   5.014  -5.173  0.00  0.00    +0.000 NA
ATOM     10  H   UNL     1       7.182   4.614  -4.401  0.00  0.00    +0.000 HD
BRANCH   9  11
ATOM     11  C   UNL     1       7.602   5.654  -6.098  0.00  0.00    +0.000 C 
BRANCH  11  12
ATOM     12  C   UNL     1       8.471   6.717  -5.439  0.00  0.00    +0.000 A 
ATOM     13  N   UNL     1       9.260   6.331  -4.411  0.00  0.00    +0.000 NA
ATOM     14  C   UNL     1      10.026   7.294  -3.857  0.00  0.00    +0.000 A 
ATOM     15  C   UNL     1      10.043   8.598  -4.290  0.00  0.00    +0.000 A 
ATOM     16  C   UNL     1       9.215   8.880  -5.349  0.00  0.00    +0.000 A 
ATOM     17  N   UNL     1       8.427   7.967  -5.944  0.00  0.00    +0.000 NA
ENDBRANCH  11  12
ENDBRANCH   9  11
ENDBRANCH   8   9
ENDBRANCH   5   8
ENDBRANCH   1   2
BRANCH   1  20
ATOM     18  O   UNL     1      -0.227  -0.118  -1.418  0.00  0.00    +0.000 OA
ATOM     19  C   UNL     1       0.020   0.007  -2.610  0.00  0.00    +0.000 C 
ATOM     20  N   UNL     1       1.111   0.670  -3.117  0.00  0.00    +0.000 N 
ATOM     21  H   UNL     1       1.325   0.555  -4.095  0.00  0.00    +0.000 HD
BRANCH  19  22
ATOM     22  C   UNL     1      -0.695  -0.704  -3.663  0.00  0.00    +0.000 A 
ATOM     23  C   UNL     1      -1.131  -2.009  -3.526  0.00  0.00    +0.000 A 
ATOM     24  S   UNL     1      -1.412  -2.745  -5.052  0.00  0.00    +0.000 S 
ATOM     25  C   UNL     1      -1.082  -1.291  -5.880  0.00  0.00    +0.000 A 
ATOM     26  N   UNL     1      -0.984  -1.222  -7.235  0.00  0.00    +0.000 NA
ATOM     27  C   UNL     1      -0.766  -0.030  -7.690  0.00  0.00    +0.000 A 
ATOM     28  N   UNL     1      -0.691   1.105  -6.920  0.00  0.00    +0.000 N 
ATOM     29  C   UNL     1      -0.818   1.092  -5.554  0.00  0.00    +0.000 A 
ATOM     30  O   UNL     1      -0.849   2.118  -4.894  0.00  0.00    +0.000 OA
ATOM     31  C   UNL     1      -0.917  -0.243  -5.001  0.00  0.00    +0.000 A 
ATOM     32  H   UNL     1      -0.609   2.019  -7.347  0.00  0.00    +0.000 HD
ENDBRANCH  19  22
ENDBRANCH   1  20
TORSDOF 7
