REMARK  Name = 
REMARK  10 active torsions:
REMARK  status: ('A' for Active; 'I' for Inactive)
REMARK    1  A    between atoms: C_1  and  C_2
REMARK    2  A    between atoms: C_2  and  C_3
REMARK    3  A    between atoms: C_2  and  C_4
REMARK    4  A    between atoms: C_2  and  C_5
REMARK    5  A    between atoms: C_7  and  O_8
REMARK    6  A    between atoms: O_8  and  C_9
REMARK    7  A    between atoms: C_9  and  C_10
REMARK    8  A    between atoms: C_13  and  C_14
REMARK    9  A    between atoms: C_14  and  N_15
REMARK   10  A    between atoms: C_19  and  C_20
REMARK                            x       y       z     vdW  Elec       q    Type
REMARK                         _______ _______ _______ _____ _____    ______ ____
ROOT
ATOM      1  C   UNL     1       3.101   0.187   1.443  0.00  0.00    +0.000 A 
ATOM      2  C   UNL     1       3.173   1.465   1.984  0.00  0.00    +0.000 A 
ATOM      3  C   UNL     1       3.630   1.574   3.282  0.00  0.00    +0.000 A 
ATOM      4  N   UNL     1       3.988   0.527   4.028  0.00  0.00    +0.000 NA
ATOM      5  C   UNL     1       3.879  -0.669   3.437  0.00  0.00    +0.000 A 
ATOM      6  N   UNL     1       3.454  -0.897   2.172  0.00  0.00    +0.000 NA
ENDROOT
BRANCH   5   7
ATOM      7  C   UNL     1       4.256  -1.865   4.275  0.00  0.00    +0.000 C 
ATOM      8  N   UNL     1       4.134  -3.087   3.662  0.00  0.00    +0.000 N 
ATOM      9  O   UNL     1       4.646  -1.789   5.433  0.00  0.00    +0.000 OA
ATOM     10  H   UNL     1       3.801  -3.151   2.708  0.00  0.00    +0.000 HD
ATOM     11  H   UNL     1       4.361  -3.919   4.187  0.00  0.00    +0.000 HD
ENDBRANCH   5   7
BRANCH   1  13
ATOM     12  C   UNL     1       3.528   0.717  -0.984  0.00  0.00    +0.000 C 
ATOM     13  C   UNL     1       2.618  -0.040   0.003  0.00  0.00    +0.000 C 
ATOM     14  C   UNL     1       1.166   0.451  -0.155  0.00  0.00    +0.000 C 
ATOM     15  C   UNL     1       2.647  -1.537  -0.384  0.00  0.00    +0.000 C 
ENDBRANCH   1  13
BRANCH   3  16
ATOM     16  O   UNL     1       3.718   2.842   3.831  0.00  0.00    +0.000 OA
BRANCH  16  17
ATOM     17  C   UNL     1       4.231   2.800   5.172  0.00  0.00    +0.000 C 
BRANCH  17  18
ATOM     18  C   UNL     1       4.361   4.181   5.773  0.00  0.00    +0.000 A 
ATOM     19  C   UNL     1       4.205   4.350   7.159  0.00  0.00    +0.000 A 
ATOM     20  C   UNL     1       4.398   5.599   7.755  0.00  0.00    +0.000 A 
ATOM     21  C   UNL     1       4.762   6.707   6.980  0.00  0.00    +0.000 A 
ATOM     22  C   UNL     1       4.930   6.534   5.597  0.00  0.00    +0.000 A 
ATOM     23  C   UNL     1       4.739   5.284   5.002  0.00  0.00    +0.000 A 
BRANCH  21  24
ATOM     24  C   UNL     1       4.943   8.066   7.605  0.00  0.00    +0.000 C 
BRANCH  24  25
ATOM     25  N   UNL     1       6.286   8.591   7.388  0.00  0.00    +0.000 NA
ATOM     26  H   UNL     1       6.958   7.957   7.817  0.00  0.00    +0.000 HD
ATOM     27  H   UNL     1       6.377   9.481   7.872  0.00  0.00    +0.000 HD
ENDBRANCH  24  25
ENDBRANCH  21  24
ENDBRANCH  17  18
ENDBRANCH  16  17
ENDBRANCH   3  16
TORSDOF 7
