REMARK  Name = 
REMARK  7 active torsions:
REMARK  status: ('A' for Active; 'I' for Inactive)
REMARK    1  A    between atoms: C_1  and  O_2
REMARK    2  A    between atoms: O_2  and  C_3
REMARK    3  A    between atoms: C_5  and  C_6
REMARK    4  A    between atoms: C_11  and  O_12
REMARK    5  A    between atoms: O_12  and  C_13
REMARK    6  A    between atoms: C_13  and  C_14
REMARK    7  A    between atoms: C_18  and  C_19
REMARK                            x       y       z     vdW  Elec       q    Type
REMARK                         _______ _______ _______ _____ _____    ______ ____
ROOT
ATOM      1  O   UNL     1       4.592   1.556   0.593  0.00  0.00    +0.000 OA
ENDROOT
BRANCH   1   7
ATOM      2  C   UNL     1       3.109  -0.446   0.833  0.00  0.00    +0.000 A 
ATOM      3  C   UNL     1       2.917  -1.654   1.517  0.00  0.00    +0.000 A 
ATOM      4  C   UNL     1       3.834  -2.110   2.476  0.00  0.00    +0.000 A 
ATOM      5  C   UNL     1       4.963  -1.337   2.754  0.00  0.00    +0.000 A 
ATOM      6  C   UNL     1       5.156  -0.121   2.088  0.00  0.00    +0.000 A 
ATOM      7  C   UNL     1       4.238   0.339   1.131  0.00  0.00    +0.000 A 
BRANCH   4   8
ATOM      8  C   UNL     1       3.539  -3.419   3.128  0.00  0.00    +0.000 C 
ATOM      9  N   UNL     1       4.413  -3.913   4.050  0.00  0.00    +0.000 N 
ATOM     10  O   UNL     1       2.526  -4.055   2.852  0.00  0.00    +0.000 OA
ATOM     11  H   UNL     1       5.273  -3.470   4.338  0.00  0.00    +0.000 HD
ATOM     12  H   UNL     1       4.184  -4.810   4.459  0.00  0.00    +0.000 HD
ENDBRANCH   4   8
BRANCH   2  14
ATOM     13  C   UNL     1       0.944  -0.547  -0.187  0.00  0.00    +0.000 C 
ATOM     14  O   UNL     1       2.271  -0.039  -0.170  0.00  0.00    +0.000 OA
ENDBRANCH   2  14
ENDBRANCH   1   7
BRANCH   1  15
ATOM     15  C   UNL     1       3.665   2.168  -0.301  0.00  0.00    +0.000 C 
BRANCH  15  16
ATOM     16  C   UNL     1       4.154   3.516  -0.751  0.00  0.00    +0.000 A 
ATOM     17  C   UNL     1       5.369   3.651  -1.405  0.00  0.00    +0.000 A 
ATOM     18  N   UNL     1       5.807   4.811  -1.937  0.00  0.00    +0.000 NA
ATOM     19  C   UNL     1       4.993   5.888  -1.803  0.00  0.00    +0.000 A 
ATOM     20  C   UNL     1       3.759   5.895  -1.148  0.00  0.00    +0.000 A 
ATOM     21  C   UNL     1       3.354   4.660  -0.621  0.00  0.00    +0.000 A 
BRANCH  20  22
ATOM     22  C   UNL     1       2.940   7.119  -0.999  0.00  0.00    +0.000 A 
ATOM     23  C   UNL     1       1.530   7.070  -0.979  0.00  0.00    +0.000 A 
ATOM     24  C   UNL     1       0.765   8.222  -0.771  0.00  0.00    +0.000 A 
ATOM     25  C   UNL     1       1.399   9.444  -0.593  0.00  0.00    +0.000 A 
ATOM     26  F   UNL     1       0.670  10.543  -0.374  0.00  0.00    +0.000 F 
ATOM     27  C   UNL     1       2.781   9.535  -0.632  0.00  0.00    +0.000 A 
ATOM     28  C   UNL     1       3.547   8.381  -0.834  0.00  0.00    +0.000 A 
ENDBRANCH  20  22
ENDBRANCH  15  16
ENDBRANCH   1  15
TORSDOF 6
