REMARK  Name = 
REMARK  11 active torsions:
REMARK  status: ('A' for Active; 'I' for Inactive)
REMARK    1  A    between atoms: C_1  and  O_2
REMARK    2  A    between atoms: O_2  and  C_3
REMARK    3  A    between atoms: N_7  and  C_8
REMARK    4  A    between atoms: C_8  and  C_9
REMARK    5  A    between atoms: C_9  and  C_10
REMARK    6  A    between atoms: C_9  and  C_11
REMARK    7  A    between atoms: C_9  and  C_12
REMARK    8  A    between atoms: C_15  and  O_16
REMARK    9  A    between atoms: O_16  and  C_17
REMARK   10  A    between atoms: C_18  and  O_19
REMARK   11  A    between atoms: O_19  and  C_20
REMARK                            x       y       z     vdW  Elec       q    Type
REMARK                         _______ _______ _______ _____ _____    ______ ____
ROOT
ATOM      1  C   UNL     1       6.075  -6.635  -1.991  0.00  0.00    +0.000 C 
ATOM      2  C   UNL     1       7.497  -6.029  -2.078  0.00  0.00    +0.000 C 
ATOM      3  C   UNL     1       5.984  -7.348  -0.618  0.00  0.00    +0.000 C 
ENDROOT
BRANCH   1   4
ATOM      4  C   UNL     1       5.763  -7.647  -3.109  0.00  0.00    +0.000 A 
ATOM      5  C   UNL     1       4.512  -8.282  -3.167  0.00  0.00    +0.000 A 
ATOM      6  C   UNL     1       4.194  -9.176  -4.197  0.00  0.00    +0.000 A 
ATOM      7  C   UNL     1       5.117  -9.482  -5.203  0.00  0.00    +0.000 A 
ATOM      8  C   UNL     1       6.368  -8.856  -5.165  0.00  0.00    +0.000 A 
ATOM      9  C   UNL     1       6.674  -7.957  -4.130  0.00  0.00    +0.000 A 
BRANCH   7  10
ATOM     10  O   UNL     1       4.839 -10.326  -6.242  0.00  0.00    +0.000 OA
ATOM     11  C   UNL     1       3.713 -11.184  -6.100  0.00  0.00    +0.000 C 
ENDBRANCH   7  10
BRANCH   8  12
ATOM     12  O   UNL     1       7.382  -8.962  -6.090  0.00  0.00    +0.000 OA
BRANCH  12  13
ATOM     13  C   UNL     1       7.519 -10.146  -6.905  0.00  0.00    +0.000 C 
ATOM     14  C   UNL     1       7.886 -11.473  -6.213  0.00  0.00    +0.000 C 
ATOM     15  N   UNL     1       9.009 -11.669  -7.147  0.00  0.00    +0.000 NA
ATOM     16  C   UNL     1       8.888 -10.277  -7.604  0.00  0.00    +0.000 C 
ATOM     17  H   UNL     1       8.824 -12.356  -7.877  0.00  0.00    +0.000 HD
ENDBRANCH  12  13
ENDBRANCH   8  12
ENDBRANCH   1   4
BRANCH   1  18
ATOM     18  C   UNL     1       5.038  -5.472  -1.983  0.00  0.00    +0.000 C 
BRANCH  18  23
ATOM     19  C   UNL     1       2.674  -1.400  -4.042  0.00  0.00    +0.000 A 
ATOM     20  C   UNL     1       2.553  -2.003  -2.801  0.00  0.00    +0.000 A 
ATOM     21  C   UNL     1       3.340  -3.116  -2.498  0.00  0.00    +0.000 A 
ATOM     22  C   UNL     1       4.225  -3.623  -3.442  0.00  0.00    +0.000 A 
ATOM     23  N   UNL     1       5.046  -4.693  -3.203  0.00  0.00    +0.000 N 
ATOM     24  N   UNL     1       4.347  -3.056  -4.655  0.00  0.00    +0.000 NA
ATOM     25  C   UNL     1       3.585  -1.964  -4.924  0.00  0.00    +0.000 A 
ATOM     26  H   UNL     1       5.534  -5.023  -4.028  0.00  0.00    +0.000 HD
BRANCH  19  28
ATOM     27  C   UNL     1       1.016   0.227  -3.587  0.00  0.00    +0.000 C 
ATOM     28  O   UNL     1       1.990  -0.304  -4.479  0.00  0.00    +0.000 OA
ENDBRANCH  19  28
ENDBRANCH  18  23
ENDBRANCH   1  18
TORSDOF 7
