REMARK  Name = 
REMARK  7 active torsions:
REMARK  status: ('A' for Active; 'I' for Inactive)
REMARK    1  A    between atoms: C_1  and  C_2
REMARK    2  A    between atoms: C_2  and  C_3
REMARK    3  A    between atoms: C_2  and  C_4
REMARK    4  A    between atoms: C_2  and  C_5
REMARK    5  A    between atoms: N_7  and  C_8
REMARK    6  A    between atoms: C_8  and  C_9
REMARK    7  A    between atoms: C_18  and  C_19
REMARK                            x       y       z     vdW  Elec       q    Type
REMARK                         _______ _______ _______ _____ _____    ______ ____
ROOT
ATOM      1  C   UNL     1       2.929   0.986  -1.132  0.00  0.00    +0.000 A 
ATOM      2  C   UNL     1       3.556   0.711  -2.333  0.00  0.00    +0.000 A 
ATOM      3  N   UNL     1       3.653   1.861  -3.074  0.00  0.00    +0.000 N 
ATOM      4  C   UNL     1       3.109   2.917  -2.371  0.00  0.00    +0.000 A 
ATOM      5  C   UNL     1       2.947   4.273  -2.709  0.00  0.00    +0.000 A 
ATOM      6  C   UNL     1       2.389   5.136  -1.760  0.00  0.00    +0.000 A 
ATOM      7  C   UNL     1       2.006   4.667  -0.504  0.00  0.00    +0.000 A 
ATOM      8  C   UNL     1       2.147   3.310  -0.190  0.00  0.00    +0.000 A 
ATOM      9  C   UNL     1       2.694   2.408  -1.133  0.00  0.00    +0.000 A 
ENDROOT
BRANCH   1  11
ATOM     10  C   UNL     1       2.901  -1.474  -0.481  0.00  0.00    +0.000 C 
ATOM     11  C   UNL     1       2.553  -0.029  -0.049  0.00  0.00    +0.000 C 
ATOM     12  C   UNL     1       1.033   0.009   0.219  0.00  0.00    +0.000 C 
ATOM     13  C   UNL     1       3.308   0.251   1.264  0.00  0.00    +0.000 C 
ENDBRANCH   1  11
BRANCH   7  14
ATOM     14  C   UNL     1       1.472   5.571   0.475  0.00  0.00    +0.000 C 
ATOM     15  N   UNL     1       1.048   6.299   1.272  0.00  0.00    +0.000 NA
ENDBRANCH   7  14
BRANCH   3  16
ATOM     16  C   UNL     1       4.312   1.925  -4.376  0.00  0.00    +0.000 C 
BRANCH  16  17
ATOM     17  C   UNL     1       3.370   1.608  -5.491  0.00  0.00    +0.000 A 
ATOM     18  C   UNL     1       2.703   2.586  -6.200  0.00  0.00    +0.000 A 
ATOM     19  N   UNL     1       1.815   2.332  -7.181  0.00  0.00    +0.000 NA
ATOM     20  C   UNL     1       1.594   1.036  -7.445  0.00  0.00    +0.000 A 
ATOM     21  N   UNL     1       2.196  -0.002  -6.845  0.00  0.00    +0.000 NA
ATOM     22  C   UNL     1       3.074   0.313  -5.873  0.00  0.00    +0.000 A 
ENDBRANCH  16  17
ENDBRANCH   3  16
TORSDOF 4
