REMARK  Name = 
REMARK  9 active torsions:
REMARK  status: ('A' for Active; 'I' for Inactive)
REMARK    1  A    between atoms: C_1  and  C_2
REMARK    2  A    between atoms: N_4  and  C_5
REMARK    3  A    between atoms: C_9  and  C_10
REMARK    4  A    between atoms: C_10  and  C_11
REMARK    5  A    between atoms: C_10  and  C_12
REMARK    6  A    between atoms: C_10  and  C_13
REMARK    7  A    between atoms: C_13  and  N_14
REMARK    8  A    between atoms: C_18  and  C_19
REMARK    9  A    between atoms: C_26  and  C_27
REMARK                            x       y       z     vdW  Elec       q    Type
REMARK                         _______ _______ _______ _____ _____    ______ ____
ROOT
ATOM      1  C   UNL     1      -1.267   1.091  -5.306  0.00  0.00    +0.000 C 
ATOM      2  C   UNL     1      -0.802  -0.197  -6.034  0.00  0.00    +0.000 C 
ATOM      3  C   UNL     1      -2.287   0.716  -4.209  0.00  0.00    +0.000 C 
ENDROOT
BRANCH   1   8
ATOM      4  C   UNL     1       1.990   1.491  -3.231  0.00  0.00    +0.000 A 
ATOM      5  C   UNL     1       2.378   2.782  -3.603  0.00  0.00    +0.000 A 
ATOM      6  C   UNL     1       1.594   3.561  -4.451  0.00  0.00    +0.000 A 
ATOM      7  C   UNL     1       0.408   3.052  -4.977  0.00  0.00    +0.000 A 
ATOM      8  C   UNL     1      -0.023   1.757  -4.658  0.00  0.00    +0.000 A 
ATOM      9  C   UNL     1       0.769   1.024  -3.747  0.00  0.00    +0.000 A 
BRANCH   4  13
ATOM     10  C   UNL     1       1.990  -2.269  -3.132  0.00  0.00    +0.000 C 
ATOM     11  C   UNL     1       2.711  -1.728  -1.893  0.00  0.00    +0.000 C 
ATOM     12  C   UNL     1       2.236  -0.303  -1.507  0.00  0.00    +0.000 C 
ATOM     13  N   UNL     1       2.787   0.728  -2.396  0.00  0.00    +0.000 N 
ATOM     14  C   UNL     1       4.238   0.647  -2.646  0.00  0.00    +0.000 C 
ATOM     15  C   UNL     1       4.671  -0.803  -3.009  0.00  0.00    +0.000 C 
ATOM     16  C   UNL     1       6.196  -0.898  -3.080  0.00  0.00    +0.000 C 
ATOM     17  N   UNL     1       4.184  -1.824  -2.048  0.00  0.00    +0.000 NA
ATOM     18  H   UNL     1       4.601  -1.615  -1.140  0.00  0.00    +0.000 HD
ENDBRANCH   4  13
ENDBRANCH   1   8
BRANCH   1  19
ATOM     19  C   UNL     1      -1.944   2.035  -6.348  0.00  0.00    +0.000 C 
BRANCH  19  20
ATOM     20  N   UNL     1      -3.096   1.456  -7.032  0.00  0.00    +0.000 N 
ATOM     21  C   UNL     1      -3.749   2.211  -7.997  0.00  0.00    +0.000 A 
ATOM     22  C   UNL     1      -3.122   3.142  -8.834  0.00  0.00    +0.000 A 
ATOM     23  N   UNL     1      -3.749   3.840  -9.818  0.00  0.00    +0.000 NA
ATOM     24  C   UNL     1      -5.067   3.543  -9.955  0.00  0.00    +0.000 A 
ATOM     25  C   UNL     1      -5.708   2.621  -9.141  0.00  0.00    +0.000 A 
ATOM     26  N   UNL     1      -5.065   1.950  -8.146  0.00  0.00    +0.000 NA
ATOM     27  H   UNL     1      -3.811   1.023  -6.454  0.00  0.00    +0.000 HD
BRANCH  24  28
ATOM     28  C   UNL     1      -5.819   4.229 -11.041  0.00  0.00    +0.000 C 
ATOM     29  N   UNL     1      -5.102   5.109 -11.805  0.00  0.00    +0.000 N 
ATOM     30  O   UNL     1      -7.008   4.019 -11.244  0.00  0.00    +0.000 OA
ATOM     31  H   UNL     1      -4.114   5.247 -11.632  0.00  0.00    +0.000 HD
ATOM     32  H   UNL     1      -5.556   5.585 -12.575  0.00  0.00    +0.000 HD
ENDBRANCH  24  28
ENDBRANCH  19  20
ENDBRANCH   1  19
TORSDOF 5
