REMARK  Name = 
REMARK  6 active torsions:
REMARK  status: ('A' for Active; 'I' for Inactive)
REMARK    1  A    between atoms: C_1  and  O_2
REMARK    2  A    between atoms: O_2  and  C_3
REMARK    3  A    between atoms: C_5  and  C_6
REMARK    4  A    between atoms: C_6  and  N_7
REMARK    5  A    between atoms: C_12  and  C_13
REMARK    6  A    between atoms: C_21  and  O_22
REMARK                            x       y       z     vdW  Elec       q    Type
REMARK                         _______ _______ _______ _____ _____    ______ ____
ROOT
ATOM      1  N   UNL     1       0.922   4.720   0.098  0.00  0.00    +0.000 N 
ATOM      2  C   UNL     1       0.054   4.775  -0.970  0.00  0.00    +0.000 A 
ATOM      3  C   UNL     1      -1.219   4.545  -0.496  0.00  0.00    +0.000 A 
ATOM      4  C   UNL     1      -1.128   4.383   0.904  0.00  0.00    +0.000 A 
ATOM      5  N   UNL     1      -2.124   4.138   1.789  0.00  0.00    +0.000 NA
ATOM      6  C   UNL     1      -1.711   4.042   3.082  0.00  0.00    +0.000 A 
ATOM      7  C   UNL     1      -0.402   4.190   3.530  0.00  0.00    +0.000 A 
ATOM      8  C   UNL     1       0.609   4.440   2.605  0.00  0.00    +0.000 A 
ATOM      9  C   UNL     1       0.214   4.525   1.267  0.00  0.00    +0.000 A 
ENDROOT
BRANCH   6  10
ATOM     10  C   UNL     1      -2.783   3.735   4.086  0.00  0.00    +0.000 C 
ATOM     11  N   UNL     1      -4.044   3.582   3.577  0.00  0.00    +0.000 N 
ATOM     12  O   UNL     1      -2.557   3.618   5.284  0.00  0.00    +0.000 OA
ATOM     13  H   UNL     1      -4.194   3.663   2.577  0.00  0.00    +0.000 HD
ATOM     14  H   UNL     1      -4.806   3.344   4.195  0.00  0.00    +0.000 HD
ENDBRANCH   6  10
BRANCH   1  15
ATOM     15  C   UNL     1       2.373   4.850  -0.013  0.00  0.00    +0.000 C 
BRANCH  15  18
ATOM     16  C   UNL     1       3.371   1.338  -1.166  0.00  0.00    +0.000 A 
ATOM     17  C   UNL     1       2.779   2.604  -1.121  0.00  0.00    +0.000 A 
ATOM     18  C   UNL     1       3.052   3.499  -0.068  0.00  0.00    +0.000 A 
ATOM     19  C   UNL     1       3.967   3.120   0.923  0.00  0.00    +0.000 A 
ATOM     20  C   UNL     1       4.577   1.864   0.880  0.00  0.00    +0.000 A 
ATOM     21  C   UNL     1       4.271   0.982  -0.156  0.00  0.00    +0.000 A 
BRANCH  16  23
ATOM     22  C   UNL     1       2.176   0.713  -3.134  0.00  0.00    +0.000 C 
ATOM     23  O   UNL     1       3.133   0.397  -2.134  0.00  0.00    +0.000 OA
ENDBRANCH  16  23
BRANCH  21  24
ATOM     24  O   UNL     1       4.856  -0.257  -0.190  0.00  0.00    +0.000 OA
ATOM     25  H   UNL     1       5.404  -0.372   0.602  0.00  0.00    +0.000 HD
ENDBRANCH  21  24
ENDBRANCH  15  18
ENDBRANCH   1  15
TORSDOF 5
