REMARK  Name = 
REMARK  4 active torsions:
REMARK  status: ('A' for Active; 'I' for Inactive)
REMARK    1  A    between atoms: C_2  and  C_3
REMARK    2  A    between atoms: N_7  and  C_8
REMARK    3  A    between atoms: C_8  and  C_9
REMARK    4  A    between atoms: C_13  and  C_14
REMARK                            x       y       z     vdW  Elec       q    Type
REMARK                         _______ _______ _______ _____ _____    ______ ____
ROOT
ATOM      1  C   UNL     1      -4.361   1.160  -0.169  0.00  0.00    +0.000 C 
ATOM      2  C   UNL     1      -4.727   2.280  -1.121  0.00  0.00    +0.000 C 
ATOM      3  C   UNL     1      -4.509   2.581   0.327  0.00  0.00    +0.000 C 
ENDROOT
BRANCH   1   8
ATOM      4  C   UNL     1      -0.152  -1.092   2.002  0.00  0.00    +0.000 A 
ATOM      5  C   UNL     1      -1.104  -0.262   2.596  0.00  0.00    +0.000 A 
ATOM      6  C   UNL     1      -2.139   0.272   1.818  0.00  0.00    +0.000 A 
ATOM      7  C   UNL     1      -2.196  -0.040   0.466  0.00  0.00    +0.000 A 
ATOM      8  N   UNL     1      -3.050   0.565  -0.451  0.00  0.00    +0.000 N 
ATOM      9  N   UNL     1      -1.319  -0.895  -0.102  0.00  0.00    +0.000 NA
ATOM     10  C   UNL     1      -0.321  -1.394   0.663  0.00  0.00    +0.000 A 
ATOM     11  H   UNL     1      -2.968   0.020  -1.305  0.00  0.00    +0.000 HD
BRANCH   4  13
ATOM     12  N   UNL     1       1.924  -1.970   3.273  0.00  0.00    +0.000 NA
ATOM     13  C   UNL     1       0.988  -1.584   2.717  0.00  0.00    +0.000 C 
ENDBRANCH   4  13
ENDBRANCH   1   8
BRANCH   1  14
ATOM     14  C   UNL     1      -5.368   0.107   0.260  0.00  0.00    +0.000 A 
ATOM     15  C   UNL     1      -5.760  -0.905  -0.630  0.00  0.00    +0.000 A 
ATOM     16  C   UNL     1      -6.252  -2.117  -0.152  0.00  0.00    +0.000 A 
ATOM     17  C   UNL     1      -6.392  -2.321   1.222  0.00  0.00    +0.000 A 
ATOM     18  C   UNL     1      -6.125  -1.294   2.140  0.00  0.00    +0.000 A 
ATOM     19  C   UNL     1      -5.664  -0.070   1.625  0.00  0.00    +0.000 A 
BRANCH  18  20
ATOM     20  C   UNL     1      -6.171  -1.514   3.597  0.00  0.00    +0.000 A 
ATOM     21  C   UNL     1      -5.633  -2.670   4.184  0.00  0.00    +0.000 A 
ATOM     22  C   UNL     1      -5.620  -2.824   5.569  0.00  0.00    +0.000 A 
ATOM     23  C   UNL     1      -6.146  -1.808   6.346  0.00  0.00    +0.000 A 
ATOM     24  N   UNL     1      -6.672  -0.675   5.836  0.00  0.00    +0.000 NA
ATOM     25  C   UNL     1      -6.672  -0.561   4.485  0.00  0.00    +0.000 A 
ENDBRANCH  18  20
ENDBRANCH   1  14
TORSDOF 4
