REMARK  Name = 
REMARK  3 active torsions:
REMARK  status: ('A' for Active; 'I' for Inactive)
REMARK    1  A    between atoms: C_2  and  C_4
REMARK    2  A    between atoms: N_8  and  C_9
REMARK    3  A    between atoms: C_9  and  C_10
REMARK                            x       y       z     vdW  Elec       q    Type
REMARK                         _______ _______ _______ _____ _____    ______ ____
ROOT
ATOM      1  C   UNL     1       3.514   3.527  -1.168  0.00  0.00    +0.000 A 
ATOM      2  C   UNL     1       2.738   3.978  -0.107  0.00  0.00    +0.000 A 
ATOM      3  C   UNL     1       3.327   4.145   1.150  0.00  0.00    +0.000 A 
ATOM      4  C   UNL     1       4.674   3.851   1.327  0.00  0.00    +0.000 A 
ATOM      5  N   UNL     1       5.317   3.896   2.566  0.00  0.00    +0.000 N 
ATOM      6  N   UNL     1       5.432   3.401   0.304  0.00  0.00    +0.000 NA
ATOM      7  C   UNL     1       4.846   3.244  -0.913  0.00  0.00    +0.000 A 
ATOM      8  H   UNL     1       6.301   3.707   2.386  0.00  0.00    +0.000 HD
ENDROOT
BRANCH   1  10
ATOM      9  N   UNL     1       1.860   4.005  -2.884  0.00  0.00    +0.000 N 
ATOM     10  C   UNL     1       2.973   3.299  -2.525  0.00  0.00    +0.000 C 
ATOM     11  O   UNL     1       3.514   2.524  -3.310  0.00  0.00    +0.000 OA
ATOM     12  H   UNL     1       1.543   3.897  -3.840  0.00  0.00    +0.000 HD
ATOM     13  H   UNL     1       1.532   4.812  -2.371  0.00  0.00    +0.000 HD
ENDBRANCH   1  10
BRANCH   5  14
ATOM     14  C   UNL     1       5.010   4.824   3.664  0.00  0.00    +0.000 C 
ATOM     15  C   UNL     1       4.916   4.171   5.042  0.00  0.00    +0.000 C 
ATOM     16  C   UNL     1       3.704   4.797   4.441  0.00  0.00    +0.000 C 
BRANCH  14  17
ATOM     17  C   UNL     1       5.724   6.173   3.574  0.00  0.00    +0.000 A 
ATOM     18  C   UNL     1       5.149   7.257   2.886  0.00  0.00    +0.000 A 
ATOM     19  C   UNL     1       5.743   8.523   2.890  0.00  0.00    +0.000 A 
ATOM     20  C   UNL     1       6.936   8.730   3.576  0.00  0.00    +0.000 A 
ATOM     21  C   UNL     1       7.550   7.667   4.230  0.00  0.00    +0.000 A 
ATOM     22  C   UNL     1       6.955   6.403   4.218  0.00  0.00    +0.000 A 
ENDBRANCH  14  17
ENDBRANCH   5  14
TORSDOF 3
