REMARK  Name = 
REMARK  4 active torsions:
REMARK  status: ('A' for Active; 'I' for Inactive)
REMARK    1  A    between atoms: N_1  and  C_2
REMARK    2  A    between atoms: C_2  and  C_3
REMARK    3  A    between atoms: C_7  and  C_8
REMARK    4  A    between atoms: C_9  and  C_10
REMARK                            x       y       z     vdW  Elec       q    Type
REMARK                         _______ _______ _______ _____ _____    ______ ____
ROOT
ATOM      1  C   UNL     1       2.924   1.109  -0.792  0.00  0.00    +0.000 A 
ATOM      2  C   UNL     1       3.782   1.093  -1.886  0.00  0.00    +0.000 A 
ATOM      3  N   UNL     1       4.176   2.199  -2.554  0.00  0.00    +0.000 NA
ATOM      4  C   UNL     1       3.692   3.382  -2.106  0.00  0.00    +0.000 A 
ATOM      5  C   UNL     1       2.849   3.527  -1.006  0.00  0.00    +0.000 A 
ATOM      6  C   UNL     1       2.463   2.356  -0.352  0.00  0.00    +0.000 A 
ENDROOT
BRANCH   5   7
ATOM      7  C   UNL     1       2.333   4.852  -0.641  0.00  0.00    +0.000 C 
ATOM      8  C   UNL     1       2.002   5.221   0.609  0.00  0.00    +0.000 C 
BRANCH   8   9
ATOM      9  C   UNL     1       1.468   6.544   0.942  0.00  0.00    +0.000 A 
ATOM     10  C   UNL     1       0.694   7.312   0.088  0.00  0.00    +0.000 A 
ATOM     11  N   UNL     1       0.189   8.524   0.399  0.00  0.00    +0.000 NA
ATOM     12  C   UNL     1       0.466   8.968   1.633  0.00  0.00    +0.000 A 
ATOM     13  N   UNL     1       1.177   8.315   2.564  0.00  0.00    +0.000 NA
ATOM     14  C   UNL     1       1.656   7.107   2.192  0.00  0.00    +0.000 A 
ENDBRANCH   8   9
ENDBRANCH   5   7
BRANCH   1  15
ATOM     15  C   UNL     1       2.491  -0.154  -0.110  0.00  0.00    +0.000 C 
BRANCH  15  16
ATOM     16  N   UNL     1       1.041  -0.306  -0.154  0.00  0.00    +0.000 NA
ATOM     17  H   UNL     1       0.780  -1.199   0.259  0.00  0.00    +0.000 HD
ATOM     18  H   UNL     1       0.738  -0.339  -1.127  0.00  0.00    +0.000 HD
ENDBRANCH  15  16
ENDBRANCH   1  15
TORSDOF 4
