REMARK  Name = 
REMARK  7 active torsions:
REMARK  status: ('A' for Active; 'I' for Inactive)
REMARK    1  A    between atoms: C_2  and  C_3
REMARK    2  A    between atoms: C_2  and  C_25
REMARK    3  A    between atoms: C_3  and  O_4
REMARK    4  A    between atoms: O_4  and  C_5
REMARK    5  A    between atoms: C_8  and  C_9
REMARK    6  A    between atoms: C_9  and  N_10
REMARK    7  A    between atoms: C_11  and  C_13
REMARK                            x       y       z     vdW  Elec       q    Type
REMARK                         _______ _______ _______ _____ _____    ______ ____
ROOT
ATOM      1  C   UNL     1       2.526  -1.460   3.368  0.00  0.00    +0.000 A 
ATOM      2  C   UNL     1       3.542  -0.786   4.022  0.00  0.00    +0.000 A 
ATOM      3  C   UNL     1       3.937  -1.241   5.278  0.00  0.00    +0.000 A 
ATOM      4  C   UNL     1       3.278  -2.328   5.859  0.00  0.00    +0.000 A 
ATOM      5  C   UNL     1       2.267  -2.932   5.114  0.00  0.00    +0.000 A 
ATOM      6  N   UNL     1       1.875  -2.525   3.881  0.00  0.00    +0.000 NA
ENDROOT
BRANCH   1   7
ATOM      7  O   UNL     1       2.179  -0.981   2.123  0.00  0.00    +0.000 OA
BRANCH   7   8
ATOM      8  C   UNL     1       1.547  -1.967   1.314  0.00  0.00    +0.000 C 
BRANCH   8  10
ATOM      9  O   UNL     1       2.102  -0.510  -0.549  0.00  0.00    +0.000 OA
ATOM     10  C   UNL     1       1.648  -1.587  -0.164  0.00  0.00    +0.000 C 
BRANCH  10  11
ATOM     11  C   UNL     1       1.201  -2.582  -1.116  0.00  0.00    +0.000 A 
ATOM     12  C   UNL     1       0.623  -3.828  -0.963  0.00  0.00    +0.000 A 
ATOM     13  C   UNL     1       0.444  -4.311  -2.272  0.00  0.00    +0.000 A 
ATOM     14  N   UNL     1       0.872  -3.447  -3.193  0.00  0.00    +0.000 NA
ATOM     15  N   UNL     1       1.318  -2.406  -2.470  0.00  0.00    +0.000 N 
ATOM     16  H   UNL     1       1.705  -1.598  -2.952  0.00  0.00    +0.000 HD
ENDBRANCH  10  11
ENDBRANCH   8  10
ENDBRANCH   7   8
ENDBRANCH   1   7
BRANCH   4  17
ATOM     17  C   UNL     1       3.657  -2.842   7.217  0.00  0.00    +0.000 C 
BRANCH  17  18
ATOM     18  N   UNL     1       4.665  -3.870   7.134  0.00  0.00    +0.000 N 
ATOM     19  C   UNL     1       5.041  -4.586   8.245  0.00  0.00    +0.000 C 
ATOM     20  O   UNL     1       4.495  -4.426   9.333  0.00  0.00    +0.000 OA
ATOM     21  H   UNL     1       5.287  -3.845   6.332  0.00  0.00    +0.000 HD
BRANCH  19  22
ATOM     22  C   UNL     1       6.087  -5.598   8.051  0.00  0.00    +0.000 A 
ATOM     23  C   UNL     1       6.195  -6.656   8.944  0.00  0.00    +0.000 A 
ATOM     24  S   UNL     1       7.423  -7.770   8.543  0.00  0.00    +0.000 S 
ATOM     25  C   UNL     1       7.891  -6.849   7.191  0.00  0.00    +0.000 A 
ATOM     26  N   UNL     1       8.930  -7.240   6.404  0.00  0.00    +0.000 NA
ATOM     27  C   UNL     1       9.200  -6.430   5.436  0.00  0.00    +0.000 A 
ATOM     28  N   UNL     1       8.521  -5.267   5.178  0.00  0.00    +0.000 N 
ATOM     29  C   UNL     1       7.444  -4.852   5.923  0.00  0.00    +0.000 A 
ATOM     30  O   UNL     1       6.824  -3.833   5.634  0.00  0.00    +0.000 OA
ATOM     31  C   UNL     1       7.109  -5.718   7.037  0.00  0.00    +0.000 A 
ATOM     32  H   UNL     1       8.778  -4.682   4.396  0.00  0.00    +0.000 HD
ENDBRANCH  19  22
ENDBRANCH  17  18
ENDBRANCH   4  17
TORSDOF 7
