REMARK  Name = 
REMARK  7 active torsions:
REMARK  status: ('A' for Active; 'I' for Inactive)
REMARK    1  A    between atoms: C_1  and  N_2
REMARK    2  A    between atoms: N_2  and  C_3
REMARK    3  A    between atoms: C_3  and  C_4
REMARK    4  A    between atoms: C_7  and  C_8
REMARK    5  A    between atoms: C_8  and  O_9
REMARK    6  A    between atoms: O_9  and  C_10
REMARK    7  A    between atoms: C_18  and  C_20
REMARK                            x       y       z     vdW  Elec       q    Type
REMARK                         _______ _______ _______ _____ _____    ______ ____
ROOT
ATOM      1  C   UNL     1       1.094   1.051  -0.821  0.00  0.00    +0.000 C 
ATOM      2  N   UNL     1       2.514   0.795  -0.607  0.00  0.00    +0.000 N 
ATOM      3  C   UNL     1       3.245   0.453  -1.760  0.00  0.00    +0.000 C 
ATOM      4  O   UNL     1       2.696   0.378  -2.858  0.00  0.00    +0.000 OA
ENDROOT
BRANCH   3   5
ATOM      5  C   UNL     1       4.675   0.140  -1.648  0.00  0.00    +0.000 A 
ATOM      6  C   UNL     1       5.225  -0.689  -0.683  0.00  0.00    +0.000 A 
ATOM      7  S   UNL     1       6.906  -0.923  -0.857  0.00  0.00    +0.000 S 
ATOM      8  C   UNL     1       6.928  -0.040  -2.310  0.00  0.00    +0.000 A 
ATOM      9  N   UNL     1       8.066   0.059  -3.049  0.00  0.00    +0.000 NA
ATOM     10  C   UNL     1       7.918   0.701  -4.160  0.00  0.00    +0.000 A 
ATOM     11  N   UNL     1       6.748   1.282  -4.581  0.00  0.00    +0.000 N 
ATOM     12  C   UNL     1       5.607   1.322  -3.805  0.00  0.00    +0.000 A 
ATOM     13  O   UNL     1       4.665   2.048  -4.101  0.00  0.00    +0.000 OA
ATOM     14  C   UNL     1       5.694   0.509  -2.603  0.00  0.00    +0.000 A 
ATOM     15  H   UNL     1       6.721   1.826  -5.429  0.00  0.00    +0.000 HD
ENDBRANCH   3   5
BRANCH   2  16
ATOM     16  C   UNL     1       3.128   1.036   0.705  0.00  0.00    +0.000 C 
BRANCH  16  17
ATOM     17  C   UNL     1       2.314   1.786   1.724  0.00  0.00    +0.000 A 
ATOM     18  C   UNL     1       1.520   1.096   2.654  0.00  0.00    +0.000 A 
ATOM     19  C   UNL     1       0.721   1.795   3.558  0.00  0.00    +0.000 A 
ATOM     20  C   UNL     1       0.701   3.195   3.544  0.00  0.00    +0.000 A 
ATOM     21  C   UNL     1       1.536   3.882   2.654  0.00  0.00    +0.000 A 
ATOM     22  C   UNL     1       2.328   3.184   1.743  0.00  0.00    +0.000 A 
BRANCH  20  23
ATOM     23  C   UNL     1      -0.225   3.957   4.456  0.00  0.00    +0.000 C 
BRANCH  23  24
ATOM     24  O   UNL     1       0.430   4.218   5.692  0.00  0.00    +0.000 OA
BRANCH  24  25
ATOM     25  C   UNL     1      -0.303   4.903   6.620  0.00  0.00    +0.000 A 
ATOM     26  C   UNL     1      -1.588   5.410   6.447  0.00  0.00    +0.000 A 
ATOM     27  C   UNL     1      -2.212   6.087   7.494  0.00  0.00    +0.000 A 
ATOM     28  C   UNL     1      -1.524   6.237   8.686  0.00  0.00    +0.000 A 
ATOM     29  N   UNL     1      -0.277   5.767   8.891  0.00  0.00    +0.000 NA
ATOM     30  C   UNL     1       0.301   5.112   7.854  0.00  0.00    +0.000 A 
ENDBRANCH  24  25
ENDBRANCH  23  24
ENDBRANCH  20  23
ENDBRANCH  16  17
ENDBRANCH   2  16
TORSDOF 6
