REMARK  Name = 
REMARK  6 active torsions:
REMARK  status: ('A' for Active; 'I' for Inactive)
REMARK    1  A    between atoms: C_2  and  C_19
REMARK    2  A    between atoms: N_3  and  C_4
REMARK    3  A    between atoms: C_4  and  C_5
REMARK    4  A    between atoms: C_8  and  C_9
REMARK    5  A    between atoms: C_9  and  O_10
REMARK    6  A    between atoms: C_9  and  C_11
REMARK                            x       y       z     vdW  Elec       q    Type
REMARK                         _______ _______ _______ _____ _____    ______ ____
ROOT
ATOM      1  C   UNL     1       6.238 -10.257  -3.817  0.00  0.00    +0.000 C 
ENDROOT
BRANCH   1   2
ATOM      2  C   UNL     1       6.147  -9.402  -2.581  0.00  0.00    +0.000 A 
ATOM      3  C   UNL     1       6.942  -9.691  -1.467  0.00  0.00    +0.000 A 
ATOM      4  C   UNL     1       6.906  -8.871  -0.336  0.00  0.00    +0.000 A 
ATOM      5  C   UNL     1       6.065  -7.749  -0.288  0.00  0.00    +0.000 A 
ATOM      6  C   UNL     1       5.224  -7.497  -1.385  0.00  0.00    +0.000 A 
ATOM      7  C   UNL     1       5.262  -8.317  -2.517  0.00  0.00    +0.000 A 
BRANCH   5   8
ATOM      8  C   UNL     1       6.078  -6.842   0.930  0.00  0.00    +0.000 C 
BRANCH   8   9
ATOM      9  C   UNL     1       6.511  -5.395   0.700  0.00  0.00    +0.000 A 
ATOM     10  C   UNL     1       6.144  -4.399   1.625  0.00  0.00    +0.000 A 
ATOM     11  C   UNL     1       6.594  -3.083   1.488  0.00  0.00    +0.000 A 
ATOM     12  C   UNL     1       7.433  -2.740   0.433  0.00  0.00    +0.000 A 
ATOM     13  C   UNL     1       7.821  -3.711  -0.486  0.00  0.00    +0.000 A 
ATOM     14  C   UNL     1       7.370  -5.028  -0.351  0.00  0.00    +0.000 A 
ENDBRANCH   8   9
BRANCH   8  15
ATOM     15  O   UNL     1       4.773  -6.917   1.509  0.00  0.00    +0.000 OA
ATOM     16  H   UNL     1       4.265  -6.173   1.147  0.00  0.00    +0.000 HD
ENDBRANCH   8  15
ENDBRANCH   5   8
ENDBRANCH   1   2
BRANCH   1  19
ATOM     17  O   UNL     1       6.815 -12.926  -3.097  0.00  0.00    +0.000 OA
ATOM     18  C   UNL     1       5.660 -12.617  -3.374  0.00  0.00    +0.000 C 
ATOM     19  N   UNL     1       5.310 -11.355  -3.774  0.00  0.00    +0.000 N 
ATOM     20  H   UNL     1       4.329 -11.106  -3.835  0.00  0.00    +0.000 HD
BRANCH  18  21
ATOM     21  C   UNL     1       4.574 -13.607  -3.348  0.00  0.00    +0.000 A 
ATOM     22  C   UNL     1       4.871 -14.962  -3.417  0.00  0.00    +0.000 A 
ATOM     23  S   UNL     1       3.495 -15.968  -3.381  0.00  0.00    +0.000 S 
ATOM     24  C   UNL     1       2.454 -14.632  -3.227  0.00  0.00    +0.000 A 
ATOM     25  N   UNL     1       1.110 -14.805  -3.100  0.00  0.00    +0.000 NA
ATOM     26  C   UNL     1       0.445 -13.709  -2.938  0.00  0.00    +0.000 A 
ATOM     27  N   UNL     1       1.001 -12.456  -2.911  0.00  0.00    +0.000 N 
ATOM     28  C   UNL     1       2.337 -12.229  -3.122  0.00  0.00    +0.000 A 
ATOM     29  O   UNL     1       2.772 -11.088  -3.244  0.00  0.00    +0.000 OA
ATOM     30  C   UNL     1       3.143 -13.431  -3.239  0.00  0.00    +0.000 A 
ATOM     31  H   UNL     1       0.420 -11.636  -2.821  0.00  0.00    +0.000 HD
ENDBRANCH  18  21
ENDBRANCH   1  19
TORSDOF 6
