REMARK  Name = 
REMARK  7 active torsions:
REMARK  status: ('A' for Active; 'I' for Inactive)
REMARK    1  A    between atoms: C_1  and  N_2
REMARK    2  A    between atoms: N_2  and  C_3
REMARK    3  A    between atoms: C_4  and  C_6
REMARK    4  A    between atoms: C_9  and  O_10
REMARK    5  A    between atoms: O_10  and  C_11
REMARK    6  A    between atoms: C_11  and  C_12
REMARK    7  A    between atoms: C_12  and  C_15
REMARK                            x       y       z     vdW  Elec       q    Type
REMARK                         _______ _______ _______ _____ _____    ______ ____
ROOT
ATOM      1  C   UNL     1       4.671   0.578  -1.060  0.00  0.00    +0.000 A 
ATOM      2  C   UNL     1       5.379  -0.618  -1.041  0.00  0.00    +0.000 A 
ATOM      3  C   UNL     1       6.773  -0.631  -1.070  0.00  0.00    +0.000 A 
ATOM      4  C   UNL     1       7.485   0.557  -1.211  0.00  0.00    +0.000 A 
ATOM      5  C   UNL     1       6.783   1.758  -1.327  0.00  0.00    +0.000 A 
ATOM      6  C   UNL     1       5.384   1.775  -1.244  0.00  0.00    +0.000 A 
ENDROOT
BRANCH   1  10
ATOM      7  C   UNL     1       1.022  -0.188  -0.211  0.00  0.00    +0.000 C 
ATOM      8  N   UNL     1       2.471  -0.311  -0.202  0.00  0.00    +0.000 N 
ATOM      9  C   UNL     1       3.046  -1.263   0.742  0.00  0.00    +0.000 C 
ATOM     10  C   UNL     1       3.181   0.632  -0.963  0.00  0.00    +0.000 C 
ATOM     11  O   UNL     1       2.608   1.539  -1.568  0.00  0.00    +0.000 OA
ENDBRANCH   1  10
BRANCH   4  12
ATOM     12  O   UNL     1       8.849   0.651  -1.262  0.00  0.00    +0.000 OA
BRANCH  12  13
ATOM     13  C   UNL     1       9.566  -0.591  -1.150  0.00  0.00    +0.000 C 
BRANCH  13  14
ATOM     14  C   UNL     1      11.079  -0.382  -1.237  0.00  0.00    +0.000 C 
ATOM     15  F   UNL     1      11.459   0.420  -0.188  0.00  0.00    +0.000 F 
ATOM     16  F   UNL     1      11.677  -1.587  -0.975  0.00  0.00    +0.000 F 
BRANCH  14  17
ATOM     17  C   UNL     1      11.478   0.174  -2.592  0.00  0.00    +0.000 A 
ATOM     18  C   UNL     1      12.143   1.393  -2.670  0.00  0.00    +0.000 A 
ATOM     19  C   UNL     1      12.487   1.901  -3.917  0.00  0.00    +0.000 A 
ATOM     20  C   UNL     1      12.164   1.177  -5.062  0.00  0.00    +0.000 A 
ATOM     21  C   UNL     1      11.509  -0.030  -4.905  0.00  0.00    +0.000 A 
ATOM     22  N   UNL     1      11.166  -0.552  -3.708  0.00  0.00    +0.000 NA
ENDBRANCH  14  17
ENDBRANCH  13  14
ENDBRANCH  12  13
ENDBRANCH   4  12
TORSDOF 5
