REMARK  Name = 
REMARK  7 active torsions:
REMARK  status: ('A' for Active; 'I' for Inactive)
REMARK    1  A    between atoms: C_1  and  C_2
REMARK    2  A    between atoms: C_2  and  C_3
REMARK    3  A    between atoms: C_2  and  C_17
REMARK    4  A    between atoms: C_3  and  N_4
REMARK    5  A    between atoms: C_9  and  O_10
REMARK    6  A    between atoms: O_10  and  C_11
REMARK    7  A    between atoms: N_13  and  C_14
REMARK                            x       y       z     vdW  Elec       q    Type
REMARK                         _______ _______ _______ _____ _____    ______ ____
ROOT
ATOM      1  N   UNL     1       0.500   0.502   1.411  0.00  0.00    +0.000 N 
ATOM      2  C   UNL     1      -0.890   0.660   1.569  0.00  0.00    +0.000 A 
ATOM      3  C   UNL     1      -1.717  -0.428   1.297  0.00  0.00    +0.000 A 
ATOM      4  C   UNL     1      -3.099  -0.284   1.410  0.00  0.00    +0.000 A 
ATOM      5  C   UNL     1      -3.622   0.942   1.797  0.00  0.00    +0.000 A 
ATOM      6  C   UNL     1      -2.732   1.965   2.059  0.00  0.00    +0.000 A 
ATOM      7  N   UNL     1      -1.394   1.850   1.947  0.00  0.00    +0.000 NA
ATOM      8  H   UNL     1       0.812  -0.260   2.006  0.00  0.00    +0.000 HD
ENDROOT
BRANCH   1   9
ATOM      9  C   UNL     1       1.254   1.742   1.618  0.00  0.00    +0.000 C 
BRANCH   9  11
ATOM     10  C   UNL     1       3.118   0.926   0.061  0.00  0.00    +0.000 C 
ATOM     11  C   UNL     1       2.773   1.527   1.429  0.00  0.00    +0.000 C 
BRANCH  11  12
ATOM     12  C   UNL     1       3.528   2.835   1.641  0.00  0.00    +0.000 A 
ATOM     13  C   UNL     1       4.466   2.948   2.678  0.00  0.00    +0.000 A 
ATOM     14  C   UNL     1       5.164   4.143   2.878  0.00  0.00    +0.000 A 
ATOM     15  C   UNL     1       4.929   5.234   2.044  0.00  0.00    +0.000 A 
ATOM     16 CL   UNL     1       5.794   6.701   2.287  0.00  0.00    +0.000 Cl
ATOM     17  C   UNL     1       4.000   5.143   1.013  0.00  0.00    +0.000 A 
ATOM     18  C   UNL     1       3.304   3.949   0.811  0.00  0.00    +0.000 A 
ENDBRANCH  11  12
ENDBRANCH   9  11
ENDBRANCH   1   9
BRANCH   6  19
ATOM     19  O   UNL     1      -3.258   3.178   2.459  0.00  0.00    +0.000 OA
BRANCH  19  20
ATOM     20  C   UNL     1      -2.306   4.095   3.052  0.00  0.00    +0.000 C 
ATOM     21  C   UNL     1      -1.868   3.804   4.508  0.00  0.00    +0.000 C 
ATOM     22  N   UNL     1      -2.099   5.222   4.867  0.00  0.00    +0.000 NA
ATOM     23  C   UNL     1      -0.847   5.975   4.791  0.00  0.00    +0.000 C 
ATOM     24  C   UNL     1      -2.893   5.399   3.631  0.00  0.00    +0.000 C 
ENDBRANCH  19  20
ENDBRANCH   6  19
TORSDOF 5
