REMARK  Name = 
REMARK  10 active torsions:
REMARK  status: ('A' for Active; 'I' for Inactive)
REMARK    1  A    between atoms: C_1  and  C_2
REMARK    2  A    between atoms: C_2  and  C_3
REMARK    3  A    between atoms: C_6  and  O_7
REMARK    4  A    between atoms: O_7  and  C_8
REMARK    5  A    between atoms: C_10  and  C_11
REMARK    6  A    between atoms: C_11  and  C_14
REMARK    7  A    between atoms: C_14  and  N_15
REMARK    8  A    between atoms: N_15  and  C_16
REMARK    9  A    between atoms: C_19  and  S_20
REMARK   10  A    between atoms: S_20  and  N_21
REMARK                            x       y       z     vdW  Elec       q    Type
REMARK                         _______ _______ _______ _____ _____    ______ ____
ROOT
ATOM      1  C   UNL     1       0.588   5.899   2.965  0.00  0.00    +0.000 C 
ATOM      2  F   UNL     1       1.878   6.196   3.286  0.00  0.00    +0.000 F 
ATOM      3  F   UNL     1       0.131   6.966   2.243  0.00  0.00    +0.000 F 
ENDROOT
BRANCH   1   6
ATOM      4  C   UNL     1       1.123   2.270   1.832  0.00  0.00    +0.000 A 
ATOM      5  C   UNL     1       1.362   3.525   2.406  0.00  0.00    +0.000 A 
ATOM      6  C   UNL     1       0.458   4.587   2.201  0.00  0.00    +0.000 A 
ATOM      7  C   UNL     1      -0.658   4.383   1.374  0.00  0.00    +0.000 A 
ATOM      8  C   UNL     1      -0.916   3.124   0.840  0.00  0.00    +0.000 A 
ATOM      9  C   UNL     1      -0.044   2.072   1.094  0.00  0.00    +0.000 A 
ATOM     10  F   UNL     1      -0.365   0.860   0.621  0.00  0.00    +0.000 F 
BRANCH   4  11
ATOM     11  O   UNL     1       2.059   1.290   2.067  0.00  0.00    +0.000 OA
BRANCH  11  17
ATOM     12  C   UNL     1       0.839  -1.430   2.487  0.00  0.00    +0.000 C 
ATOM     13  C   UNL     1       1.772  -1.185   1.309  0.00  0.00    +0.000 C 
ATOM     14  C   UNL     1       1.314  -1.949   0.060  0.00  0.00    +0.000 C 
ATOM     15  N   UNL     1       3.172  -1.523   1.678  0.00  0.00    +0.000 NA
ATOM     16  C   UNL     1       3.661  -0.337   0.955  0.00  0.00    +0.000 C 
ATOM     17  C   UNL     1       2.246   0.286   1.026  0.00  0.00    +0.000 C 
ATOM     18  H   UNL     1       3.519  -2.416   1.332  0.00  0.00    +0.000 HD
ENDBRANCH  11  17
ENDBRANCH   4  11
ENDBRANCH   1   6
BRANCH   1  19
ATOM     19  C   UNL     1      -0.262   5.778   4.260  0.00  0.00    +0.000 C 
BRANCH  19  20
ATOM     20  N   UNL     1      -0.315   6.999   5.091  0.00  0.00    +0.000 N 
ATOM     21  H   UNL     1      -0.491   7.838   4.538  0.00  0.00    +0.000 HD
BRANCH  20  22
ATOM     22  C   UNL     1      -1.099   6.945   6.256  0.00  0.00    +0.000 A 
ATOM     23  C   UNL     1      -1.289   5.764   6.991  0.00  0.00    +0.000 A 
ATOM     24  C   UNL     1      -1.974   5.762   8.209  0.00  0.00    +0.000 A 
ATOM     25  C   UNL     1      -2.454   6.962   8.726  0.00  0.00    +0.000 A 
ATOM     26  C   UNL     1      -2.289   8.152   8.019  0.00  0.00    +0.000 A 
ATOM     27  C   UNL     1      -1.596   8.139   6.801  0.00  0.00    +0.000 A 
BRANCH  25  28
ATOM     28  S   UNL     1      -3.237   6.971  10.310  0.00  0.00    +0.000 S 
ATOM     29  O   UNL     1      -4.104   8.120  10.407  0.00  0.00    +0.000 OA
ATOM     30  O   UNL     1      -3.670   5.636  10.636  0.00  0.00    +0.000 OA
BRANCH  28  31
ATOM     31  N   UNL     1      -1.923   7.289  11.310  0.00  0.00    +0.000 NA
ATOM     32  H   UNL     1      -2.047   8.181  11.788  0.00  0.00    +0.000 HD
ATOM     33  H   UNL     1      -1.745   6.498  11.927  0.00  0.00    +0.000 HD
ENDBRANCH  28  31
ENDBRANCH  25  28
ENDBRANCH  20  22
ENDBRANCH  19  20
ENDBRANCH   1  19
TORSDOF 8
