REMARK  Name = 
REMARK  8 active torsions:
REMARK  status: ('A' for Active; 'I' for Inactive)
REMARK    1  A    between atoms: C_1  and  C_2
REMARK    2  A    between atoms: C_6  and  C_7
REMARK    3  A    between atoms: C_11  and  C_12
REMARK    4  A    between atoms: C_12  and  C_13
REMARK    5  A    between atoms: C_12  and  C_14
REMARK    6  A    between atoms: C_12  and  C_15
REMARK    7  A    between atoms: C_15  and  N_16
REMARK    8  A    between atoms: C_20  and  C_21
REMARK                            x       y       z     vdW  Elec       q    Type
REMARK                         _______ _______ _______ _____ _____    ______ ____
ROOT
ATOM      1  C   UNL     1       3.662  -4.323   3.748  0.00  0.00    +0.000 C 
ATOM      2  C   UNL     1       3.482  -3.137   4.728  0.00  0.00    +0.000 C 
ATOM      3  C   UNL     1       2.311  -5.057   3.591  0.00  0.00    +0.000 C 
ENDROOT
BRANCH   1  14
ATOM      4  C   UNL     1       2.378   0.007   1.865  0.00  0.00    +0.000 C 
ATOM      5  C   UNL     1       2.210  -0.204   0.361  0.00  0.00    +0.000 C 
ATOM      6  C   UNL     1       2.818   1.024  -0.360  0.00  0.00    +0.000 C 
ATOM      7  O   UNL     1       2.709   0.940  -1.785  0.00  0.00    +0.000 OA
ATOM      8  C   UNL     1       3.422  -0.215  -2.251  0.00  0.00    +0.000 C 
ATOM      9  C   UNL     1       2.815  -1.515  -1.694  0.00  0.00    +0.000 C 
ATOM     10  C   UNL     1       1.405  -1.751  -2.245  0.00  0.00    +0.000 C 
ATOM     11  N   UNL     1       2.735  -1.478  -0.211  0.00  0.00    +0.000 N 
ATOM     12  C   UNL     1       3.628  -2.306   0.454  0.00  0.00    +0.000 A 
ATOM     13  C   UNL     1       3.255  -2.897   1.664  0.00  0.00    +0.000 A 
ATOM     14  C   UNL     1       4.104  -3.765   2.373  0.00  0.00    +0.000 A 
ATOM     15  C   UNL     1       5.323  -4.062   1.763  0.00  0.00    +0.000 A 
ATOM     16  C   UNL     1       5.617  -3.484   0.536  0.00  0.00    +0.000 A 
ATOM     17  N   UNL     1       4.809  -2.617  -0.112  0.00  0.00    +0.000 NA
ENDBRANCH   1  14
BRANCH   1  18
ATOM     18  C   UNL     1       4.725  -5.303   4.330  0.00  0.00    +0.000 C 
BRANCH  18  19
ATOM     19  N   UNL     1       4.417  -5.814   5.662  0.00  0.00    +0.000 N 
ATOM     20  C   UNL     1       5.319  -6.706   6.231  0.00  0.00    +0.000 A 
ATOM     21  C   UNL     1       6.710  -6.624   6.080  0.00  0.00    +0.000 A 
ATOM     22  N   UNL     1       7.596  -7.475   6.656  0.00  0.00    +0.000 NA
ATOM     23  C   UNL     1       7.025  -8.423   7.446  0.00  0.00    +0.000 A 
ATOM     24  C   UNL     1       5.655  -8.512   7.624  0.00  0.00    +0.000 A 
ATOM     25  N   UNL     1       4.781  -7.663   7.014  0.00  0.00    +0.000 NA
ATOM     26  H   UNL     1       3.490  -6.215   5.796  0.00  0.00    +0.000 HD
BRANCH  23  27
ATOM     27  C   UNL     1       7.939  -9.382   8.128  0.00  0.00    +0.000 C 
ATOM     28  N   UNL     1       9.273  -9.212   7.853  0.00  0.00    +0.000 N 
ATOM     29  O   UNL     1       7.533 -10.255   8.881  0.00  0.00    +0.000 OA
ATOM     30  H   UNL     1       9.569  -8.466   7.234  0.00  0.00    +0.000 HD
ATOM     31  H   UNL     1       9.951  -9.818   8.290  0.00  0.00    +0.000 HD
ENDBRANCH  23  27
ENDBRANCH  18  19
ENDBRANCH   1  18
TORSDOF 4
