REMARK  Name = 
REMARK  5 active torsions:
REMARK  status: ('A' for Active; 'I' for Inactive)
REMARK    1  A    between atoms: C_1  and  C_2
REMARK    2  A    between atoms: C_2  and  N_3
REMARK    3  A    between atoms: C_2  and  C_12
REMARK    4  A    between atoms: N_3  and  C_4
REMARK    5  A    between atoms: C_7  and  C_8
REMARK                            x       y       z     vdW  Elec       q    Type
REMARK                         _______ _______ _______ _____ _____    ______ ____
ROOT
ATOM      1  N   UNL     1       2.734  -0.954   1.117  0.00  0.00    +0.000 N 
ATOM      2  H   UNL     1       3.523  -1.554   0.877  0.00  0.00    +0.000 HD
ENDROOT
BRANCH   1   3
ATOM      3  C   UNL     1       2.889  -0.452   2.413  0.00  0.00    +0.000 A 
ATOM      4  C   UNL     1       2.178   0.645   2.904  0.00  0.00    +0.000 A 
ATOM      5  C   UNL     1       2.289   1.049   4.241  0.00  0.00    +0.000 A 
ATOM      6  C   UNL     1       3.101   0.340   5.126  0.00  0.00    +0.000 A 
ATOM      7  C   UNL     1       3.805  -0.769   4.663  0.00  0.00    +0.000 A 
ATOM      8  C   UNL     1       3.685  -1.166   3.324  0.00  0.00    +0.000 A 
BRANCH   6   9
ATOM      9  C   UNL     1       3.180   0.740   6.501  0.00  0.00    +0.000 C 
ATOM     10  N   UNL     1       3.226   1.069   7.611  0.00  0.00    +0.000 NA
ENDBRANCH   6   9
ENDBRANCH   1   3
BRANCH   1  12
ATOM     11  C   UNL     1       0.866   0.051  -0.203  0.00  0.00    +0.000 C 
ATOM     12  C   UNL     1       2.381  -0.082  -0.015  0.00  0.00    +0.000 C 
BRANCH  12  13
ATOM     13  C   UNL     1       2.990  -0.691  -1.275  0.00  0.00    +0.000 A 
ATOM     14  C   UNL     1       3.937   0.027  -2.021  0.00  0.00    +0.000 A 
ATOM     15  C   UNL     1       4.540  -0.551  -3.141  0.00  0.00    +0.000 A 
ATOM     16  C   UNL     1       4.200  -1.847  -3.523  0.00  0.00    +0.000 A 
ATOM     17 CL   UNL     1       4.979  -2.572  -4.875  0.00  0.00    +0.000 Cl
ATOM     18  C   UNL     1       3.245  -2.566  -2.809  0.00  0.00    +0.000 A 
ATOM     19  C   UNL     1       2.640  -1.989  -1.693  0.00  0.00    +0.000 A 
ENDBRANCH  12  13
ENDBRANCH   1  12
TORSDOF 4
