REMARK  Name = 
REMARK  7 active torsions:
REMARK  status: ('A' for Active; 'I' for Inactive)
REMARK    1  A    between atoms: C_1  and  O_2
REMARK    2  A    between atoms: O_2  and  C_3
REMARK    3  A    between atoms: C_7  and  N_8
REMARK    4  A    between atoms: N_8  and  C_9
REMARK    5  A    between atoms: C_9  and  C_10
REMARK    6  A    between atoms: C_14  and  C_15
REMARK    7  A    between atoms: C_19  and  C_20
REMARK                            x       y       z     vdW  Elec       q    Type
REMARK                         _______ _______ _______ _____ _____    ______ ____
ROOT
ATOM      1  C   UNL     1       1.996  -4.681   4.800  0.00  0.00    +0.000 A 
ATOM      2  C   UNL     1       2.166  -6.013   4.437  0.00  0.00    +0.000 A 
ATOM      3  C   UNL     1       2.100  -6.984   5.426  0.00  0.00    +0.000 A 
ATOM      4  C   UNL     1       1.862  -6.601   6.743  0.00  0.00    +0.000 A 
ATOM      5  C   UNL     1       1.700  -5.250   7.048  0.00  0.00    +0.000 A 
ATOM      6  N   UNL     1       1.758  -4.299   6.082  0.00  0.00    +0.000 NA
ENDROOT
BRANCH   5   7
ATOM      7  C   UNL     1       1.462  -4.763   8.424  0.00  0.00    +0.000 A 
ATOM      8  C   UNL     1       0.688  -3.613   8.662  0.00  0.00    +0.000 A 
ATOM      9  C   UNL     1       0.446  -3.153   9.960  0.00  0.00    +0.000 A 
ATOM     10  C   UNL     1       0.982  -3.832  11.053  0.00  0.00    +0.000 A 
ATOM     11  C   UNL     1       1.766  -4.969  10.855  0.00  0.00    +0.000 A 
ATOM     12  C   UNL     1       2.369  -5.710  12.013  0.00  0.00    +0.000 C 
ATOM     13  C   UNL     1       2.003  -5.419   9.546  0.00  0.00    +0.000 A 
ENDBRANCH   5   7
BRANCH   1  14
ATOM     14  C   UNL     1       2.075  -3.593   3.750  0.00  0.00    +0.000 C 
BRANCH  14  15
ATOM     15  N   UNL     1       0.781  -3.362   3.114  0.00  0.00    +0.000 N 
ATOM     16  H   UNL     1       0.187  -4.180   3.022  0.00  0.00    +0.000 HD
BRANCH  15  21
ATOM     17  C   UNL     1       1.382  -0.442   0.882  0.00  0.00    +0.000 A 
ATOM     18  C   UNL     1       0.110  -0.363   0.332  0.00  0.00    +0.000 A 
ATOM     19  N   UNL     1      -0.901  -1.211   0.626  0.00  0.00    +0.000 NA
ATOM     20  C   UNL     1      -0.619  -2.185   1.525  0.00  0.00    +0.000 A 
ATOM     21  C   UNL     1       0.624  -2.389   2.133  0.00  0.00    +0.000 A 
ATOM     22  C   UNL     1       1.622  -1.467   1.797  0.00  0.00    +0.000 A 
BRANCH  17  24
ATOM     23  C   UNL     1       3.601   0.393   1.009  0.00  0.00    +0.000 C 
ATOM     24  O   UNL     1       2.283   0.503   0.479  0.00  0.00    +0.000 OA
ENDBRANCH  17  24
ENDBRANCH  15  21
ENDBRANCH  14  15
ENDBRANCH   1  14
TORSDOF 5
