REMARK  Name = 
REMARK  5 active torsions:
REMARK  status: ('A' for Active; 'I' for Inactive)
REMARK    1  A    between atoms: N_1  and  C_2
REMARK    2  A    between atoms: C_2  and  C_3
REMARK    3  A    between atoms: C_3  and  C_4
REMARK    4  A    between atoms: C_7  and  C_8
REMARK    5  A    between atoms: C_8  and  N_9
REMARK                            x       y       z     vdW  Elec       q    Type
REMARK                         _______ _______ _______ _____ _____    ______ ____
ROOT
ATOM      1  C   UNL     1       4.356  -1.001  -1.010  0.00  0.00    +0.000 A 
ATOM      2  C   UNL     1       5.043   0.214  -1.122  0.00  0.00    +0.000 A 
ATOM      3  C   UNL     1       6.438   0.251  -1.048  0.00  0.00    +0.000 A 
ATOM      4  C   UNL     1       7.177  -0.926  -0.868  0.00  0.00    +0.000 A 
ATOM      5  C   UNL     1       6.488  -2.145  -0.789  0.00  0.00    +0.000 A 
ATOM      6  C   UNL     1       5.092  -2.182  -0.864  0.00  0.00    +0.000 A 
ENDROOT
BRANCH   1   7
ATOM      7  C   UNL     1       2.846  -1.035  -1.031  0.00  0.00    +0.000 C 
BRANCH   7   8
ATOM      8  C   UNL     1       2.281  -1.212  -2.442  0.00  0.00    +0.000 C 
BRANCH   8   9
ATOM      9  N   UNL     1       0.818  -1.226  -2.423  0.00  0.00    +0.000 NA
ATOM     10  H   UNL     1       0.469  -1.332  -3.376  0.00  0.00    +0.000 HD
ATOM     11  H   UNL     1       0.472  -0.327  -2.093  0.00  0.00    +0.000 HD
ENDBRANCH   8   9
ENDBRANCH   7   8
ENDBRANCH   1   7
BRANCH   4  12
ATOM     12  C   UNL     1       8.681  -0.886  -0.755  0.00  0.00    +0.000 C 
BRANCH  12  13
ATOM     13  N   UNL     1       9.138  -0.749   0.626  0.00  0.00    +0.000 N 
ATOM     14  C   UNL     1       9.372  -1.812   1.467  0.00  0.00    +0.000 A 
ATOM     15  C   UNL     1       9.927  -1.326   2.629  0.00  0.00    +0.000 A 
ATOM     16  C   UNL     1      10.043   0.084   2.497  0.00  0.00    +0.000 A 
ATOM     17  C   UNL     1      10.544   1.099   3.324  0.00  0.00    +0.000 A 
ATOM     18  N   UNL     1      10.533   2.390   2.919  0.00  0.00    +0.000 NA
ATOM     19  C   UNL     1      10.024   2.685   1.704  0.00  0.00    +0.000 A 
ATOM     20  C   UNL     1       9.508   1.756   0.811  0.00  0.00    +0.000 A 
ATOM     21  C   UNL     1       9.534   0.426   1.239  0.00  0.00    +0.000 A 
ENDBRANCH  12  13
ENDBRANCH   4  12
TORSDOF 5
