REMARK  Name = 
REMARK  6 active torsions:
REMARK  status: ('A' for Active; 'I' for Inactive)
REMARK    1  A    between atoms: C_2  and  C_3
REMARK    2  A    between atoms: C_6  and  C_7
REMARK    3  A    between atoms: C_9  and  C_10
REMARK    4  A    between atoms: C_10  and  N_11
REMARK    5  A    between atoms: N_11  and  C_12
REMARK    6  A    between atoms: C_15  and  C_16
REMARK                            x       y       z     vdW  Elec       q    Type
REMARK                         _______ _______ _______ _____ _____    ______ ____
ROOT
ATOM      1  C   UNL     1       6.842  -1.285  -1.671  0.00  0.00    +0.000 C 
ATOM      2  C   UNL     1       6.942  -0.908  -3.134  0.00  0.00    +0.000 C 
ATOM      3  C   UNL     1       6.281  -2.192  -2.769  0.00  0.00    +0.000 C 
ENDROOT
BRANCH   1   6
ATOM      4  C   UNL     1       5.026   1.503   0.229  0.00  0.00    +0.000 A 
ATOM      5  C   UNL     1       5.992   0.818  -0.506  0.00  0.00    +0.000 A 
ATOM      6  C   UNL     1       5.832  -0.541  -0.807  0.00  0.00    +0.000 A 
ATOM      7  C   UNL     1       4.694  -1.170  -0.294  0.00  0.00    +0.000 A 
ATOM      8  C   UNL     1       3.769  -0.428   0.416  0.00  0.00    +0.000 A 
ATOM      9  N   UNL     1       3.909   0.884   0.683  0.00  0.00    +0.000 NA
BRANCH   4  13
ATOM     10  C   UNL     1       5.366   5.662   1.291  0.00  0.00    +0.000 A 
ATOM     11  C   UNL     1       5.977   5.194   0.132  0.00  0.00    +0.000 A 
ATOM     12  C   UNL     1       5.866   3.843  -0.225  0.00  0.00    +0.000 A 
ATOM     13  C   UNL     1       5.149   2.933   0.575  0.00  0.00    +0.000 A 
ATOM     14  C   UNL     1       4.536   3.437   1.739  0.00  0.00    +0.000 A 
ATOM     15  C   UNL     1       4.642   4.782   2.097  0.00  0.00    +0.000 A 
BRANCH  10  17
ATOM     16  N   UNL     1       5.567   8.158   1.946  0.00  0.00    +0.000 NA
ATOM     17  C   UNL     1       5.474   7.038   1.652  0.00  0.00    +0.000 C 
ENDBRANCH  10  17
ENDBRANCH   4  13
ENDBRANCH   1   6
BRANCH   1  18
ATOM     18  N   UNL     1       7.943  -1.886  -0.917  0.00  0.00    +0.000 N 
ATOM     19  H   UNL     1       7.840  -2.862  -0.661  0.00  0.00    +0.000 HD
BRANCH  18  20
ATOM     20  C   UNL     1       9.180  -1.318  -0.570  0.00  0.00    +0.000 A 
ATOM     21  C   UNL     1      10.009  -2.083   0.268  0.00  0.00    +0.000 A 
ATOM     22  C   UNL     1      11.278  -1.642   0.659  0.00  0.00    +0.000 A 
ATOM     23  C   UNL     1      11.752  -0.404   0.225  0.00  0.00    +0.000 A 
ATOM     24  C   UNL     1      10.920   0.396  -0.568  0.00  0.00    +0.000 A 
ATOM     25  C   UNL     1       9.652  -0.057  -0.951  0.00  0.00    +0.000 A 
ATOM     26  F   UNL     1       8.917   0.755  -1.726  0.00  0.00    +0.000 F 
BRANCH  23  27
ATOM     27  C   UNL     1      13.115   0.099   0.558  0.00  0.00    +0.000 C 
ATOM     28  N   UNL     1      13.940  -0.686   1.316  0.00  0.00    +0.000 N 
ATOM     29  O   UNL     1      13.506   1.188   0.156  0.00  0.00    +0.000 OA
ATOM     30  H   UNL     1      13.719  -1.599   1.677  0.00  0.00    +0.000 HD
ATOM     31  H   UNL     1      14.866  -0.322   1.505  0.00  0.00    +0.000 HD
ENDBRANCH  23  27
ENDBRANCH  18  20
ENDBRANCH   1  18
TORSDOF 6
