REMARK  Name = 
REMARK  8 active torsions:
REMARK  status: ('A' for Active; 'I' for Inactive)
REMARK    1  A    between atoms: C_1  and  O_2
REMARK    2  A    between atoms: O_2  and  C_3
REMARK    3  A    between atoms: C_5  and  C_6
REMARK    4  A    between atoms: C_6  and  N_7
REMARK    5  A    between atoms: C_8  and  C_10
REMARK    6  A    between atoms: C_22  and  C_23
REMARK    7  A    between atoms: C_23  and  N_24
REMARK    8  A    between atoms: C_25  and  C_27
REMARK                            x       y       z     vdW  Elec       q    Type
REMARK                         _______ _______ _______ _____ _____    ______ ____
ROOT
ATOM      1  C   UNL     1       3.031  -1.042   0.094  0.00  0.00    +0.000 A 
ATOM      2  C   UNL     1       2.692  -2.069  -0.796  0.00  0.00    +0.000 A 
ATOM      3  C   UNL     1       3.454  -3.243  -0.872  0.00  0.00    +0.000 A 
ATOM      4  C   UNL     1       4.560  -3.391  -0.029  0.00  0.00    +0.000 A 
ATOM      5  C   UNL     1       4.906  -2.373   0.862  0.00  0.00    +0.000 A 
ATOM      6  C   UNL     1       4.155  -1.186   0.927  0.00  0.00    +0.000 A 
ENDROOT
BRANCH   1   8
ATOM      7  C   UNL     1       1.020   0.157  -0.333  0.00  0.00    +0.000 C 
ATOM      8  O   UNL     1       2.341   0.137   0.200  0.00  0.00    +0.000 OA
ENDBRANCH   1   8
BRANCH   3   9
ATOM      9  C   UNL     1       3.050  -4.336  -1.825  0.00  0.00    +0.000 C 
BRANCH   9  10
ATOM     10  N   UNL     1       2.168  -5.285  -1.191  0.00  0.00    +0.000 N 
ATOM     11  C   UNL     1       0.807  -5.258  -1.347  0.00  0.00    +0.000 C 
ATOM     12  O   UNL     1       0.241  -4.409  -2.031  0.00  0.00    +0.000 OA
ATOM     13  H   UNL     1       2.577  -5.866  -0.467  0.00  0.00    +0.000 HD
BRANCH  11  14
ATOM     14  C   UNL     1       0.057  -6.354  -0.713  0.00  0.00    +0.000 A 
ATOM     15  C   UNL     1      -1.207  -6.678  -1.180  0.00  0.00    +0.000 A 
ATOM     16  S   UNL     1      -1.920  -8.000  -0.372  0.00  0.00    +0.000 S 
ATOM     17  C   UNL     1      -0.581  -8.159   0.664  0.00  0.00    +0.000 A 
ATOM     18  N   UNL     1      -0.559  -9.112   1.634  0.00  0.00    +0.000 NA
ATOM     19  C   UNL     1       0.500  -9.098   2.372  0.00  0.00    +0.000 A 
ATOM     20  N   UNL     1       1.545  -8.223   2.221  0.00  0.00    +0.000 N 
ATOM     21  C   UNL     1       1.593  -7.283   1.220  0.00  0.00    +0.000 A 
ATOM     22  O   UNL     1       2.587  -6.585   1.051  0.00  0.00    +0.000 OA
ATOM     23  C   UNL     1       0.407  -7.231   0.384  0.00  0.00    +0.000 A 
ATOM     24  H   UNL     1       2.355  -8.280   2.820  0.00  0.00    +0.000 HD
ENDBRANCH  11  14
ENDBRANCH   9  10
ENDBRANCH   3   9
BRANCH   6  25
ATOM     25  C   UNL     1       4.525  -0.137   1.949  0.00  0.00    +0.000 C 
BRANCH  25  26
ATOM     26  N   UNL     1       3.851  -0.385   3.207  0.00  0.00    +0.000 N 
ATOM     27  C   UNL     1       4.110   0.360   4.326  0.00  0.00    +0.000 C 
ATOM     28  O   UNL     1       4.968   1.239   4.359  0.00  0.00    +0.000 OA
ATOM     29  H   UNL     1       3.026  -0.966   3.174  0.00  0.00    +0.000 HD
BRANCH  27  30
ATOM     30  C   UNL     1       3.303   0.041   5.476  0.00  0.00    +0.000 A 
ATOM     31  C   UNL     1       2.336  -0.916   5.716  0.00  0.00    +0.000 A 
ATOM     32  N   UNL     1       1.854  -0.835   6.997  0.00  0.00    +0.000 NA
ATOM     33  C   UNL     1       2.512   0.157   7.551  0.00  0.00    +0.000 A 
ATOM     34  N   UNL     1       3.396   0.715   6.673  0.00  0.00    +0.000 N 
ATOM     35  H   UNL     1       4.024   1.488   6.858  0.00  0.00    +0.000 HD
ENDBRANCH  27  30
ENDBRANCH  25  26
ENDBRANCH   6  25
TORSDOF 7
