REMARK  Name = 
REMARK  7 active torsions:
REMARK  status: ('A' for Active; 'I' for Inactive)
REMARK    1  A    between atoms: C_1  and  C_2
REMARK    2  A    between atoms: C_4  and  C_5
REMARK    3  A    between atoms: C_5  and  N_6
REMARK    4  A    between atoms: C_7  and  C_9
REMARK    5  A    between atoms: C_21  and  C_22
REMARK    6  A    between atoms: C_22  and  O_23
REMARK    7  A    between atoms: O_23  and  C_24
REMARK                            x       y       z     vdW  Elec       q    Type
REMARK                         _______ _______ _______ _____ _____    ______ ____
ROOT
ATOM      1  C   UNL     1      -1.813   2.588  -0.003  0.00  0.00    +0.000 C 
ENDROOT
BRANCH   1   5
ATOM      2  C   UNL     1       2.548   0.093   0.022  0.00  0.00    +0.000 C 
ATOM      3  C   UNL     1       1.045   0.041   0.038  0.00  0.00    +0.000 A 
ATOM      4  C   UNL     1       0.328   1.252   0.030  0.00  0.00    +0.000 A 
ATOM      5  C   UNL     1      -1.074   1.276   0.007  0.00  0.00    +0.000 A 
ATOM      6  C   UNL     1      -1.765   0.062   0.038  0.00  0.00    +0.000 A 
ATOM      7  C   UNL     1      -1.067  -1.148   0.060  0.00  0.00    +0.000 A 
ATOM      8  C   UNL     1       0.340  -1.180   0.045  0.00  0.00    +0.000 A 
BRANCH   8   9
ATOM      9  C   UNL     1       1.031  -2.532   0.043  0.00  0.00    +0.000 C 
BRANCH   9  10
ATOM     10  O   UNL     1       1.261  -2.954   1.389  0.00  0.00    +0.000 OA
BRANCH  10  11
ATOM     11  C   UNL     1       1.769  -4.236   1.465  0.00  0.00    +0.000 A 
ATOM     12  C   UNL     1       2.023  -4.730   2.737  0.00  0.00    +0.000 A 
ATOM     13  C   UNL     1       2.525  -6.023   2.859  0.00  0.00    +0.000 A 
ATOM     14  C   UNL     1       2.753  -6.775   1.713  0.00  0.00    +0.000 A 
ATOM     15  C   UNL     1       2.471  -6.197   0.485  0.00  0.00    +0.000 A 
ATOM     16  N   UNL     1       1.988  -4.945   0.337  0.00  0.00    +0.000 NA
ENDBRANCH  10  11
ENDBRANCH   9  10
ENDBRANCH   8   9
ENDBRANCH   1   5
BRANCH   1  17
ATOM     17  N   UNL     1      -2.071   3.048   1.338  0.00  0.00    +0.000 N 
ATOM     18  C   UNL     1      -2.832   4.163   1.578  0.00  0.00    +0.000 C 
ATOM     19  O   UNL     1      -3.366   4.794   0.668  0.00  0.00    +0.000 OA
ATOM     20  H   UNL     1      -1.462   2.691   2.068  0.00  0.00    +0.000 HD
BRANCH  18  21
ATOM     21  C   UNL     1      -3.031   4.532   2.984  0.00  0.00    +0.000 A 
ATOM     22  C   UNL     1      -4.131   5.298   3.346  0.00  0.00    +0.000 A 
ATOM     23  S   UNL     1      -4.242   5.588   5.023  0.00  0.00    +0.000 S 
ATOM     24  C   UNL     1      -2.795   4.744   5.321  0.00  0.00    +0.000 A 
ATOM     25  N   UNL     1      -2.298   4.631   6.582  0.00  0.00    +0.000 NA
ATOM     26  C   UNL     1      -1.180   3.989   6.658  0.00  0.00    +0.000 A 
ATOM     27  N   UNL     1      -0.517   3.445   5.589  0.00  0.00    +0.000 N 
ATOM     28  C   UNL     1      -0.991   3.517   4.301  0.00  0.00    +0.000 A 
ATOM     29  O   UNL     1      -0.385   2.997   3.370  0.00  0.00    +0.000 OA
ATOM     30  C   UNL     1      -2.244   4.234   4.158  0.00  0.00    +0.000 A 
ATOM     31  H   UNL     1       0.353   2.949   5.716  0.00  0.00    +0.000 HD
ENDBRANCH  18  21
ENDBRANCH   1  17
TORSDOF 6
