REMARK  Name = 
REMARK  8 active torsions:
REMARK  status: ('A' for Active; 'I' for Inactive)
REMARK    1  A    between atoms: C_1  and  O_2
REMARK    2  A    between atoms: O_2  and  C_3
REMARK    3  A    between atoms: C_10  and  C_11
REMARK    4  A    between atoms: N_13  and  C_14
REMARK    5  A    between atoms: C_14  and  C_15
REMARK    6  A    between atoms: C_18  and  N_19
REMARK    7  A    between atoms: N_19  and  C_20
REMARK    8  A    between atoms: C_20  and  C_21
REMARK                            x       y       z     vdW  Elec       q    Type
REMARK                         _______ _______ _______ _____ _____    ______ ____
ROOT
ATOM      1  C   UNL     1       3.035  -2.668   2.086  0.00  0.00    +0.000 C 
ENDROOT
BRANCH   1   2
ATOM      2  C   UNL     1       1.994  -1.923   2.882  0.00  0.00    +0.000 A 
ATOM      3  C   UNL     1       0.963  -2.606   3.541  0.00  0.00    +0.000 A 
ATOM      4  C   UNL     1       0.028  -1.912   4.323  0.00  0.00    +0.000 A 
ATOM      5  C   UNL     1       0.106  -0.525   4.468  0.00  0.00    +0.000 A 
ATOM      6  C   UNL     1       1.076   0.158   3.726  0.00  0.00    +0.000 A 
ATOM      7  C   UNL     1       2.019  -0.527   2.954  0.00  0.00    +0.000 A 
BRANCH   5   8
ATOM      8  N   UNL     1      -0.765   0.234   5.248  0.00  0.00    +0.000 N 
ATOM      9  H   UNL     1      -1.468   0.696   4.674  0.00  0.00    +0.000 HD
BRANCH   8  10
ATOM     10  C   UNL     1      -1.347  -0.346   6.455  0.00  0.00    +0.000 C 
BRANCH  10  11
ATOM     11  C   UNL     1      -1.593   0.760   7.452  0.00  0.00    +0.000 A 
ATOM     12  C   UNL     1      -0.533   1.576   7.883  0.00  0.00    +0.000 A 
ATOM     13  C   UNL     1      -0.752   2.604   8.805  0.00  0.00    +0.000 A 
ATOM     14  C   UNL     1      -2.030   2.823   9.314  0.00  0.00    +0.000 A 
ATOM     15  C   UNL     1      -3.086   2.009   8.909  0.00  0.00    +0.000 A 
ATOM     16  C   UNL     1      -2.861   0.985   7.989  0.00  0.00    +0.000 A 
ATOM     17  F   UNL     1      -3.892   0.211   7.622  0.00  0.00    +0.000 F 
ENDBRANCH  10  11
ENDBRANCH   8  10
ENDBRANCH   5   8
ENDBRANCH   1   2
BRANCH   1  20
ATOM     18  C   UNL     1       3.382  -3.524  -0.193  0.00  0.00    +0.000 C 
ATOM     19  O   UNL     1       4.452  -4.036   0.126  0.00  0.00    +0.000 OA
ATOM     20  N   UNL     1       2.627  -2.834   0.715  0.00  0.00    +0.000 N 
ATOM     21  H   UNL     1       1.779  -2.369   0.423  0.00  0.00    +0.000 HD
BRANCH  18  29
ATOM     22  C   UNL     1       0.470  -2.482  -1.704  0.00  0.00    +0.000 A 
ATOM     23  N   UNL     1      -0.545  -2.174  -2.536  0.00  0.00    +0.000 NA
ATOM     24  C   UNL     1      -0.442  -2.543  -3.815  0.00  0.00    +0.000 A 
ATOM     25  N   UNL     1       0.567  -3.205  -4.380  0.00  0.00    +0.000 NA
ATOM     26  C   UNL     1       1.559  -3.484  -3.520  0.00  0.00    +0.000 A 
ATOM     27  S   UNL     1       2.929  -4.327  -4.066  0.00  0.00    +0.000 S 
ATOM     28  C   UNL     1       3.637  -4.276  -2.523  0.00  0.00    +0.000 A 
ATOM     29  C   UNL     1       2.864  -3.624  -1.569  0.00  0.00    +0.000 A 
ATOM     30  C   UNL     1       1.614  -3.159  -2.167  0.00  0.00    +0.000 A 
BRANCH  22  32
ATOM     31  C   UNL     1      -0.959  -1.879   0.049  0.00  0.00    +0.000 C 
ATOM     32  O   UNL     1       0.382  -2.074  -0.392  0.00  0.00    +0.000 OA
ENDBRANCH  22  32
ENDBRANCH  18  29
ENDBRANCH   1  20
TORSDOF 7
