REMARK  Name = 
REMARK  5 active torsions:
REMARK  status: ('A' for Active; 'I' for Inactive)
REMARK    1  A    between atoms: N_1  and  C_2
REMARK    2  A    between atoms: C_2  and  C_3
REMARK    3  A    between atoms: C_6  and  O_7
REMARK    4  A    between atoms: O_7  and  C_8
REMARK    5  A    between atoms: C_8  and  C_9
REMARK                            x       y       z     vdW  Elec       q    Type
REMARK                         _______ _______ _______ _____ _____    ______ ____
ROOT
ATOM      1  C   UNL     1       2.939   1.165   0.806  0.00  0.00    +0.000 A 
ATOM      2  C   UNL     1       2.743   2.481   0.371  0.00  0.00    +0.000 A 
ATOM      3  C   UNL     1       2.991   3.562   1.221  0.00  0.00    +0.000 A 
ATOM      4  C   UNL     1       3.440   3.345   2.523  0.00  0.00    +0.000 A 
ATOM      5  C   UNL     1       3.645   2.035   2.961  0.00  0.00    +0.000 A 
ATOM      6  C   UNL     1       3.397   0.952   2.112  0.00  0.00    +0.000 A 
ENDROOT
BRANCH   1   7
ATOM      7  C   UNL     1       2.637   0.010  -0.114  0.00  0.00    +0.000 C 
BRANCH   7   8
ATOM      8  N   UNL     1       3.420   0.084  -1.342  0.00  0.00    +0.000 NA
ATOM      9  H   UNL     1       3.285  -0.771  -1.876  0.00  0.00    +0.000 HD
ATOM     10  H   UNL     1       4.409   0.120  -1.096  0.00  0.00    +0.000 HD
ENDBRANCH   7   8
ENDBRANCH   1   7
BRANCH   4  11
ATOM     11  O   UNL     1       3.701   4.320   3.448  0.00  0.00    +0.000 OA
BRANCH  11  12
ATOM     12  C   UNL     1       3.500   5.665   3.010  0.00  0.00    +0.000 C 
BRANCH  12  13
ATOM     13  C   UNL     1       3.840   6.638   4.143  0.00  0.00    +0.000 C 
ATOM     14  C   UNL     1       3.593   8.082   3.686  0.00  0.00    +0.000 C 
ATOM     15  C   UNL     1       4.048   9.072   4.746  0.00  0.00    +0.000 C 
ATOM     16  O   UNL     1       5.421   8.862   5.072  0.00  0.00    +0.000 OA
ATOM     17  C   UNL     1       5.650   7.566   5.623  0.00  0.00    +0.000 C 
ATOM     18  C   UNL     1       5.290   6.479   4.618  0.00  0.00    +0.000 C 
ENDBRANCH  12  13
ENDBRANCH  11  12
ENDBRANCH   4  11
TORSDOF 5
