REMARK  Name = 
REMARK  8 active torsions:
REMARK  status: ('A' for Active; 'I' for Inactive)
REMARK    1  A    between atoms: C_1  and  C_2
REMARK    2  A    between atoms: C_2  and  C_3
REMARK    3  A    between atoms: C_2  and  C_4
REMARK    4  A    between atoms: C_2  and  C_5
REMARK    5  A    between atoms: C_8  and  C_9
REMARK    6  A    between atoms: C_9  and  O_10
REMARK    7  A    between atoms: O_10  and  C_11
REMARK    8  A    between atoms: C_14  and  C_15
REMARK                            x       y       z     vdW  Elec       q    Type
REMARK                         _______ _______ _______ _____ _____    ______ ____
ROOT
ATOM      1  O   UNL     1       3.590  -3.949   4.933  0.00  0.00    +0.000 OA
ENDROOT
BRANCH   1   2
ATOM      2  C   UNL     1       3.741  -4.972   5.840  0.00  0.00    +0.000 A 
ATOM      3  C   UNL     1       3.535  -4.654   7.175  0.00  0.00    +0.000 A 
ATOM      4  C   UNL     1       3.638  -5.670   8.124  0.00  0.00    +0.000 A 
ATOM      5  C   UNL     1       3.939  -6.967   7.702  0.00  0.00    +0.000 A 
ATOM      6  C   UNL     1       4.129  -7.184   6.342  0.00  0.00    +0.000 A 
ATOM      7  N   UNL     1       4.048  -6.208   5.405  0.00  0.00    +0.000 NA
BRANCH   5   8
ATOM      8  C   UNL     1       4.025  -8.121   8.616  0.00  0.00    +0.000 C 
ATOM      9  N   UNL     1       4.332  -7.869   9.924  0.00  0.00    +0.000 N 
ATOM     10  O   UNL     1       3.853  -9.265   8.216  0.00  0.00    +0.000 OA
ATOM     11  H   UNL     1       4.695  -6.985  10.246  0.00  0.00    +0.000 HD
ATOM     12  H   UNL     1       4.470  -8.678  10.516  0.00  0.00    +0.000 HD
ENDBRANCH   5   8
ENDBRANCH   1   2
BRANCH   1  13
ATOM     13  C   UNL     1       3.820  -4.366   3.583  0.00  0.00    +0.000 C 
BRANCH  13  17
ATOM     14  C   UNL     1       2.968  -1.085   0.838  0.00  0.00    +0.000 A 
ATOM     15  C   UNL     1       3.410  -0.848   2.150  0.00  0.00    +0.000 A 
ATOM     16  C   UNL     1       3.700  -1.897   3.029  0.00  0.00    +0.000 A 
ATOM     17  C   UNL     1       3.526  -3.224   2.636  0.00  0.00    +0.000 A 
ATOM     18  C   UNL     1       3.105  -3.480   1.328  0.00  0.00    +0.000 A 
ATOM     19  C   UNL     1       2.821  -2.426   0.446  0.00  0.00    +0.000 A 
BRANCH  14  21
ATOM     20  C   UNL     1       3.390   1.367   0.236  0.00  0.00    +0.000 C 
ATOM     21  C   UNL     1       2.598   0.081  -0.098  0.00  0.00    +0.000 C 
ATOM     22  C   UNL     1       1.094   0.375   0.061  0.00  0.00    +0.000 C 
ATOM     23  C   UNL     1       2.876  -0.226  -1.587  0.00  0.00    +0.000 C 
ENDBRANCH  14  21
ENDBRANCH  13  17
ENDBRANCH   1  13
TORSDOF 5
