REMARK  Name = 
REMARK  6 active torsions:
REMARK  status: ('A' for Active; 'I' for Inactive)
REMARK    1  A    between atoms: C_2  and  C_4
REMARK    2  A    between atoms: C_7  and  N_8
REMARK    3  A    between atoms: N_8  and  C_9
REMARK    4  A    between atoms: C_9  and  C_10
REMARK    5  A    between atoms: C_10  and  C_13
REMARK    6  A    between atoms: N_18  and  C_19
REMARK                            x       y       z     vdW  Elec       q    Type
REMARK                         _______ _______ _______ _____ _____    ______ ____
ROOT
ATOM      1  C   UNL     1       5.022  -1.981  -5.654  0.00  0.00    +0.000 C 
ENDROOT
BRANCH   1   2
ATOM      2  C   UNL     1       6.006  -2.554  -6.705  0.00  0.00    +0.000 C 
ATOM      3  F   UNL     1       7.216  -1.940  -6.529  0.00  0.00    +0.000 F 
ATOM      4  F   UNL     1       6.227  -3.867  -6.379  0.00  0.00    +0.000 F 
BRANCH   2   5
ATOM      5  C   UNL     1       5.493  -2.412  -8.121  0.00  0.00    +0.000 A 
ATOM      6  C   UNL     1       5.764  -1.284  -8.890  0.00  0.00    +0.000 A 
ATOM      7  C   UNL     1       5.201  -1.201 -10.155  0.00  0.00    +0.000 A 
ATOM      8  N   UNL     1       4.400  -2.151 -10.695  0.00  0.00    +0.000 NA
ATOM      9  C   UNL     1       4.165  -3.254  -9.962  0.00  0.00    +0.000 A 
ATOM     10  N   UNL     1       3.337  -4.285 -10.445  0.00  0.00    +0.000 N 
ATOM     11  C   UNL     1       4.693  -3.413  -8.681  0.00  0.00    +0.000 A 
ATOM     12  H   UNL     1       3.855  -5.160 -10.424  0.00  0.00    +0.000 HD
BRANCH  10  13
ATOM     13  C   UNL     1       2.462  -4.160 -11.580  0.00  0.00    +0.000 C 
ATOM     14  C   UNL     1       1.923  -5.526 -12.036  0.00  0.00    +0.000 C 
ATOM     15  O   UNL     1       2.426  -5.328 -13.379  0.00  0.00    +0.000 OA
ATOM     16  C   UNL     1       3.111  -4.114 -12.965  0.00  0.00    +0.000 C 
ENDBRANCH  10  13
ENDBRANCH   2   5
ENDBRANCH   1   2
BRANCH   1  17
ATOM     17  N   UNL     1       4.824  -0.524  -5.761  0.00  0.00    +0.000 N 
ATOM     18  H   UNL     1       5.688  -0.005  -5.915  0.00  0.00    +0.000 HD
BRANCH  17  22
ATOM     19  C   UNL     1       2.050   1.588  -3.373  0.00  0.00    +0.000 A 
ATOM     20  C   UNL     1       2.900   2.254  -4.261  0.00  0.00    +0.000 A 
ATOM     21  C   UNL     1       3.833   1.532  -5.019  0.00  0.00    +0.000 A 
ATOM     22  C   UNL     1       3.949   0.139  -4.901  0.00  0.00    +0.000 A 
ATOM     23  C   UNL     1       3.081  -0.511  -4.024  0.00  0.00    +0.000 A 
ATOM     24  C   UNL     1       2.158   0.205  -3.261  0.00  0.00    +0.000 A 
ATOM     25  F   UNL     1       1.371  -0.490  -2.423  0.00  0.00    +0.000 F 
BRANCH  19  27
ATOM     26  N   UNL     1       0.212   1.722  -1.762  0.00  0.00    +0.000 N 
ATOM     27  C   UNL     1       1.058   2.384  -2.603  0.00  0.00    +0.000 C 
ATOM     28  O   UNL     1       0.993   3.601  -2.720  0.00  0.00    +0.000 OA
ATOM     29  H   UNL     1      -0.469   2.267  -1.253  0.00  0.00    +0.000 HD
ATOM     30  H   UNL     1       0.227   0.718  -1.637  0.00  0.00    +0.000 HD
ENDBRANCH  19  27
ENDBRANCH  17  22
ENDBRANCH   1  17
TORSDOF 6
