REMARK  Name = 
REMARK  3 active torsions:
REMARK  status: ('A' for Active; 'I' for Inactive)
REMARK    1  A    between atoms: C_2  and  C_4
REMARK    2  A    between atoms: N_8  and  C_9
REMARK    3  A    between atoms: C_9  and  C_10
REMARK                            x       y       z     vdW  Elec       q    Type
REMARK                         _______ _______ _______ _____ _____    ______ ____
ROOT
ATOM      1  C   UNL     1       3.249   0.676  -1.092  0.00  0.00    +0.000 A 
ATOM      2  C   UNL     1       3.624  -0.420  -1.860  0.00  0.00    +0.000 A 
ATOM      3  C   UNL     1       4.238  -0.202  -3.090  0.00  0.00    +0.000 A 
ATOM      4  C   UNL     1       4.435   1.101  -3.550  0.00  0.00    +0.000 A 
ATOM      5  N   UNL     1       5.003   1.247  -4.812  0.00  0.00    +0.000 N 
ATOM      6  N   UNL     1       4.056   2.172  -2.827  0.00  0.00    +0.000 NA
ATOM      7  C   UNL     1       3.476   1.942  -1.617  0.00  0.00    +0.000 A 
ATOM      8  H   UNL     1       5.950   0.878  -4.821  0.00  0.00    +0.000 HD
ENDROOT
BRANCH   1  10
ATOM      9  N   UNL     1       2.853  -0.604   0.933  0.00  0.00    +0.000 N 
ATOM     10  C   UNL     1       2.607   0.544   0.231  0.00  0.00    +0.000 C 
ATOM     11  O   UNL     1       1.908   1.435   0.697  0.00  0.00    +0.000 OA
ATOM     12  H   UNL     1       2.482  -0.644   1.877  0.00  0.00    +0.000 HD
ATOM     13  H   UNL     1       3.587  -1.253   0.691  0.00  0.00    +0.000 HD
ENDBRANCH   1  10
BRANCH   5  14
ATOM     14  C   UNL     1       4.904   2.555  -5.438  0.00  0.00    +0.000 C 
BRANCH  14  15
ATOM     15  C   UNL     1       5.152   2.371  -6.914  0.00  0.00    +0.000 A 
ATOM     16  C   UNL     1       4.379   1.477  -7.667  0.00  0.00    +0.000 A 
ATOM     17  C   UNL     1       4.631   1.305  -9.022  0.00  0.00    +0.000 A 
ATOM     18  C   UNL     1       5.651   2.049  -9.591  0.00  0.00    +0.000 A 
ATOM     19  N   UNL     1       6.413   2.930  -8.905  0.00  0.00    +0.000 NA
ATOM     20  C   UNL     1       6.144   3.073  -7.586  0.00  0.00    +0.000 A 
ENDBRANCH  14  15
ENDBRANCH   5  14
TORSDOF 3
