REMARK  Name = 
REMARK  6 active torsions:
REMARK  status: ('A' for Active; 'I' for Inactive)
REMARK    1  A    between atoms: C_1  and  C_2
REMARK    2  A    between atoms: C_4  and  C_5
REMARK    3  A    between atoms: C_10  and  O_11
REMARK    4  A    between atoms: O_11  and  C_12
REMARK    5  A    between atoms: C_12  and  C_13
REMARK    6  A    between atoms: C_17  and  C_18
REMARK                            x       y       z     vdW  Elec       q    Type
REMARK                         _______ _______ _______ _____ _____    ______ ____
ROOT
ATOM      1  O   UNL     1       3.115  -1.585  -0.658  0.00  0.00    +0.000 OA
ENDROOT
BRANCH   1   8
ATOM      2  C   UNL     1       0.508  -0.345   0.670  0.00  0.00    +0.000 C 
ATOM      3  C   UNL     1       1.596   0.340  -0.109  0.00  0.00    +0.000 A 
ATOM      4  C   UNL     1       1.436   1.735  -0.275  0.00  0.00    +0.000 A 
ATOM      5  C   UNL     1       2.362   2.525  -0.970  0.00  0.00    +0.000 A 
ATOM      6  C   UNL     1       3.484   1.909  -1.517  0.00  0.00    +0.000 A 
ATOM      7  C   UNL     1       3.658   0.528  -1.365  0.00  0.00    +0.000 A 
ATOM      8  C   UNL     1       2.731  -0.271  -0.669  0.00  0.00    +0.000 A 
BRANCH   5   9
ATOM      9  C   UNL     1       2.078   3.985  -1.074  0.00  0.00    +0.000 C 
ATOM     10  N   UNL     1       2.958   4.783  -1.745  0.00  0.00    +0.000 N 
ATOM     11  O   UNL     1       1.072   4.479  -0.569  0.00  0.00    +0.000 OA
ATOM     12  H   UNL     1       3.802   4.475  -2.195  0.00  0.00    +0.000 HD
ATOM     13  H   UNL     1       2.724   5.768  -1.792  0.00  0.00    +0.000 HD
ENDBRANCH   5   9
ENDBRANCH   1   8
BRANCH   1  14
ATOM     14  C   UNL     1       2.308  -2.547   0.011  0.00  0.00    +0.000 C 
BRANCH  14  15
ATOM     15  C   UNL     1       2.884  -3.943  -0.059  0.00  0.00    +0.000 A 
ATOM     16  C   UNL     1       4.255  -4.160  -0.101  0.00  0.00    +0.000 A 
ATOM     17  C   UNL     1       4.723  -5.468  -0.115  0.00  0.00    +0.000 A 
ATOM     18  C   UNL     1       3.816  -6.522  -0.065  0.00  0.00    +0.000 A 
ATOM     19  C   UNL     1       2.458  -6.238   0.012  0.00  0.00    +0.000 A 
ATOM     20  N   UNL     1       1.991  -4.966   0.017  0.00  0.00    +0.000 NA
BRANCH  19  21
ATOM     21  C   UNL     1       1.441  -7.353   0.121  0.00  0.00    +0.000 C 
ATOM     22  C   UNL     1       0.452  -7.328  -1.055  0.00  0.00    +0.000 C 
ATOM     23  C   UNL     1      -0.667  -8.344  -0.844  0.00  0.00    +0.000 C 
ATOM     24  C   UNL     1      -1.298  -8.163   0.529  0.00  0.00    +0.000 C 
ATOM     25  O   UNL     1      -0.307  -8.303   1.548  0.00  0.00    +0.000 OA
ATOM     26  C   UNL     1       0.695  -7.283   1.459  0.00  0.00    +0.000 C 
ENDBRANCH  19  21
ENDBRANCH  14  15
ENDBRANCH   1  14
TORSDOF 5
