REMARK  Name = 
REMARK  3 active torsions:
REMARK  status: ('A' for Active; 'I' for Inactive)
REMARK    1  A    between atoms: C_2  and  C_4
REMARK    2  A    between atoms: N_8  and  C_9
REMARK    3  A    between atoms: C_9  and  C_10
REMARK                            x       y       z     vdW  Elec       q    Type
REMARK                         _______ _______ _______ _____ _____    ______ ____
ROOT
ATOM      1  C   UNL     1       3.392  -1.068   3.000  0.00  0.00    +0.000 A 
ATOM      2  C   UNL     1       2.735  -2.275   2.763  0.00  0.00    +0.000 A 
ATOM      3  C   UNL     1       3.455  -3.357   2.241  0.00  0.00    +0.000 A 
ATOM      4  C   UNL     1       4.803  -3.197   1.952  0.00  0.00    +0.000 A 
ATOM      5  N   UNL     1       5.565  -4.149   1.274  0.00  0.00    +0.000 N 
ATOM      6  N   UNL     1       5.454  -2.042   2.198  0.00  0.00    +0.000 NA
ATOM      7  C   UNL     1       4.743  -1.006   2.709  0.00  0.00    +0.000 A 
ATOM      8  H   UNL     1       6.500  -3.742   1.241  0.00  0.00    +0.000 HD
ENDROOT
BRANCH   1  10
ATOM      9  N   UNL     1       1.558  -0.000   4.188  0.00  0.00    +0.000 N 
ATOM     10  C   UNL     1       2.714   0.151   3.479  0.00  0.00    +0.000 C 
ATOM     11  O   UNL     1       3.180   1.266   3.266  0.00  0.00    +0.000 OA
ATOM     12  H   UNL     1       1.157   0.845   4.581  0.00  0.00    +0.000 HD
ATOM     13  H   UNL     1       1.266  -0.882   4.584  0.00  0.00    +0.000 HD
ENDBRANCH   1  10
BRANCH   5  14
ATOM     14  C   UNL     1       5.541  -5.597   1.537  0.00  0.00    +0.000 C 
ATOM     15  C   UNL     1       5.652  -6.426   0.266  0.00  0.00    +0.000 C 
ATOM     16  C   UNL     1       4.427  -6.530   1.111  0.00  0.00    +0.000 C 
BRANCH  14  17
ATOM     17  C   UNL     1       6.358  -5.973   2.772  0.00  0.00    +0.000 A 
ATOM     18  C   UNL     1       7.732  -6.256   2.691  0.00  0.00    +0.000 A 
ATOM     19  C   UNL     1       8.518  -6.384   3.841  0.00  0.00    +0.000 A 
ATOM     20  C   UNL     1       7.944  -6.235   5.104  0.00  0.00    +0.000 A 
ATOM     21 CL   UNL     1       8.989  -6.291   6.478  0.00  0.00    +0.000 Cl
ATOM     22  C   UNL     1       6.569  -6.016   5.213  0.00  0.00    +0.000 A 
ATOM     23 CL   UNL     1       5.778  -5.827   6.738  0.00  0.00    +0.000 Cl
ATOM     24  C   UNL     1       5.789  -5.901   4.056  0.00  0.00    +0.000 A 
ENDBRANCH  14  17
ENDBRANCH   5  14
TORSDOF 3
