REMARK  Name = 
REMARK  8 active torsions:
REMARK  status: ('A' for Active; 'I' for Inactive)
REMARK    1  A    between atoms: C_2  and  C_3
REMARK    2  A    between atoms: C_3  and  N_4
REMARK    3  A    between atoms: C_5  and  C_7
REMARK    4  A    between atoms: N_17  and  C_18
REMARK    5  A    between atoms: C_18  and  C_19
REMARK    6  A    between atoms: C_22  and  C_23
REMARK    7  A    between atoms: C_23  and  N_24
REMARK    8  A    between atoms: C_25  and  C_27
REMARK                            x       y       z     vdW  Elec       q    Type
REMARK                         _______ _______ _______ _____ _____    ______ ____
ROOT
ATOM      1  O   UNL     1       5.289  -2.036  -0.576  0.00  0.00    +0.000 OA
ATOM      2  C   UNL     1       5.932  -0.993  -0.485  0.00  0.00    +0.000 C 
ATOM      3  N   UNL     1       5.576   0.052   0.337  0.00  0.00    +0.000 N 
ATOM      4  H   UNL     1       6.080   0.930   0.254  0.00  0.00    +0.000 HD
ENDROOT
BRANCH   2   5
ATOM      5  C   UNL     1       7.165  -0.723  -1.348  0.00  0.00    +0.000 C 
BRANCH   5   6
ATOM      6  N   UNL     1       6.794  -0.139  -2.622  0.00  0.00    +0.000 N 
ATOM      7  C   UNL     1       6.751   1.220  -2.798  0.00  0.00    +0.000 C 
ATOM      8  O   UNL     1       7.036   1.997  -1.889  0.00  0.00    +0.000 OA
ATOM      9  H   UNL     1       6.316  -0.746  -3.284  0.00  0.00    +0.000 HD
BRANCH   7  10
ATOM     10  C   UNL     1       6.408   1.701  -4.140  0.00  0.00    +0.000 A 
ATOM     11  C   UNL     1       6.895   2.923  -4.582  0.00  0.00    +0.000 A 
ATOM     12  S   UNL     1       6.413   3.322  -6.169  0.00  0.00    +0.000 S 
ATOM     13  C   UNL     1       5.497   1.893  -6.305  0.00  0.00    +0.000 A 
ATOM     14  N   UNL     1       4.781   1.625  -7.430  0.00  0.00    +0.000 NA
ATOM     15  C   UNL     1       4.101   0.528  -7.377  0.00  0.00    +0.000 A 
ATOM     16  N   UNL     1       4.079  -0.332  -6.308  0.00  0.00    +0.000 N 
ATOM     17  C   UNL     1       4.832  -0.127  -5.175  0.00  0.00    +0.000 A 
ATOM     18  O   UNL     1       4.873  -0.955  -4.272  0.00  0.00    +0.000 OA
ATOM     19  C   UNL     1       5.584   1.111  -5.166  0.00  0.00    +0.000 A 
ATOM     20  H   UNL     1       3.543  -1.184  -6.340  0.00  0.00    +0.000 HD
ENDBRANCH   7  10
ENDBRANCH   5   6
ENDBRANCH   2   5
BRANCH   3  21
ATOM     21  C   UNL     1       4.421   0.001   1.204  0.00  0.00    +0.000 C 
BRANCH  21  22
ATOM     22  C   UNL     1       4.806   0.224   2.646  0.00  0.00    +0.000 A 
ATOM     23  C   UNL     1       4.898   1.519   3.174  0.00  0.00    +0.000 A 
ATOM     24  C   UNL     1       5.264   1.722   4.510  0.00  0.00    +0.000 A 
ATOM     25  C   UNL     1       5.563   0.635   5.344  0.00  0.00    +0.000 A 
ATOM     26  C   UNL     1       5.463  -0.660   4.818  0.00  0.00    +0.000 A 
ATOM     27  C   UNL     1       5.098  -0.863   3.481  0.00  0.00    +0.000 A 
BRANCH  25  28
ATOM     28  C   UNL     1       5.999   0.853   6.771  0.00  0.00    +0.000 C 
BRANCH  28  29
ATOM     29  N   UNL     1       4.886   0.868   7.694  0.00  0.00    +0.000 N 
ATOM     30  C   UNL     1       5.112   0.981   9.046  0.00  0.00    +0.000 C 
ATOM     31  O   UNL     1       6.243   1.011   9.528  0.00  0.00    +0.000 OA
ATOM     32  H   UNL     1       3.977   1.137   7.332  0.00  0.00    +0.000 HD
BRANCH  30  33
ATOM     33  C   UNL     1       3.880   1.040   9.943  0.00  0.00    +0.000 C 
ATOM     34  C   UNL     1       3.032  -0.211   9.885  0.00  0.00    +0.000 C 
ATOM     35  C   UNL     1       2.029   0.079   8.787  0.00  0.00    +0.000 C 
ATOM     36  O   UNL     1       2.013   1.500   8.575  0.00  0.00    +0.000 OA
ATOM     37  C   UNL     1       2.914   2.117   9.509  0.00  0.00    +0.000 C 
ENDBRANCH  30  33
ENDBRANCH  28  29
ENDBRANCH  25  28
ENDBRANCH  21  22
ENDBRANCH   3  21
TORSDOF 8
