REMARK  Name = 
REMARK  7 active torsions:
REMARK  status: ('A' for Active; 'I' for Inactive)
REMARK    1  A    between atoms: C_2  and  N_3
REMARK    2  A    between atoms: C_4  and  C_21
REMARK    3  A    between atoms: N_5  and  C_6
REMARK    4  A    between atoms: C_6  and  C_7
REMARK    5  A    between atoms: C_10  and  O_11
REMARK    6  A    between atoms: O_11  and  C_12
REMARK    7  A    between atoms: C_12  and  C_13
REMARK                            x       y       z     vdW  Elec       q    Type
REMARK                         _______ _______ _______ _____ _____    ______ ____
ROOT
ATOM      1  N   UNL     1       6.108   2.218   1.685  0.00  0.00    +0.000 NA
ATOM      2  C   UNL     1       6.184   2.447   0.408  0.00  0.00    +0.000 C 
ATOM      3  N   UNL     1       6.324   1.415  -0.486  0.00  0.00    +0.000 N 
ATOM      4  H   UNL     1       6.792   1.621  -1.368  0.00  0.00    +0.000 HD
ENDROOT
BRANCH   2   5
ATOM      5  C   UNL     1       6.079   3.777  -0.235  0.00  0.00    +0.000 A 
ATOM      6  C   UNL     1       5.229   4.769   0.240  0.00  0.00    +0.000 A 
ATOM      7  S   UNL     1       5.336   6.250  -0.599  0.00  0.00    +0.000 S 
ATOM      8  C   UNL     1       6.464   5.604  -1.693  0.00  0.00    +0.000 A 
ATOM      9  N   UNL     1       6.976   6.375  -2.692  0.00  0.00    +0.000 NA
ATOM     10  C   UNL     1       7.817   5.762  -3.455  0.00  0.00    +0.000 A 
ATOM     11  N   UNL     1       8.179   4.448  -3.323  0.00  0.00    +0.000 N 
ATOM     12  C   UNL     1       7.627   3.616  -2.377  0.00  0.00    +0.000 A 
ATOM     13  O   UNL     1       7.838   2.408  -2.396  0.00  0.00    +0.000 OA
ATOM     14  C   UNL     1       6.736   4.274  -1.434  0.00  0.00    +0.000 A 
ATOM     15  H   UNL     1       8.796   4.015  -3.994  0.00  0.00    +0.000 HD
ENDBRANCH   2   5
BRANCH   1  17
ATOM     16  N   UNL     1       5.932   4.010   3.407  0.00  0.00    +0.000 NA
ATOM     17  C   UNL     1       6.024   3.188   2.594  0.00  0.00    +0.000 C 
ENDBRANCH   1  17
BRANCH   3  18
ATOM     18  C   UNL     1       6.536   0.041  -0.077  0.00  0.00    +0.000 C 
BRANCH  18  19
ATOM     19  C   UNL     1       8.000  -0.274   0.112  0.00  0.00    +0.000 A 
ATOM     20  C   UNL     1       8.621  -0.123   1.360  0.00  0.00    +0.000 A 
ATOM     21  C   UNL     1       9.955  -0.504   1.541  0.00  0.00    +0.000 A 
ATOM     22  C   UNL     1      10.681  -1.047   0.482  0.00  0.00    +0.000 A 
ATOM     23  C   UNL     1      10.095  -1.125  -0.782  0.00  0.00    +0.000 A 
ATOM     24  C   UNL     1       8.763  -0.746  -0.964  0.00  0.00    +0.000 A 
BRANCH  22  25
ATOM     25  O   UNL     1      11.948  -1.476   0.779  0.00  0.00    +0.000 OA
BRANCH  25  26
ATOM     26  C   UNL     1      12.440  -2.517  -0.077  0.00  0.00    +0.000 C 
BRANCH  26  27
ATOM     27  C   UNL     1      13.524  -3.339   0.583  0.00  0.00    +0.000 A 
ATOM     28  C   UNL     1      13.546  -3.532   1.963  0.00  0.00    +0.000 A 
ATOM     29  C   UNL     1      14.508  -4.374   2.512  0.00  0.00    +0.000 A 
ATOM     30  C   UNL     1      15.412  -5.014   1.673  0.00  0.00    +0.000 A 
ATOM     31  C   UNL     1      15.318  -4.781   0.313  0.00  0.00    +0.000 A 
ATOM     32  N   UNL     1      14.398  -3.967  -0.249  0.00  0.00    +0.000 NA
ENDBRANCH  26  27
ENDBRANCH  25  26
ENDBRANCH  22  25
ENDBRANCH  18  19
ENDBRANCH   3  18
TORSDOF 7
