REMARK  Name = 
REMARK  8 active torsions:
REMARK  status: ('A' for Active; 'I' for Inactive)
REMARK    1  A    between atoms: C_1  and  C_2
REMARK    2  A    between atoms: C_5  and  C_6
REMARK    3  A    between atoms: C_6  and  N_7
REMARK    4  A    between atoms: N_7  and  C_8
REMARK    5  A    between atoms: C_8  and  C_9
REMARK    6  A    between atoms: C_12  and  C_13
REMARK    7  A    between atoms: C_13  and  N_14
REMARK    8  A    between atoms: C_15  and  C_17
REMARK                            x       y       z     vdW  Elec       q    Type
REMARK                         _______ _______ _______ _____ _____    ______ ____
ROOT
ATOM      1  C   UNL     1      -5.614   3.000  -0.045  0.00  0.00    +0.000 A 
ATOM      2  C   UNL     1      -6.919   3.287   0.385  0.00  0.00    +0.000 A 
ATOM      3  C   UNL     1      -7.386   4.605   0.453  0.00  0.00    +0.000 A 
ATOM      4  C   UNL     1      -6.553   5.671   0.092  0.00  0.00    +0.000 A 
ATOM      5  C   UNL     1      -5.234   5.390  -0.294  0.00  0.00    +0.000 A 
ATOM      6  C   UNL     1      -4.772   4.070  -0.373  0.00  0.00    +0.000 A 
ENDROOT
BRANCH   1   7
ATOM      7  C   UNL     1      -5.148   1.561  -0.142  0.00  0.00    +0.000 C 
BRANCH   7   8
ATOM      8  N   UNL     1      -5.976   0.819  -1.091  0.00  0.00    +0.000 NA
ATOM      9  H   UNL     1      -6.945   0.841  -0.775  0.00  0.00    +0.000 HD
BRANCH   8  10
ATOM     10  C   UNL     1      -5.589  -0.592  -1.192  0.00  0.00    +0.000 C 
BRANCH  10  15
ATOM     11  C   UNL     1      -9.103  -3.425  -4.792  0.00  0.00    +0.000 C 
ATOM     12  C   UNL     1      -8.172  -2.669  -3.899  0.00  0.00    +0.000 A 
ATOM     13  C   UNL     1      -7.413  -1.601  -4.372  0.00  0.00    +0.000 A 
ATOM     14  C   UNL     1      -6.553  -0.931  -3.505  0.00  0.00    +0.000 A 
ATOM     15  C   UNL     1      -6.480  -1.337  -2.172  0.00  0.00    +0.000 A 
ATOM     16  N   UNL     1      -7.210  -2.374  -1.691  0.00  0.00    +0.000 NA
ATOM     17  C   UNL     1      -8.026  -3.014  -2.561  0.00  0.00    +0.000 A 
ENDBRANCH  10  15
ENDBRANCH   8  10
ENDBRANCH   7   8
ENDBRANCH   1   7
BRANCH   4  18
ATOM     18  C   UNL     1      -7.040   7.099   0.130  0.00  0.00    +0.000 C 
BRANCH  18  19
ATOM     19  N   UNL     1      -6.798   7.709   1.411  0.00  0.00    +0.000 N 
ATOM     20  C   UNL     1      -7.172   8.999   1.681  0.00  0.00    +0.000 C 
ATOM     21  O   UNL     1      -7.752   9.706   0.868  0.00  0.00    +0.000 OA
ATOM     22  H   UNL     1      -6.067   7.283   1.975  0.00  0.00    +0.000 HD
BRANCH  20  23
ATOM     23  C   UNL     1      -6.893   9.461   3.049  0.00  0.00    +0.000 A 
ATOM     24  C   UNL     1      -7.677  10.450   3.624  0.00  0.00    +0.000 A 
ATOM     25  S   UNL     1      -7.231  10.825   5.229  0.00  0.00    +0.000 S 
ATOM     26  C   UNL     1      -5.944   9.710   5.191  0.00  0.00    +0.000 A 
ATOM     27  N   UNL     1      -5.117   9.559   6.260  0.00  0.00    +0.000 NA
ATOM     28  C   UNL     1      -4.162   8.705   6.080  0.00  0.00    +0.000 A 
ATOM     29  N   UNL     1      -3.968   7.984   4.931  0.00  0.00    +0.000 N 
ATOM     30  C   UNL     1      -4.807   8.067   3.849  0.00  0.00    +0.000 A 
ATOM     31  O   UNL     1      -4.651   7.345   2.867  0.00  0.00    +0.000 OA
ATOM     32  C   UNL     1      -5.876   9.039   3.986  0.00  0.00    +0.000 A 
ATOM     33  H   UNL     1      -3.217   7.313   4.862  0.00  0.00    +0.000 HD
ENDBRANCH  20  23
ENDBRANCH  18  19
ENDBRANCH   4  18
TORSDOF 7
