REMARK  Name = 
REMARK  9 active torsions:
REMARK  status: ('A' for Active; 'I' for Inactive)
REMARK    1  A    between atoms: C_1  and  O_2
REMARK    2  A    between atoms: O_2  and  C_3
REMARK    3  A    between atoms: C_6  and  N_7
REMARK    4  A    between atoms: N_7  and  C_8
REMARK    5  A    between atoms: C_8  and  C_9
REMARK    6  A    between atoms: C_9  and  C_10
REMARK    7  A    between atoms: C_9  and  C_11
REMARK    8  A    between atoms: C_15  and  O_16
REMARK    9  A    between atoms: O_16  and  C_17
REMARK                            x       y       z     vdW  Elec       q    Type
REMARK                         _______ _______ _______ _____ _____    ______ ____
ROOT
ATOM      1  C   UNL     1       6.076  -6.577   2.162  0.00  0.00    +0.000 C 
ATOM      2  C   UNL     1       5.166  -5.548   1.475  0.00  0.00    +0.000 C 
ENDROOT
BRANCH   1   3
ATOM      3  C   UNL     1       5.726  -8.028   1.858  0.00  0.00    +0.000 A 
ATOM      4  C   UNL     1       6.736  -8.999   1.842  0.00  0.00    +0.000 A 
ATOM      5  C   UNL     1       6.424 -10.351   1.669  0.00  0.00    +0.000 A 
ATOM      6  C   UNL     1       5.096 -10.756   1.516  0.00  0.00    +0.000 A 
ATOM      7  C   UNL     1       4.084  -9.801   1.525  0.00  0.00    +0.000 A 
ATOM      8  C   UNL     1       4.400  -8.450   1.684  0.00  0.00    +0.000 A 
BRANCH   7   9
ATOM      9  O   UNL     1       2.742 -10.063   1.452  0.00  0.00    +0.000 OA
BRANCH   9  10
ATOM     10  C   UNL     1       2.293 -11.301   0.867  0.00  0.00    +0.000 C 
ATOM     11  C   UNL     1       2.455 -11.485  -0.658  0.00  0.00    +0.000 C 
ATOM     12  N   UNL     1       1.075 -12.017  -0.727  0.00  0.00    +0.000 NA
ATOM     13  C   UNL     1       0.779 -11.340   0.553  0.00  0.00    +0.000 C 
ATOM     14  H   UNL     1       1.025 -13.034  -0.665  0.00  0.00    +0.000 HD
ENDBRANCH   9  10
ENDBRANCH   7   9
ENDBRANCH   1   3
BRANCH   1  15
ATOM     15  C   UNL     1       6.154  -6.332   3.691  0.00  0.00    +0.000 C 
BRANCH  15  16
ATOM     16  N   UNL     1       4.855  -6.516   4.335  0.00  0.00    +0.000 N 
ATOM     17  H   UNL     1       4.353  -7.338   4.002  0.00  0.00    +0.000 HD
BRANCH  16  21
ATOM     18  C   UNL     1       4.174  -5.963   8.464  0.00  0.00    +0.000 A 
ATOM     19  C   UNL     1       5.448  -5.747   7.945  0.00  0.00    +0.000 A 
ATOM     20  C   UNL     1       5.700  -5.938   6.579  0.00  0.00    +0.000 A 
ATOM     21  C   UNL     1       4.698  -6.383   5.713  0.00  0.00    +0.000 A 
ATOM     22  C   UNL     1       3.423  -6.595   6.249  0.00  0.00    +0.000 A 
ATOM     23  C   UNL     1       3.162  -6.393   7.609  0.00  0.00    +0.000 A 
BRANCH  18  25
ATOM     24  C   UNL     1       4.790  -5.331  10.666  0.00  0.00    +0.000 C 
ATOM     25  O   UNL     1       3.791  -5.787   9.764  0.00  0.00    +0.000 OA
ENDBRANCH  18  25
ENDBRANCH  16  21
ENDBRANCH  15  16
ENDBRANCH   1  15
TORSDOF 7
