REMARK  Name = 
REMARK  5 active torsions:
REMARK  status: ('A' for Active; 'I' for Inactive)
REMARK    1  A    between atoms: C_1  and  C_2
REMARK    2  A    between atoms: C_5  and  C_6
REMARK    3  A    between atoms: C_6  and  C_7
REMARK    4  A    between atoms: C_6  and  N_8
REMARK    5  A    between atoms: C_12  and  C_13
REMARK                            x       y       z     vdW  Elec       q    Type
REMARK                         _______ _______ _______ _____ _____    ______ ____
ROOT
ATOM      1  N   UNL     1      -3.878   1.404   0.144  0.00  0.00    +0.000 N 
ATOM      2  C   UNL     1      -5.137   1.634  -0.427  0.00  0.00    +0.000 A 
ATOM      3  C   UNL     1      -5.697   2.902  -0.285  0.00  0.00    +0.000 A 
ATOM      4  C   UNL     1      -6.950   3.174  -0.838  0.00  0.00    +0.000 A 
ATOM      5  C   UNL     1      -7.630   2.174  -1.531  0.00  0.00    +0.000 A 
ATOM      6  C   UNL     1      -7.010   0.939  -1.612  0.00  0.00    +0.000 A 
ATOM      7  N   UNL     1      -5.796   0.651  -1.073  0.00  0.00    +0.000 NA
ATOM      8  H   UNL     1      -3.229   2.099  -0.216  0.00  0.00    +0.000 HD
ENDROOT
BRANCH   5   9
ATOM      9  C   UNL     1      -8.955   2.477  -2.127  0.00  0.00    +0.000 C 
ATOM     10  N   UNL     1      -9.601   1.508  -2.843  0.00  0.00    +0.000 N 
ATOM     11  O   UNL     1      -9.470   3.581  -1.994  0.00  0.00    +0.000 OA
ATOM     12  H   UNL     1      -9.261   0.579  -3.035  0.00  0.00    +0.000 HD
ATOM     13  H   UNL     1     -10.497   1.766  -3.240  0.00  0.00    +0.000 HD
ENDBRANCH   5   9
BRANCH   1  14
ATOM     14  C   UNL     1      -3.332   0.049   0.014  0.00  0.00    +0.000 C 
ATOM     15  C   UNL     1      -3.819  -0.826   1.172  0.00  0.00    +0.000 C 
BRANCH  14  20
ATOM     16  C   UNL     1       2.506   0.399  -0.108  0.00  0.00    +0.000 C 
ATOM     17  C   UNL     1       1.011   0.294  -0.074  0.00  0.00    +0.000 A 
ATOM     18  C   UNL     1       0.300  -0.211  -1.167  0.00  0.00    +0.000 A 
ATOM     19  C   UNL     1      -1.095  -0.288  -1.130  0.00  0.00    +0.000 A 
ATOM     20  C   UNL     1      -1.809   0.135   0.002  0.00  0.00    +0.000 A 
ATOM     21  C   UNL     1      -1.089   0.641   1.095  0.00  0.00    +0.000 A 
ATOM     22  C   UNL     1       0.306   0.717   1.058  0.00  0.00    +0.000 A 
ENDBRANCH  14  20
ENDBRANCH   1  14
TORSDOF 3
