REMARK  Name = 
REMARK  5 active torsions:
REMARK  status: ('A' for Active; 'I' for Inactive)
REMARK    1  A    between atoms: C_2  and  C_4
REMARK    2  A    between atoms: C_7  and  N_8
REMARK    3  A    between atoms: N_8  and  C_9
REMARK    4  A    between atoms: C_9  and  C_10
REMARK    5  A    between atoms: C_14  and  C_15
REMARK                            x       y       z     vdW  Elec       q    Type
REMARK                         _______ _______ _______ _____ _____    ______ ____
ROOT
ATOM      1  C   UNL     1       5.066   2.497   5.541  0.00  0.00    +0.000 C 
ENDROOT
BRANCH   1   2
ATOM      2  C   UNL     1       6.035   3.278   6.388  0.00  0.00    +0.000 A 
ATOM      3  C   UNL     1       5.643   4.456   7.020  0.00  0.00    +0.000 A 
ATOM      4  C   UNL     1       6.567   5.117   7.809  0.00  0.00    +0.000 A 
ATOM      5  N   UNL     1       7.834   4.691   8.001  0.00  0.00    +0.000 NA
ATOM      6  C   UNL     1       8.226   3.549   7.381  0.00  0.00    +0.000 A 
ATOM      7  C   UNL     1       7.344   2.817   6.586  0.00  0.00    +0.000 A 
BRANCH   6   8
ATOM      8  C   UNL     1       9.624   3.150   7.600  0.00  0.00    +0.000 A 
ATOM      9  C   UNL     1      10.308   3.500   8.772  0.00  0.00    +0.000 A 
ATOM     10  N   UNL     1      11.595   3.165   9.057  0.00  0.00    +0.000 NA
ATOM     11  C   UNL     1      12.253   2.452   8.117  0.00  0.00    +0.000 A 
ATOM     12  C   UNL     1      11.679   2.067   6.920  0.00  0.00    +0.000 A 
ATOM     13  F   UNL     1      12.382   1.368   6.020  0.00  0.00    +0.000 F 
ATOM     14  C   UNL     1      10.363   2.416   6.657  0.00  0.00    +0.000 A 
ENDBRANCH   6   8
ENDBRANCH   1   2
BRANCH   1  15
ATOM     15  N   UNL     1       5.610   2.299   4.207  0.00  0.00    +0.000 N 
ATOM     16  H   UNL     1       6.097   3.107   3.827  0.00  0.00    +0.000 HD
BRANCH  15  20
ATOM     17  C   UNL     1       3.595   0.014   1.288  0.00  0.00    +0.000 A 
ATOM     18  C   UNL     1       2.999   0.218   2.534  0.00  0.00    +0.000 A 
ATOM     19  C   UNL     1       3.646   0.992   3.501  0.00  0.00    +0.000 A 
ATOM     20  C   UNL     1       4.879   1.605   3.243  0.00  0.00    +0.000 A 
ATOM     21  C   UNL     1       5.465   1.386   1.987  0.00  0.00    +0.000 A 
ATOM     22  C   UNL     1       4.834   0.595   1.018  0.00  0.00    +0.000 A 
BRANCH  17  24
ATOM     23  N   UNL     1       1.608  -0.985   0.290  0.00  0.00    +0.000 N 
ATOM     24  C   UNL     1       2.969  -0.862   0.262  0.00  0.00    +0.000 C 
ATOM     25  O   UNL     1       3.638  -1.435  -0.587  0.00  0.00    +0.000 OA
ATOM     26  H   UNL     1       1.190  -1.517  -0.459  0.00  0.00    +0.000 HD
ATOM     27  H   UNL     1       1.014  -0.351   0.807  0.00  0.00    +0.000 HD
ENDBRANCH  17  24
ENDBRANCH  15  20
ENDBRANCH   1  15
TORSDOF 5
