REMARK  Name = 
REMARK  6 active torsions:
REMARK  status: ('A' for Active; 'I' for Inactive)
REMARK    1  A    between atoms: C_2  and  C_3
REMARK    2  A    between atoms: C_7  and  C_8
REMARK    3  A    between atoms: C_12  and  C_13
REMARK    4  A    between atoms: C_13  and  N_14
REMARK    5  A    between atoms: N_14  and  C_15
REMARK    6  A    between atoms: C_18  and  C_19
REMARK                            x       y       z     vdW  Elec       q    Type
REMARK                         _______ _______ _______ _____ _____    ______ ____
ROOT
ATOM      1  C   UNL     1       2.337   2.433  -0.188  0.00  0.00    +0.000 A 
ATOM      2  C   UNL     1       3.341   2.709  -1.127  0.00  0.00    +0.000 A 
ATOM      3  C   UNL     1       3.954   3.964  -1.188  0.00  0.00    +0.000 A 
ATOM      4  C   UNL     1       3.574   4.976  -0.307  0.00  0.00    +0.000 A 
ATOM      5  C   UNL     1       2.581   4.754   0.653  0.00  0.00    +0.000 A 
ATOM      6  C   UNL     1       1.994   3.472   0.693  0.00  0.00    +0.000 A 
ENDROOT
BRANCH   1  11
ATOM      7  C   UNL     1       0.702  -0.838  -1.253  0.00  0.00    +0.000 A 
ATOM      8  C   UNL     1       0.246  -1.339  -0.034  0.00  0.00    +0.000 A 
ATOM      9  C   UNL     1       0.473  -0.620   1.135  0.00  0.00    +0.000 A 
ATOM     10  C   UNL     1       1.165   0.594   1.085  0.00  0.00    +0.000 A 
ATOM     11  C   UNL     1       1.637   1.128  -0.131  0.00  0.00    +0.000 A 
ATOM     12  C   UNL     1       1.384   0.386  -1.298  0.00  0.00    +0.000 A 
BRANCH   7  14
ATOM     13  N   UNL     1       0.284  -2.153  -3.449  0.00  0.00    +0.000 NA
ATOM     14  C   UNL     1       0.468  -1.567  -2.465  0.00  0.00    +0.000 C 
ENDBRANCH   7  14
ENDBRANCH   1  11
BRANCH   5  15
ATOM     15  C   UNL     1       2.128   5.813   1.647  0.00  0.00    +0.000 C 
ATOM     16  C   UNL     1       0.619   6.052   1.661  0.00  0.00    +0.000 C 
ATOM     17  C   UNL     1       1.536   7.134   1.203  0.00  0.00    +0.000 C 
BRANCH  15  18
ATOM     18  N   UNL     1       2.832   5.741   2.941  0.00  0.00    +0.000 N 
ATOM     19  H   UNL     1       2.822   4.827   3.399  0.00  0.00    +0.000 HD
BRANCH  18  20
ATOM     20  C   UNL     1       4.047   6.413   3.193  0.00  0.00    +0.000 A 
ATOM     21  C   UNL     1       4.620   7.363   2.371  0.00  0.00    +0.000 A 
ATOM     22  N   UNL     1       5.742   8.055   2.668  0.00  0.00    +0.000 NA
ATOM     23  C   UNL     1       6.296   7.799   3.868  0.00  0.00    +0.000 A 
ATOM     24  N   UNL     1       5.830   6.930   4.774  0.00  0.00    +0.000 NA
ATOM     25  C   UNL     1       4.711   6.278   4.406  0.00  0.00    +0.000 A 
ATOM     26  F   UNL     1       4.202   5.421   5.308  0.00  0.00    +0.000 F 
BRANCH  23  27
ATOM     27  C   UNL     1       7.493   8.525   4.203  0.00  0.00    +0.000 C 
ATOM     28  N   UNL     1       8.462   9.112   4.476  0.00  0.00    +0.000 NA
ENDBRANCH  23  27
ENDBRANCH  18  20
ENDBRANCH  15  18
ENDBRANCH   5  15
TORSDOF 6
