REMARK  Name = 
REMARK  4 active torsions:
REMARK  status: ('A' for Active; 'I' for Inactive)
REMARK    1  A    between atoms: C_2  and  C_3
REMARK    2  A    between atoms: C_6  and  N_7
REMARK    3  A    between atoms: N_7  and  C_8
REMARK    4  A    between atoms: C_8  and  C_9
REMARK                            x       y       z     vdW  Elec       q    Type
REMARK                         _______ _______ _______ _____ _____    ______ ____
ROOT
ATOM      1  N   UNL     1       7.382  -0.191  -0.395  0.00  0.00    +0.000 N 
ATOM      2  H   UNL     1       7.243   0.513  -1.118  0.00  0.00    +0.000 HD
ENDROOT
BRANCH   1   6
ATOM      3  C   UNL     1       5.697   1.387   3.008  0.00  0.00    +0.000 A 
ATOM      4  C   UNL     1       5.683   2.047   1.794  0.00  0.00    +0.000 A 
ATOM      5  N   UNL     1       6.271   1.541   0.677  0.00  0.00    +0.000 NA
ATOM      6  C   UNL     1       6.890   0.345   0.795  0.00  0.00    +0.000 A 
ATOM      7  C   UNL     1       6.910  -0.303   2.030  0.00  0.00    +0.000 A 
ATOM      8  N   UNL     1       6.325   0.195   3.159  0.00  0.00    +0.000 NA
BRANCH   3  10
ATOM      9  N   UNL     1       4.437   2.396   5.038  0.00  0.00    +0.000 NA
ATOM     10  C   UNL     1       5.009   1.926   4.148  0.00  0.00    +0.000 C 
ENDBRANCH   3  10
ENDBRANCH   1   6
BRANCH   1  11
ATOM     11  C   UNL     1       8.628  -0.972  -0.524  0.00  0.00    +0.000 C 
ATOM     12  C   UNL     1       8.535  -2.149  -1.499  0.00  0.00    +0.000 C 
ATOM     13  C   UNL     1       8.755  -2.409  -0.046  0.00  0.00    +0.000 C 
BRANCH  11  14
ATOM     14  C   UNL     1       9.942  -0.170  -0.592  0.00  0.00    +0.000 A 
ATOM     15  C   UNL     1      10.666   0.093   0.574  0.00  0.00    +0.000 A 
ATOM     16  C   UNL     1      11.995   0.500   0.483  0.00  0.00    +0.000 A 
ATOM     17  C   UNL     1      12.567   0.676  -0.769  0.00  0.00    +0.000 A 
ATOM     18  C   UNL     1      11.765   0.493  -1.879  0.00  0.00    +0.000 A 
ATOM     19  N   UNL     1      10.478   0.090  -1.817  0.00  0.00    +0.000 NA
ENDBRANCH  11  14
ENDBRANCH   1  11
TORSDOF 4
