REMARK  Name = 
REMARK  9 active torsions:
REMARK  status: ('A' for Active; 'I' for Inactive)
REMARK    1  A    between atoms: N_1  and  C_2
REMARK    2  A    between atoms: C_2  and  C_3
REMARK    3  A    between atoms: C_3  and  N_4
REMARK    4  A    between atoms: C_7  and  C_8
REMARK    5  A    between atoms: N_10  and  C_11
REMARK    6  A    between atoms: C_11  and  C_12
REMARK    7  A    between atoms: C_15  and  C_16
REMARK    8  A    between atoms: C_16  and  N_17
REMARK    9  A    between atoms: C_18  and  C_20
REMARK                            x       y       z     vdW  Elec       q    Type
REMARK                         _______ _______ _______ _____ _____    ______ ____
ROOT
ATOM      1  C   UNL     1       6.838  -2.598  -6.197  0.00  0.00    +0.000 A 
ATOM      2  C   UNL     1       7.933  -3.297  -5.677  0.00  0.00    +0.000 A 
ATOM      3  C   UNL     1       9.075  -3.516  -6.453  0.00  0.00    +0.000 A 
ATOM      4  C   UNL     1       9.152  -3.020  -7.760  0.00  0.00    +0.000 A 
ATOM      5  C   UNL     1       8.051  -2.329  -8.285  0.00  0.00    +0.000 A 
ATOM      6  C   UNL     1       6.909  -2.111  -7.511  0.00  0.00    +0.000 A 
ENDROOT
BRANCH   1   7
ATOM      7  C   UNL     1       5.633  -2.314  -5.343  0.00  0.00    +0.000 C 
BRANCH   7  10
ATOM      8  C   UNL     1       4.787  -0.520  -3.893  0.00  0.00    +0.000 C 
ATOM      9  O   UNL     1       3.712  -1.093  -3.733  0.00  0.00    +0.000 OA
ATOM     10  N   UNL     1       5.813  -1.081  -4.614  0.00  0.00    +0.000 N 
ATOM     11  H   UNL     1       6.715  -0.628  -4.666  0.00  0.00    +0.000 HD
BRANCH   8  15
ATOM     12  N   UNL     1       4.089   2.993  -3.557  0.00  0.00    +0.000 NA
ATOM     13  C   UNL     1       5.553   3.114  -3.661  0.00  0.00    +0.000 C 
ATOM     14  C   UNL     1       6.027   1.725  -4.041  0.00  0.00    +0.000 C 
ATOM     15  C   UNL     1       5.121   0.809  -3.230  0.00  0.00    +0.000 C 
ATOM     16  C   UNL     1       3.864   1.651  -2.974  0.00  0.00    +0.000 C 
BRANCH  12  17
ATOM     17  C   UNL     1       3.468   3.166  -4.888  0.00  0.00    +0.000 C 
BRANCH  17  18
ATOM     18  C   UNL     1       1.924   3.135  -4.898  0.00  0.00    +0.000 C 
BRANCH  18  19
ATOM     19  N   UNL     1       1.402   3.377  -6.248  0.00  0.00    +0.000 NA
ATOM     20  H   UNL     1       0.387   3.280  -6.228  0.00  0.00    +0.000 HD
ATOM     21  H   UNL     1       1.742   2.650  -6.876  0.00  0.00    +0.000 HD
ENDBRANCH  18  19
ENDBRANCH  17  18
ENDBRANCH  12  17
ENDBRANCH   8  15
ENDBRANCH   7  10
ENDBRANCH   1   7
BRANCH   4  22
ATOM     22  C   UNL     1      10.377  -3.254  -8.605  0.00  0.00    +0.000 C 
BRANCH  22  23
ATOM     23  N   UNL     1      10.270  -4.481  -9.354  0.00  0.00    +0.000 N 
ATOM     24  C   UNL     1      11.311  -4.931 -10.125  0.00  0.00    +0.000 C 
ATOM     25  O   UNL     1      12.385  -4.335 -10.178  0.00  0.00    +0.000 OA
ATOM     26  H   UNL     1       9.338  -4.855  -9.501  0.00  0.00    +0.000 HD
BRANCH  24  27
ATOM     27  C   UNL     1      11.104  -6.198 -10.839  0.00  0.00    +0.000 A 
ATOM     28  C   UNL     1      12.203  -6.949 -11.235  0.00  0.00    +0.000 A 
ATOM     29  S   UNL     1      11.789  -8.418 -11.996  0.00  0.00    +0.000 S 
ATOM     30  C   UNL     1      10.127  -8.077 -11.871  0.00  0.00    +0.000 A 
ATOM     31  N   UNL     1       9.198  -8.941 -12.361  0.00  0.00    +0.000 NA
ATOM     32  C   UNL     1       7.977  -8.543 -12.230  0.00  0.00    +0.000 A 
ATOM     33  N   UNL     1       7.600  -7.360 -11.648  0.00  0.00    +0.000 N 
ATOM     34  C   UNL     1       8.501  -6.469 -11.116  0.00  0.00    +0.000 A 
ATOM     35  O   UNL     1       8.129  -5.436 -10.569  0.00  0.00    +0.000 OA
ATOM     36  C   UNL     1       9.890  -6.866 -11.246  0.00  0.00    +0.000 A 
ATOM     37  H   UNL     1       6.626  -7.109 -11.573  0.00  0.00    +0.000 HD
ENDBRANCH  24  27
ENDBRANCH  22  23
ENDBRANCH   4  22
TORSDOF 9
