REMARK  Name = 
REMARK  8 active torsions:
REMARK  status: ('A' for Active; 'I' for Inactive)
REMARK    1  A    between atoms: C_1  and  O_2
REMARK    2  A    between atoms: O_2  and  C_3
REMARK    3  A    between atoms: C_5  and  C_6
REMARK    4  A    between atoms: C_6  and  N_7
REMARK    5  A    between atoms: C_8  and  C_10
REMARK    6  A    between atoms: C_22  and  C_23
REMARK    7  A    between atoms: C_23  and  N_24
REMARK    8  A    between atoms: C_25  and  C_27
REMARK                            x       y       z     vdW  Elec       q    Type
REMARK                         _______ _______ _______ _____ _____    ______ ____
ROOT
ATOM      1  C   UNL     1       2.943   0.589  -0.916  0.00  0.00    +0.000 A 
ATOM      2  C   UNL     1       2.574   1.935  -1.045  0.00  0.00    +0.000 A 
ATOM      3  C   UNL     1       3.250   2.797  -1.919  0.00  0.00    +0.000 A 
ATOM      4  C   UNL     1       4.307   2.293  -2.681  0.00  0.00    +0.000 A 
ATOM      5  C   UNL     1       4.691   0.956  -2.552  0.00  0.00    +0.000 A 
ATOM      6  C   UNL     1       4.026   0.092  -1.664  0.00  0.00    +0.000 A 
ENDROOT
BRANCH   1   8
ATOM      7  C   UNL     1       1.003   0.078   0.354  0.00  0.00    +0.000 C 
ATOM      8  O   UNL     1       2.315  -0.289  -0.070  0.00  0.00    +0.000 OA
ENDBRANCH   1   8
BRANCH   3   9
ATOM      9  C   UNL     1       2.796   4.226  -2.053  0.00  0.00    +0.000 C 
BRANCH   9  10
ATOM     10  N   UNL     1       1.813   4.368  -3.098  0.00  0.00    +0.000 N 
ATOM     11  C   UNL     1       0.464   4.398  -2.855  0.00  0.00    +0.000 C 
ATOM     12  O   UNL     1      -0.004   4.296  -1.724  0.00  0.00    +0.000 OA
ATOM     13  H   UNL     1       2.143   4.231  -4.046  0.00  0.00    +0.000 HD
BRANCH  11  14
ATOM     14  C   UNL     1      -0.400   4.634  -4.021  0.00  0.00    +0.000 A 
ATOM     15  C   UNL     1      -1.667   5.173  -3.839  0.00  0.00    +0.000 A 
ATOM     16  S   UNL     1      -2.520   5.426  -5.294  0.00  0.00    +0.000 S 
ATOM     17  C   UNL     1      -1.245   4.783  -6.218  0.00  0.00    +0.000 A 
ATOM     18  N   UNL     1      -1.341   4.687  -7.571  0.00  0.00    +0.000 NA
ATOM     19  C   UNL     1      -0.316   4.151  -8.142  0.00  0.00    +0.000 A 
ATOM     20  N   UNL     1       0.804   3.713  -7.484  0.00  0.00    +0.000 N 
ATOM     21  C   UNL     1       0.972   3.848  -6.129  0.00  0.00    +0.000 A 
ATOM     22  O   UNL     1       2.032   3.544  -5.584  0.00  0.00    +0.000 OA
ATOM     23  C   UNL     1      -0.172   4.406  -5.429  0.00  0.00    +0.000 A 
ATOM     24  H   UNL     1       1.583   3.322  -7.995  0.00  0.00    +0.000 HD
ENDBRANCH  11  14
ENDBRANCH   9  10
ENDBRANCH   3   9
BRANCH   6  25
ATOM     25  C   UNL     1       4.469  -1.352  -1.593  0.00  0.00    +0.000 C 
BRANCH  25  26
ATOM     26  N   UNL     1       3.735  -2.169  -2.539  0.00  0.00    +0.000 N 
ATOM     27  C   UNL     1       4.289  -3.263  -3.157  0.00  0.00    +0.000 C 
ATOM     28  O   UNL     1       5.460  -3.596  -3.009  0.00  0.00    +0.000 OA
ATOM     29  H   UNL     1       2.738  -2.029  -2.563  0.00  0.00    +0.000 HD
BRANCH  27  30
ATOM     30  C   UNL     1       3.398  -4.003  -4.004  0.00  0.00    +0.000 A 
ATOM     31  C   UNL     1       2.084  -3.841  -4.380  0.00  0.00    +0.000 A 
ATOM     32  N   UNL     1       1.714  -4.840  -5.236  0.00  0.00    +0.000 NA
ATOM     33  N   UNL     1       2.762  -5.630  -5.416  0.00  0.00    +0.000 NA
ATOM     34  N   UNL     1       3.771  -5.132  -4.683  0.00  0.00    +0.000 N 
ATOM     35  H   UNL     1       4.671  -5.597  -4.695  0.00  0.00    +0.000 HD
ENDBRANCH  27  30
ENDBRANCH  25  26
ENDBRANCH   6  25
TORSDOF 7
