REMARK  Name = 
REMARK  7 active torsions:
REMARK  status: ('A' for Active; 'I' for Inactive)
REMARK    1  A    between atoms: C_1  and  O_2
REMARK    2  A    between atoms: O_2  and  C_3
REMARK    3  A    between atoms: C_5  and  C_6
REMARK    4  A    between atoms: C_6  and  N_7
REMARK    5  A    between atoms: C_8  and  C_10
REMARK    6  A    between atoms: C_22  and  C_23
REMARK    7  A    between atoms: C_23  and  N_24
REMARK                            x       y       z     vdW  Elec       q    Type
REMARK                         _______ _______ _______ _____ _____    ______ ____
ROOT
ATOM      1  C   UNL     1       3.417  -3.935  -2.901  0.00  0.00    +0.000 C 
ENDROOT
BRANCH   1   4
ATOM      2  C   UNL     1       3.366  -1.149  -0.282  0.00  0.00    +0.000 A 
ATOM      3  C   UNL     1       3.081  -1.892  -1.434  0.00  0.00    +0.000 A 
ATOM      4  C   UNL     1       3.856  -3.016  -1.780  0.00  0.00    +0.000 A 
ATOM      5  C   UNL     1       4.974  -3.322  -0.980  0.00  0.00    +0.000 A 
ATOM      6  C   UNL     1       5.292  -2.550   0.160  0.00  0.00    +0.000 A 
ATOM      7  C   UNL     1       4.477  -1.456   0.526  0.00  0.00    +0.000 A 
BRANCH   2   9
ATOM      8  C   UNL     1       1.299  -0.045   0.198  0.00  0.00    +0.000 C 
ATOM      9  O   UNL     1       2.706   0.003   0.027  0.00  0.00    +0.000 OA
ENDBRANCH   2   9
BRANCH   7  10
ATOM     10  C   UNL     1       4.734  -0.664   1.804  0.00  0.00    +0.000 C 
BRANCH  10  11
ATOM     11  N   UNL     1       5.577   0.539   1.698  0.00  0.00    +0.000 NA
ATOM     12  C   UNL     1       5.664   1.251   2.994  0.00  0.00    +0.000 C 
ATOM     13  C   UNL     1       4.494   2.200   3.324  0.00  0.00    +0.000 C 
ATOM     14  O   UNL     1       4.239   3.140   2.280  0.00  0.00    +0.000 OA
ATOM     15  C   UNL     1       4.066   2.510   1.009  0.00  0.00    +0.000 C 
ATOM     16  C   UNL     1       5.199   1.523   0.664  0.00  0.00    +0.000 C 
ENDBRANCH  10  11
ENDBRANCH   7  10
ENDBRANCH   1   4
BRANCH   1  17
ATOM     17  N   UNL     1       3.984  -3.696  -4.219  0.00  0.00    +0.000 N 
ATOM     18  C   UNL     1       3.536  -4.449  -5.292  0.00  0.00    +0.000 C 
ATOM     19  O   UNL     1       2.628  -5.267  -5.144  0.00  0.00    +0.000 OA
ATOM     20  H   UNL     1       4.799  -3.099  -4.306  0.00  0.00    +0.000 HD
BRANCH  18  21
ATOM     21  C   UNL     1       4.150  -4.254  -6.623  0.00  0.00    +0.000 A 
ATOM     22  C   UNL     1       3.642  -4.945  -7.721  0.00  0.00    +0.000 A 
ATOM     23  S   UNL     1       4.439  -4.610  -9.191  0.00  0.00    +0.000 S 
ATOM     24  C   UNL     1       5.510  -3.540  -8.423  0.00  0.00    +0.000 A 
ATOM     25  N   UNL     1       6.481  -2.901  -9.132  0.00  0.00    +0.000 NA
ATOM     26  C   UNL     1       7.232  -2.122  -8.427  0.00  0.00    +0.000 A 
ATOM     27  N   UNL     1       7.094  -1.923  -7.078  0.00  0.00    +0.000 N 
ATOM     28  C   UNL     1       6.130  -2.546  -6.321  0.00  0.00    +0.000 A 
ATOM     29  O   UNL     1       6.044  -2.351  -5.113  0.00  0.00    +0.000 OA
ATOM     30  C   UNL     1       5.258  -3.434  -7.063  0.00  0.00    +0.000 A 
ATOM     31  H   UNL     1       7.713  -1.298  -6.584  0.00  0.00    +0.000 HD
ENDBRANCH  18  21
ENDBRANCH   1  17
TORSDOF 6
