REMARK  Name = 
REMARK  11 active torsions:
REMARK  status: ('A' for Active; 'I' for Inactive)
REMARK    1  A    between atoms: N_1  and  C_2
REMARK    2  A    between atoms: C_2  and  C_3
REMARK    3  A    between atoms: C_3  and  C_4
REMARK    4  A    between atoms: C_4  and  N_5
REMARK    5  A    between atoms: N_5  and  C_6
REMARK    6  A    between atoms: C_6  and  C_7
REMARK    7  A    between atoms: C_10  and  C_11
REMARK    8  A    between atoms: C_11  and  N_12
REMARK    9  A    between atoms: N_12  and  C_13
REMARK   10  A    between atoms: C_13  and  C_14
REMARK   11  A    between atoms: C_22  and  C_24
REMARK                            x       y       z     vdW  Elec       q    Type
REMARK                         _______ _______ _______ _____ _____    ______ ____
ROOT
ATOM      1  N   UNL     1       4.878  -0.993   2.671  0.00  0.00    +0.000 N 
ATOM      2  C   UNL     1       5.632  -2.184   2.522  0.00  0.00    +0.000 C 
ATOM      3  O   UNL     1       6.505  -2.212   1.653  0.00  0.00    +0.000 OA
ENDROOT
BRANCH   2   4
ATOM      4  C   UNL     1       5.390  -3.416   3.332  0.00  0.00    +0.000 A 
ATOM      5  C   UNL     1       4.322  -3.670   4.179  0.00  0.00    +0.000 A 
ATOM      6  S   UNL     1       4.250  -5.222   4.857  0.00  0.00    +0.000 S 
ATOM      7  C   UNL     1       5.672  -5.669   4.058  0.00  0.00    +0.000 A 
ATOM      8  N   UNL     1       6.125  -6.934   4.184  0.00  0.00    +0.000 NA
ATOM      9  C   UNL     1       7.192  -7.177   3.500  0.00  0.00    +0.000 A 
ATOM     10  N   UNL     1       7.848  -6.255   2.731  0.00  0.00    +0.000 N 
ATOM     11  C   UNL     1       7.499  -4.920   2.686  0.00  0.00    +0.000 A 
ATOM     12  O   UNL     1       8.280  -4.105   2.212  0.00  0.00    +0.000 OA
ATOM     13  C   UNL     1       6.222  -4.622   3.329  0.00  0.00    +0.000 A 
ATOM     14  H   UNL     1       8.730  -6.488   2.301  0.00  0.00    +0.000 HD
ENDBRANCH   2   4
BRANCH   1  15
ATOM     15  C   UNL     1       5.361   0.187   1.922  0.00  0.00    +0.000 C 
BRANCH  15  16
ATOM     16  C   UNL     1       5.082   0.214   0.417  0.00  0.00    +0.000 C 
BRANCH  16  17
ATOM     17  C   UNL     1       3.615   0.394   0.035  0.00  0.00    +0.000 C 
BRANCH  17  18
ATOM     18  N   UNL     1       3.047   1.626   0.578  0.00  0.00    +0.000 NA
ATOM     19  H   UNL     1       2.125   1.771   0.164  0.00  0.00    +0.000 HD
ATOM     20  H   UNL     1       3.612   2.424   0.291  0.00  0.00    +0.000 HD
ENDBRANCH  17  18
ENDBRANCH  16  17
ENDBRANCH  15  16
ENDBRANCH   1  15
BRANCH   1  21
ATOM     21  C   UNL     1       4.009  -0.668   3.798  0.00  0.00    +0.000 C 
BRANCH  21  22
ATOM     22  C   UNL     1       2.512  -0.755   3.574  0.00  0.00    +0.000 A 
ATOM     23  C   UNL     1       1.692   0.244   4.106  0.00  0.00    +0.000 A 
ATOM     24  C   UNL     1       0.313   0.056   4.197  0.00  0.00    +0.000 A 
ATOM     25  C   UNL     1      -0.232  -1.148   3.766  0.00  0.00    +0.000 A 
ATOM     26  N   UNL     1       0.519  -2.093   3.150  0.00  0.00    +0.000 NA
ATOM     27  C   UNL     1       1.854  -1.862   3.044  0.00  0.00    +0.000 A 
BRANCH  25  28
ATOM     28  C   UNL     1      -1.682  -1.483   4.072  0.00  0.00    +0.000 C 
BRANCH  28  29
ATOM     29  N   UNL     1      -1.869  -2.698   4.886  0.00  0.00    +0.000 NA
ATOM     30  H   UNL     1      -1.378  -3.454   4.401  0.00  0.00    +0.000 HD
BRANCH  29  31
ATOM     31  C   UNL     1      -1.259  -2.580   6.221  0.00  0.00    +0.000 C 
BRANCH  31  32
ATOM     32  C   UNL     1      -1.447  -3.836   7.055  0.00  0.00    +0.000 A 
ATOM     33  C   UNL     1      -2.727  -4.285   7.378  0.00  0.00    +0.000 A 
ATOM     34  C   UNL     1      -2.865  -5.454   8.121  0.00  0.00    +0.000 A 
ATOM     35  C   UNL     1      -1.728  -6.141   8.528  0.00  0.00    +0.000 A 
ATOM     36  C   UNL     1      -0.493  -5.624   8.177  0.00  0.00    +0.000 A 
ATOM     37  N   UNL     1      -0.327  -4.492   7.458  0.00  0.00    +0.000 NA
ENDBRANCH  31  32
ENDBRANCH  29  31
ENDBRANCH  28  29
ENDBRANCH  25  28
ENDBRANCH  21  22
ENDBRANCH   1  21
TORSDOF 11
