REMARK  Name = 
REMARK  9 active torsions:
REMARK  status: ('A' for Active; 'I' for Inactive)
REMARK    1  A    between atoms: C_1  and  O_2
REMARK    2  A    between atoms: O_2  and  C_3
REMARK    3  A    between atoms: C_10  and  C_11
REMARK    4  A    between atoms: N_13  and  C_14
REMARK    5  A    between atoms: C_14  and  C_15
REMARK    6  A    between atoms: C_18  and  C_19
REMARK    7  A    between atoms: C_19  and  O_20
REMARK    8  A    between atoms: O_20  and  C_21
REMARK    9  A    between atoms: C_21  and  C_22
REMARK                            x       y       z     vdW  Elec       q    Type
REMARK                         _______ _______ _______ _____ _____    ______ ____
ROOT
ATOM      1  C   UNL     1       2.654   3.250  -0.498  0.00  0.00    +0.000 C 
ENDROOT
BRANCH   1   2
ATOM      2  C   UNL     1       1.437   2.862  -1.304  0.00  0.00    +0.000 A 
ATOM      3  C   UNL     1       1.258   1.542  -1.740  0.00  0.00    +0.000 A 
ATOM      4  C   UNL     1       0.086   1.162  -2.404  0.00  0.00    +0.000 A 
ATOM      5  C   UNL     1      -0.927   2.096  -2.654  0.00  0.00    +0.000 A 
ATOM      6  C   UNL     1      -0.721   3.430  -2.282  0.00  0.00    +0.000 A 
ATOM      7  C   UNL     1       0.451   3.810  -1.618  0.00  0.00    +0.000 A 
BRANCH   5   8
ATOM      8  C   UNL     1      -2.234   1.656  -3.270  0.00  0.00    +0.000 C 
BRANCH   8   9
ATOM      9  O   UNL     1      -2.824   0.582  -2.535  0.00  0.00    +0.000 OA
BRANCH   9  10
ATOM     10  C   UNL     1      -3.324   1.000  -1.259  0.00  0.00    +0.000 C 
BRANCH  10  11
ATOM     11  C   UNL     1      -4.003  -0.153  -0.556  0.00  0.00    +0.000 A 
ATOM     12  C   UNL     1      -3.314  -1.347  -0.347  0.00  0.00    +0.000 A 
ATOM     13  C   UNL     1      -3.945  -2.381   0.338  0.00  0.00    +0.000 A 
ATOM     14  C   UNL     1      -5.244  -2.198   0.796  0.00  0.00    +0.000 A 
ATOM     15  C   UNL     1      -5.858  -0.981   0.553  0.00  0.00    +0.000 A 
ATOM     16  N   UNL     1      -5.269   0.043  -0.104  0.00  0.00    +0.000 NA
ENDBRANCH  10  11
ENDBRANCH   9  10
ENDBRANCH   8   9
ENDBRANCH   5   8
ENDBRANCH   1   2
BRANCH   1  19
ATOM     17  C   UNL     1       4.951   4.082  -0.820  0.00  0.00    +0.000 C 
ATOM     18  O   UNL     1       5.188   4.001   0.382  0.00  0.00    +0.000 OA
ATOM     19  N   UNL     1       3.725   3.736  -1.328  0.00  0.00    +0.000 N 
ATOM     20  H   UNL     1       3.525   3.879  -2.307  0.00  0.00    +0.000 HD
BRANCH  17  28
ATOM     21  C   UNL     1       5.003   4.415  -4.242  0.00  0.00    +0.000 A 
ATOM     22  N   UNL     1       5.281   4.633  -5.538  0.00  0.00    +0.000 NA
ATOM     23  C   UNL     1       6.499   5.091  -5.846  0.00  0.00    +0.000 A 
ATOM     24  N   UNL     1       7.492   5.364  -5.003  0.00  0.00    +0.000 NA
ATOM     25  C   UNL     1       7.165   5.142  -3.717  0.00  0.00    +0.000 A 
ATOM     26  S   UNL     1       8.307   5.436  -2.496  0.00  0.00    +0.000 S 
ATOM     27  C   UNL     1       7.215   4.946  -1.288  0.00  0.00    +0.000 A 
ATOM     28  C   UNL     1       5.973   4.552  -1.777  0.00  0.00    +0.000 A 
ATOM     29  C   UNL     1       5.949   4.673  -3.233  0.00  0.00    +0.000 A 
BRANCH  21  31
ATOM     30  C   UNL     1       3.079   3.275  -4.947  0.00  0.00    +0.000 C 
ATOM     31  O   UNL     1       3.736   3.990  -3.908  0.00  0.00    +0.000 OA
ENDBRANCH  21  31
ENDBRANCH  17  28
ENDBRANCH   1  19
TORSDOF 8
