REMARK  Name = 
REMARK  8 active torsions:
REMARK  status: ('A' for Active; 'I' for Inactive)
REMARK    1  A    between atoms: C_1  and  C_2
REMARK    2  A    between atoms: C_2  and  C_3
REMARK    3  A    between atoms: C_2  and  C_4
REMARK    4  A    between atoms: C_2  and  C_5
REMARK    5  A    between atoms: C_9  and  C_10
REMARK    6  A    between atoms: C_10  and  O_12
REMARK    7  A    between atoms: N_16  and  C_17
REMARK    8  A    between atoms: C_17  and  C_18
REMARK                            x       y       z     vdW  Elec       q    Type
REMARK                         _______ _______ _______ _____ _____    ______ ____
ROOT
ATOM      1  C   UNL     1       3.029   0.945   1.115  0.00  0.00    +0.000 A 
ATOM      2  N   UNL     1       2.818   2.257   1.144  0.00  0.00    +0.000 NA
ATOM      3  C   UNL     1       3.281   2.710   2.342  0.00  0.00    +0.000 A 
ATOM      4  C   UNL     1       3.255   3.989   2.907  0.00  0.00    +0.000 A 
ATOM      5  C   UNL     1       3.797   4.124   4.190  0.00  0.00    +0.000 A 
ATOM      6  C   UNL     1       4.314   2.996   4.830  0.00  0.00    +0.000 A 
ATOM      7  N   UNL     1       4.370   1.741   4.308  0.00  0.00    +0.000 NA
ATOM      8  C   UNL     1       3.833   1.674   3.072  0.00  0.00    +0.000 A 
ATOM      9  N   UNL     1       3.655   0.548   2.295  0.00  0.00    +0.000 N 
ENDROOT
BRANCH   1  11
ATOM     10  C   UNL     1       1.883   0.974  -1.113  0.00  0.00    +0.000 C 
ATOM     11  C   UNL     1       2.615   0.079  -0.078  0.00  0.00    +0.000 C 
ATOM     12  C   UNL     1       1.622  -1.028   0.296  0.00  0.00    +0.000 C 
ATOM     13  C   UNL     1       3.839  -0.523  -0.786  0.00  0.00    +0.000 C 
ENDBRANCH   1  11
BRANCH   5  14
ATOM     14  C   UNL     1       3.801   5.397   4.933  0.00  0.00    +0.000 C 
ATOM     15  O   UNL     1       3.775   5.446   6.149  0.00  0.00    +0.000 OA
BRANCH  14  16
ATOM     16  O   UNL     1       3.863   6.502   4.156  0.00  0.00    +0.000 OA
ATOM     17  H   UNL     1       4.033   6.352   3.208  0.00  0.00    +0.000 HD
ENDBRANCH  14  16
ENDBRANCH   5  14
BRANCH   9  18
ATOM     18  C   UNL     1       4.046  -0.778   2.757  0.00  0.00    +0.000 C 
BRANCH  18  19
ATOM     19  C   UNL     1       2.897  -1.576   3.335  0.00  0.00    +0.000 A 
ATOM     20  C   UNL     1       2.884  -2.971   3.172  0.00  0.00    +0.000 A 
ATOM     21  C   UNL     1       1.776  -3.721   3.569  0.00  0.00    +0.000 A 
ATOM     22  C   UNL     1       0.684  -3.092   4.162  0.00  0.00    +0.000 A 
ATOM     23  C   UNL     1       0.717  -1.722   4.401  0.00  0.00    +0.000 A 
ATOM     24  C   UNL     1       1.826  -0.971   4.009  0.00  0.00    +0.000 A 
ENDBRANCH  18  19
ENDBRANCH   9  18
TORSDOF 5
