REMARK  Name = 
REMARK  8 active torsions:
REMARK  status: ('A' for Active; 'I' for Inactive)
REMARK    1  A    between atoms: C_1  and  O_2
REMARK    2  A    between atoms: O_2  and  C_3
REMARK    3  A    between atoms: C_5  and  C_6
REMARK    4  A    between atoms: C_11  and  N_12
REMARK    5  A    between atoms: N_12  and  C_13
REMARK    6  A    between atoms: C_13  and  C_14
REMARK    7  A    between atoms: C_18  and  N_19
REMARK    8  A    between atoms: N_22  and  C_23
REMARK                            x       y       z     vdW  Elec       q    Type
REMARK                         _______ _______ _______ _____ _____    ______ ____
ROOT
ATOM      1  N   UNL     1       3.820   1.719   1.579  0.00  0.00    +0.000 N 
ATOM      2  H   UNL     1       3.416   2.419   2.193  0.00  0.00    +0.000 HD
ENDROOT
BRANCH   1   8
ATOM      3  C   UNL     1       3.568  -0.728   1.080  0.00  0.00    +0.000 A 
ATOM      4  C   UNL     1       3.112  -1.983   1.510  0.00  0.00    +0.000 A 
ATOM      5  C   UNL     1       2.464  -2.139   2.741  0.00  0.00    +0.000 A 
ATOM      6  C   UNL     1       2.302  -1.026   3.565  0.00  0.00    +0.000 A 
ATOM      7  C   UNL     1       2.759   0.229   3.142  0.00  0.00    +0.000 A 
ATOM      8  C   UNL     1       3.363   0.419   1.883  0.00  0.00    +0.000 A 
BRANCH   5   9
ATOM      9  C   UNL     1       2.018  -3.517   3.110  0.00  0.00    +0.000 C 
ATOM     10  N   UNL     1       1.426  -3.718   4.328  0.00  0.00    +0.000 N 
ATOM     11  O   UNL     1       2.168  -4.467   2.347  0.00  0.00    +0.000 OA
ATOM     12  H   UNL     1       1.282  -3.012   5.031  0.00  0.00    +0.000 HD
ATOM     13  H   UNL     1       1.145  -4.667   4.545  0.00  0.00    +0.000 HD
ENDBRANCH   5   9
BRANCH   3  15
ATOM     14  C   UNL     1       4.112  -1.557  -1.092  0.00  0.00    +0.000 C 
ATOM     15  O   UNL     1       4.289  -0.578  -0.077  0.00  0.00    +0.000 OA
ENDBRANCH   3  15
ENDBRANCH   1   8
BRANCH   1  16
ATOM     16  C   UNL     1       3.772   2.166   0.188  0.00  0.00    +0.000 C 
BRANCH  16  17
ATOM     17  C   UNL     1       4.185   3.620   0.095  0.00  0.00    +0.000 A 
ATOM     18  C   UNL     1       3.241   4.648   0.170  0.00  0.00    +0.000 A 
ATOM     19  C   UNL     1       3.650   5.974   0.049  0.00  0.00    +0.000 A 
ATOM     20  C   UNL     1       5.003   6.278  -0.131  0.00  0.00    +0.000 A 
ATOM     21  C   UNL     1       5.985   5.277  -0.172  0.00  0.00    +0.000 A 
ATOM     22  C   UNL     1       5.545   3.951  -0.062  0.00  0.00    +0.000 A 
BRANCH  21  23
ATOM     23  N   UNL     1       7.324   5.629  -0.225  0.00  0.00    +0.000 N 
ATOM     24  C   UNL     1       8.354   4.718   0.294  0.00  0.00    +0.000 C 
ATOM     25  C   UNL     1       9.568   5.553   0.761  0.00  0.00    +0.000 C 
ATOM     26  N   UNL     1      10.130   6.406  -0.313  0.00  0.00    +0.000 NA
ATOM     27  C   UNL     1      11.219   7.226   0.216  0.00  0.00    +0.000 C 
ATOM     28  C   UNL     1       9.057   7.265  -0.874  0.00  0.00    +0.000 C 
ATOM     29  C   UNL     1       7.808   6.470  -1.335  0.00  0.00    +0.000 C 
ENDBRANCH  21  23
ENDBRANCH  16  17
ENDBRANCH   1  16
TORSDOF 6
