REMARK  Name = 
REMARK  10 active torsions:
REMARK  status: ('A' for Active; 'I' for Inactive)
REMARK    1  A    between atoms: C_1  and  C_2
REMARK    2  A    between atoms: C_2  and  O_3
REMARK    3  A    between atoms: C_5  and  O_6
REMARK    4  A    between atoms: O_6  and  C_7
REMARK    5  A    between atoms: C_9  and  N_10
REMARK    6  A    between atoms: N_10  and  C_11
REMARK    7  A    between atoms: C_11  and  C_12
REMARK    8  A    between atoms: C_12  and  C_15
REMARK    9  A    between atoms: C_18  and  C_19
REMARK   10  A    between atoms: C_25  and  C_26
REMARK                            x       y       z     vdW  Elec       q    Type
REMARK                         _______ _______ _______ _____ _____    ______ ____
ROOT
ATOM      1  C   UNL     1       6.562  -0.863   0.692  0.00  0.00    +0.000 A 
ATOM      2  C   UNL     1       6.306  -2.245   0.697  0.00  0.00    +0.000 A 
ATOM      3  C   UNL     1       7.351  -3.178   0.787  0.00  0.00    +0.000 A 
ATOM      4  C   UNL     1       8.659  -2.678   0.801  0.00  0.00    +0.000 A 
ATOM      5  C   UNL     1       8.935  -1.303   0.791  0.00  0.00    +0.000 A 
ATOM      6  C   UNL     1       7.872  -0.397   0.740  0.00  0.00    +0.000 A 
ENDROOT
BRANCH   5   7
ATOM      7  C   UNL     1      10.357  -0.809   0.821  0.00  0.00    +0.000 C 
ATOM      8  F   UNL     1      11.282  -1.810   0.823  0.00  0.00    +0.000 F 
ATOM      9  F   UNL     1      10.660  -0.023  -0.248  0.00  0.00    +0.000 F 
ATOM     10  F   UNL     1      10.621  -0.059   1.927  0.00  0.00    +0.000 F 
ENDBRANCH   5   7
BRANCH   3  11
ATOM     11  N   UNL     1       7.071  -4.549   0.722  0.00  0.00    +0.000 N 
ATOM     12  H   UNL     1       6.214  -4.818   1.204  0.00  0.00    +0.000 HD
BRANCH  11  13
ATOM     13  C   UNL     1       8.184  -5.520   0.822  0.00  0.00    +0.000 C 
BRANCH  13  14
ATOM     14  C   UNL     1       7.768  -7.012   0.846  0.00  0.00    +0.000 C 
ATOM     15  F   UNL     1       7.033  -7.233   1.977  0.00  0.00    +0.000 F 
ATOM     16  F   UNL     1       6.918  -7.261  -0.192  0.00  0.00    +0.000 F 
BRANCH  14  17
ATOM     17  C   UNL     1       8.998  -7.893   0.786  0.00  0.00    +0.000 A 
ATOM     18  C   UNL     1       9.546  -8.304  -0.436  0.00  0.00    +0.000 A 
ATOM     19  C   UNL     1      10.703  -9.081  -0.456  0.00  0.00    +0.000 A 
ATOM     20  C   UNL     1      11.284  -9.425   0.756  0.00  0.00    +0.000 A 
ATOM     21  N   UNL     1      10.784  -9.042   1.967  0.00  0.00    +0.000 NA
ATOM     22  C   UNL     1       9.655  -8.293   1.947  0.00  0.00    +0.000 A 
BRANCH  20  23
ATOM     23  C   UNL     1      12.528 -10.260   0.769  0.00  0.00    +0.000 C 
ATOM     24  N   UNL     1      13.027 -10.558   2.010  0.00  0.00    +0.000 N 
ATOM     25  O   UNL     1      13.070 -10.655  -0.254  0.00  0.00    +0.000 OA
ATOM     26  H   UNL     1      12.544 -10.225   2.836  0.00  0.00    +0.000 HD
ATOM     27  H   UNL     1      13.854 -11.130   2.091  0.00  0.00    +0.000 HD
ENDBRANCH  20  23
ENDBRANCH  14  17
ENDBRANCH  13  14
ENDBRANCH  11  13
ENDBRANCH   3  11
BRANCH   1  28
ATOM     28  O   UNL     1       5.468  -0.033   0.589  0.00  0.00    +0.000 OA
BRANCH  28  32
ATOM     29  C   UNL     1       3.618   2.686   3.673  0.00  0.00    +0.000 C 
ATOM     30  C   UNL     1       4.098   1.628   2.693  0.00  0.00    +0.000 C 
ATOM     31  C   UNL     1       5.633   1.402   2.691  0.00  0.00    +0.000 C 
ATOM     32  C   UNL     1       5.567   1.302   1.147  0.00  0.00    +0.000 C 
ATOM     33  C   UNL     1       4.241   2.098   1.223  0.00  0.00    +0.000 C 
BRANCH  30  34
ATOM     34  O   UNL     1       3.291   0.442   2.860  0.00  0.00    +0.000 OA
ATOM     35  H   UNL     1       3.527   0.086   3.732  0.00  0.00    +0.000 HD
ENDBRANCH  30  34
ENDBRANCH  28  32
ENDBRANCH   1  28
TORSDOF 9
