REMARK  Name = 
REMARK  6 active torsions:
REMARK  status: ('A' for Active; 'I' for Inactive)
REMARK    1  A    between atoms: C_2  and  C_4
REMARK    2  A    between atoms: C_7  and  N_8
REMARK    3  A    between atoms: N_8  and  C_9
REMARK    4  A    between atoms: C_9  and  C_10
REMARK    5  A    between atoms: C_10  and  C_13
REMARK    6  A    between atoms: C_17  and  C_18
REMARK                            x       y       z     vdW  Elec       q    Type
REMARK                         _______ _______ _______ _____ _____    ______ ____
ROOT
ATOM      1  C   UNL     1       5.927  -6.916  -1.807  0.00  0.00    +0.000 C 
ATOM      2  F   UNL     1       7.207  -6.491  -2.027  0.00  0.00    +0.000 F 
ATOM      3  F   UNL     1       5.934  -7.417  -0.531  0.00  0.00    +0.000 F 
ENDROOT
BRANCH   1   4
ATOM      4  C   UNL     1       5.503  -7.960  -2.825  0.00  0.00    +0.000 A 
ATOM      5  C   UNL     1       5.961  -7.886  -4.146  0.00  0.00    +0.000 A 
ATOM      6  C   UNL     1       5.581  -8.851  -5.075  0.00  0.00    +0.000 A 
ATOM      7  C   UNL     1       4.744  -9.903  -4.692  0.00  0.00    +0.000 A 
ATOM      8  C   UNL     1       4.274 -10.026  -3.372  0.00  0.00    +0.000 A 
ATOM      9  C   UNL     1       4.659  -9.026  -2.456  0.00  0.00    +0.000 A 
BRANCH   8  10
ATOM     10  C   UNL     1       3.441 -11.178  -2.956  0.00  0.00    +0.000 A 
ATOM     11  C   UNL     1       2.435 -11.072  -1.984  0.00  0.00    +0.000 A 
ATOM     12  C   UNL     1       1.689 -12.189  -1.603  0.00  0.00    +0.000 A 
ATOM     13  C   UNL     1       1.957 -13.400  -2.214  0.00  0.00    +0.000 A 
ATOM     14  N   UNL     1       2.904 -13.561  -3.156  0.00  0.00    +0.000 NA
ATOM     15  C   UNL     1       3.619 -12.457  -3.495  0.00  0.00    +0.000 A 
ENDBRANCH   8  10
ENDBRANCH   1   4
BRANCH   1  16
ATOM     16  C   UNL     1       4.980  -5.688  -1.829  0.00  0.00    +0.000 C 
BRANCH  16  17
ATOM     17  N   UNL     1       5.360  -4.645  -0.860  0.00  0.00    +0.000 N 
ATOM     18  H   UNL     1       5.765  -4.994   0.007  0.00  0.00    +0.000 HD
BRANCH  17  22
ATOM     19  C   UNL     1       3.326  -0.966  -0.510  0.00  0.00    +0.000 A 
ATOM     20  C   UNL     1       2.863  -1.927  -1.410  0.00  0.00    +0.000 A 
ATOM     21  C   UNL     1       3.517  -3.159  -1.519  0.00  0.00    +0.000 A 
ATOM     22  C   UNL     1       4.621  -3.474  -0.719  0.00  0.00    +0.000 A 
ATOM     23  C   UNL     1       5.083  -2.490   0.167  0.00  0.00    +0.000 A 
ATOM     24  C   UNL     1       4.449  -1.245   0.271  0.00  0.00    +0.000 A 
BRANCH  19  26
ATOM     25  N   UNL     1       1.351   0.445  -0.700  0.00  0.00    +0.000 N 
ATOM     26  C   UNL     1       2.684   0.369  -0.401  0.00  0.00    +0.000 C 
ATOM     27  O   UNL     1       3.304   1.357  -0.029  0.00  0.00    +0.000 OA
ATOM     28  H   UNL     1       0.903   1.337  -0.530  0.00  0.00    +0.000 HD
ATOM     29  H   UNL     1       0.762  -0.372  -0.761  0.00  0.00    +0.000 HD
ENDBRANCH  19  26
ENDBRANCH  17  22
ENDBRANCH  16  17
ENDBRANCH   1  16
TORSDOF 6
