REMARK  Name = 
REMARK  6 active torsions:
REMARK  status: ('A' for Active; 'I' for Inactive)
REMARK    1  A    between atoms: C_1  and  S_2
REMARK    2  A    between atoms: S_2  and  C_3
REMARK    3  A    between atoms: C_5  and  C_6
REMARK    4  A    between atoms: C_11  and  O_12
REMARK    5  A    between atoms: O_12  and  C_13
REMARK    6  A    between atoms: C_13  and  C_14
REMARK                            x       y       z     vdW  Elec       q    Type
REMARK                         _______ _______ _______ _____ _____    ______ ____
ROOT
ATOM      1  C   UNL     1       3.220  -1.442   1.151  0.00  0.00    +0.000 A 
ATOM      2  N   UNL     1       3.913  -1.314   2.309  0.00  0.00    +0.000 NA
ATOM      3  C   UNL     1       4.255  -2.460   2.951  0.00  0.00    +0.000 A 
ATOM      4  C   UNL     1       3.944  -3.728   2.487  0.00  0.00    +0.000 A 
ATOM      5  C   UNL     1       3.251  -3.839   1.282  0.00  0.00    +0.000 A 
ATOM      6  C   UNL     1       2.886  -2.686   0.585  0.00  0.00    +0.000 A 
ENDROOT
BRANCH   3   7
ATOM      7  C   UNL     1       5.008  -2.294   4.236  0.00  0.00    +0.000 C 
ATOM      8  N   UNL     1       5.288  -1.000   4.585  0.00  0.00    +0.000 N 
ATOM      9  O   UNL     1       5.355  -3.242   4.924  0.00  0.00    +0.000 OA
ATOM     10  H   UNL     1       5.013  -0.243   3.969  0.00  0.00    +0.000 HD
ATOM     11  H   UNL     1       5.818  -0.812   5.423  0.00  0.00    +0.000 HD
ENDBRANCH   3   7
BRANCH   1  13
ATOM     12  C   UNL     1       2.711   1.198   1.771  0.00  0.00    +0.000 C 
ATOM     13  S   UNL     1       2.771   0.092   0.338  0.00  0.00    +0.000 S 
ENDBRANCH   1  13
BRANCH   6  14
ATOM     14  O   UNL     1       2.157  -2.695  -0.574  0.00  0.00    +0.000 OA
BRANCH  14  15
ATOM     15  C   UNL     1       2.314  -3.820  -1.445  0.00  0.00    +0.000 C 
BRANCH  15  16
ATOM     16  C   UNL     1       1.557  -3.577  -2.739  0.00  0.00    +0.000 A 
ATOM     17  C   UNL     1       1.385  -2.265  -3.219  0.00  0.00    +0.000 A 
ATOM     18  C   UNL     1       0.708  -2.016  -4.416  0.00  0.00    +0.000 A 
ATOM     19  C   UNL     1       0.208  -3.080  -5.160  0.00  0.00    +0.000 A 
ATOM     20 CL   UNL     1      -0.620  -2.776  -6.637  0.00  0.00    +0.000 Cl
ATOM     21  C   UNL     1       0.381  -4.388  -4.721  0.00  0.00    +0.000 A 
ATOM     22  C   UNL     1       1.057  -4.635  -3.520  0.00  0.00    +0.000 A 
ATOM     23 CL   UNL     1       1.253  -6.288  -3.051  0.00  0.00    +0.000 Cl
ENDBRANCH  15  16
ENDBRANCH  14  15
ENDBRANCH   6  14
TORSDOF 5
