REMARK  Name = 
REMARK  6 active torsions:
REMARK  status: ('A' for Active; 'I' for Inactive)
REMARK    1  A    between atoms: C_1  and  C_2
REMARK    2  A    between atoms: C_4  and  O_5
REMARK    3  A    between atoms: O_5  and  C_6
REMARK    4  A    between atoms: C_6  and  C_7
REMARK    5  A    between atoms: C_11  and  C_12
REMARK    6  A    between atoms: C_17  and  C_18
REMARK                            x       y       z     vdW  Elec       q    Type
REMARK                         _______ _______ _______ _____ _____    ______ ____
ROOT
ATOM      1  C   UNL     1       2.432  -0.093  -0.019  0.00  0.00    +0.000 C 
ATOM      2  C   UNL     1       0.933  -0.073  -0.008  0.00  0.00    +0.000 A 
ATOM      3  C   UNL     1       0.202  -1.254   0.028  0.00  0.00    +0.000 A 
ATOM      4  C   UNL     1      -1.184  -1.175   0.065  0.00  0.00    +0.000 A 
ATOM      5  C   UNL     1      -1.796   0.069   0.015  0.00  0.00    +0.000 A 
ATOM      6  C   UNL     1      -1.006   1.208  -0.008  0.00  0.00    +0.000 A 
ATOM      7  N   UNL     1       0.345   1.150  -0.019  0.00  0.00    +0.000 NA
ENDROOT
BRANCH   6   8
ATOM      8  C   UNL     1      -1.630   2.546  -0.012  0.00  0.00    +0.000 C 
ATOM      9  C   UNL     1      -1.028   3.604  -0.587  0.00  0.00    +0.000 C 
ATOM     10  C   UNL     1      -1.669   4.956  -0.673  0.00  0.00    +0.000 C 
ATOM     11  O   UNL     1      -3.065   4.921  -0.359  0.00  0.00    +0.000 OA
ATOM     12  C   UNL     1      -3.315   4.197   0.845  0.00  0.00    +0.000 C 
ATOM     13  C   UNL     1      -2.981   2.721   0.640  0.00  0.00    +0.000 C 
ENDBRANCH   6   8
BRANCH   4  14
ATOM     14  O   UNL     1      -1.862  -2.362   0.143  0.00  0.00    +0.000 OA
BRANCH  14  15
ATOM     15  C   UNL     1      -3.189  -2.265   0.677  0.00  0.00    +0.000 C 
BRANCH  15  16
ATOM     16  C   UNL     1      -3.662  -3.602   1.171  0.00  0.00    +0.000 A 
ATOM     17  C   UNL     1      -2.775  -4.567   1.633  0.00  0.00    +0.000 A 
ATOM     18  N   UNL     1      -3.153  -5.758   2.145  0.00  0.00    +0.000 NA
ATOM     19  C   UNL     1      -4.485  -5.999   2.210  0.00  0.00    +0.000 A 
ATOM     20  C   UNL     1      -5.460  -5.106   1.795  0.00  0.00    +0.000 A 
ATOM     21  C   UNL     1      -5.030  -3.883   1.272  0.00  0.00    +0.000 A 
BRANCH  20  22
ATOM     22  C   UNL     1      -6.917  -5.375   1.894  0.00  0.00    +0.000 C 
ATOM     23  N   UNL     1      -7.337  -6.579   2.382  0.00  0.00    +0.000 N 
ATOM     24  O   UNL     1      -7.738  -4.535   1.545  0.00  0.00    +0.000 OA
ATOM     25  H   UNL     1      -6.750  -7.345   2.670  0.00  0.00    +0.000 HD
ATOM     26  H   UNL     1      -8.339  -6.723   2.422  0.00  0.00    +0.000 HD
ENDBRANCH  20  22
ENDBRANCH  15  16
ENDBRANCH  14  15
ENDBRANCH   4  14
TORSDOF 5
