REMARK  Name = 
REMARK  6 active torsions:
REMARK  status: ('A' for Active; 'I' for Inactive)
REMARK    1  A    between atoms: C_1  and  C_2
REMARK    2  A    between atoms: C_4  and  C_5
REMARK    3  A    between atoms: C_10  and  N_11
REMARK    4  A    between atoms: N_11  and  C_12
REMARK    5  A    between atoms: C_12  and  C_13
REMARK    6  A    between atoms: C_17  and  C_18
REMARK                            x       y       z     vdW  Elec       q    Type
REMARK                         _______ _______ _______ _____ _____    ______ ____
ROOT
ATOM      1  C   UNL     1       2.331  -2.611   0.192  0.00  0.00    +0.000 C 
ATOM      2  C   UNL     1       3.388  -2.357   1.250  0.00  0.00    +0.000 C 
ATOM      3  C   UNL     1       3.624  -1.873  -0.143  0.00  0.00    +0.000 C 
ENDROOT
BRANCH   1   4
ATOM      4  C   UNL     1       2.186  -4.004  -0.432  0.00  0.00    +0.000 A 
ATOM      5  C   UNL     1       2.172  -5.158   0.363  0.00  0.00    +0.000 A 
ATOM      6  C   UNL     1       2.045  -6.427  -0.199  0.00  0.00    +0.000 A 
ATOM      7  C   UNL     1       1.899  -6.570  -1.579  0.00  0.00    +0.000 A 
ATOM      8  C   UNL     1       1.875  -5.452  -2.428  0.00  0.00    +0.000 A 
ATOM      9  C   UNL     1       2.046  -4.183  -1.829  0.00  0.00    +0.000 A 
BRANCH   8  10
ATOM     10  C   UNL     1       1.628  -5.602  -3.880  0.00  0.00    +0.000 A 
ATOM     11  C   UNL     1       2.258  -4.808  -4.844  0.00  0.00    +0.000 A 
ATOM     12  C   UNL     1       1.954  -4.959  -6.203  0.00  0.00    +0.000 A 
ATOM     13  C   UNL     1       1.033  -5.922  -6.569  0.00  0.00    +0.000 A 
ATOM     14  N   UNL     1       0.407  -6.723  -5.687  0.00  0.00    +0.000 NA
ATOM     15  C   UNL     1       0.718  -6.541  -4.378  0.00  0.00    +0.000 A 
ENDBRANCH   8  10
ENDBRANCH   1   4
BRANCH   1  16
ATOM     16  N   UNL     1       1.082  -1.810   0.217  0.00  0.00    +0.000 N 
ATOM     17  H   UNL     1       0.677  -1.647  -0.694  0.00  0.00    +0.000 HD
BRANCH  16  24
ATOM     18  C   UNL     1      -1.640  -0.825  -0.240  0.00  0.00    +0.000 C 
ATOM     19  C   UNL     1      -1.185  -1.457   1.046  0.00  0.00    +0.000 A 
ATOM     20  C   UNL     1      -2.098  -1.520   2.109  0.00  0.00    +0.000 A 
ATOM     21  C   UNL     1      -1.757  -2.144   3.309  0.00  0.00    +0.000 A 
ATOM     22  C   UNL     1      -0.496  -2.709   3.369  0.00  0.00    +0.000 A 
ATOM     23  N   UNL     1       0.422  -2.658   2.364  0.00  0.00    +0.000 NA
ATOM     24  C   UNL     1       0.092  -2.026   1.208  0.00  0.00    +0.000 A 
BRANCH  21  25
ATOM     25  C   UNL     1      -2.753  -2.143   4.410  0.00  0.00    +0.000 C 
ATOM     26  N   UNL     1      -2.443  -2.734   5.602  0.00  0.00    +0.000 N 
ATOM     27  O   UNL     1      -3.849  -1.612   4.274  0.00  0.00    +0.000 OA
ATOM     28  H   UNL     1      -1.565  -3.175   5.831  0.00  0.00    +0.000 HD
ATOM     29  H   UNL     1      -3.147  -2.684   6.328  0.00  0.00    +0.000 HD
ENDBRANCH  21  25
ENDBRANCH  16  24
ENDBRANCH   1  16
TORSDOF 5
