REMARK  Name = 
REMARK  9 active torsions:
REMARK  status: ('A' for Active; 'I' for Inactive)
REMARK    1  A    between atoms: C_1  and  O_2
REMARK    2  A    between atoms: O_2  and  C_3
REMARK    3  A    between atoms: C_6  and  C_7
REMARK    4  A    between atoms: C_7  and  N_8
REMARK    5  A    between atoms: C_9  and  C_11
REMARK    6  A    between atoms: C_22  and  C_23
REMARK    7  A    between atoms: C_23  and  N_24
REMARK    8  A    between atoms: C_25  and  C_27
REMARK    9  A    between atoms: N_30  and  C_31
REMARK                            x       y       z     vdW  Elec       q    Type
REMARK                         _______ _______ _______ _____ _____    ______ ____
ROOT
ATOM      1  C   UNL     1       3.067  -1.136   0.474  0.00  0.00    +0.000 A 
ATOM      2  C   UNL     1       2.762  -2.478   0.223  0.00  0.00    +0.000 A 
ATOM      3  C   UNL     1       3.567  -3.500   0.728  0.00  0.00    +0.000 A 
ATOM      4  C   UNL     1       4.709  -3.200   1.471  0.00  0.00    +0.000 A 
ATOM      5  C   UNL     1       4.998  -1.858   1.753  0.00  0.00    +0.000 A 
ATOM      6  C   UNL     1       4.176  -0.818   1.278  0.00  0.00    +0.000 A 
ENDROOT
BRANCH   1   8
ATOM      7  C   UNL     1       1.304  -0.390  -0.939  0.00  0.00    +0.000 C 
ATOM      8  O   UNL     1       2.333  -0.079  -0.005  0.00  0.00    +0.000 OA
ENDBRANCH   1   8
BRANCH   4   9
ATOM      9  C   UNL     1       5.587  -4.308   1.984  0.00  0.00    +0.000 C 
BRANCH   9  10
ATOM     10  N   UNL     1       5.206  -4.708   3.314  0.00  0.00    +0.000 N 
ATOM     11  C   UNL     1       4.429  -5.807   3.568  0.00  0.00    +0.000 C 
ATOM     12  O   UNL     1       3.996  -6.529   2.674  0.00  0.00    +0.000 OA
ATOM     13  H   UNL     1       5.368  -4.028   4.049  0.00  0.00    +0.000 HD
BRANCH  11  14
ATOM     14  C   UNL     1       4.200  -6.126   4.984  0.00  0.00    +0.000 A 
ATOM     15  C   UNL     1       3.857  -7.422   5.347  0.00  0.00    +0.000 A 
ATOM     16  S   UNL     1       3.680  -7.641   7.028  0.00  0.00    +0.000 S 
ATOM     17  C   UNL     1       4.007  -5.998   7.331  0.00  0.00    +0.000 A 
ATOM     18  N   UNL     1       3.989  -5.505   8.598  0.00  0.00    +0.000 NA
ATOM     19  C   UNL     1       4.219  -4.237   8.679  0.00  0.00    +0.000 A 
ATOM     20  N   UNL     1       4.473  -3.420   7.609  0.00  0.00    +0.000 N 
ATOM     21  C   UNL     1       4.559  -3.884   6.319  0.00  0.00    +0.000 A 
ATOM     22  O   UNL     1       4.886  -3.143   5.398  0.00  0.00    +0.000 OA
ATOM     23  C   UNL     1       4.272  -5.298   6.166  0.00  0.00    +0.000 A 
ATOM     24  H   UNL     1       4.667  -2.438   7.743  0.00  0.00    +0.000 HD
ENDBRANCH  11  14
ENDBRANCH   9  10
ENDBRANCH   4   9
BRANCH   6  25
ATOM     25  C   UNL     1       4.513   0.604   1.654  0.00  0.00    +0.000 C 
BRANCH  25  26
ATOM     26  N   UNL     1       5.412   1.227   0.721  0.00  0.00    +0.000 N 
ATOM     27  C   UNL     1       6.777   1.279   0.892  0.00  0.00    +0.000 C 
ATOM     28  O   UNL     1       7.368   0.763   1.836  0.00  0.00    +0.000 OA
ATOM     29  H   UNL     1       5.052   1.645  -0.131  0.00  0.00    +0.000 HD
BRANCH  27  30
ATOM     30  C   UNL     1       7.469   2.034  -0.166  0.00  0.00    +0.000 A 
ATOM     31  C   UNL     1       8.872   2.200  -0.314  0.00  0.00    +0.000 A 
ATOM     32  C   UNL     1       9.033   2.998  -1.422  0.00  0.00    +0.000 A 
ATOM     33  N   UNL     1       7.776   3.276  -1.865  0.00  0.00    +0.000 N 
ATOM     34  C   UNL     1       7.421   4.121  -2.981  0.00  0.00    +0.000 C 
ATOM     35  N   UNL     1       6.803   2.693  -1.139  0.00  0.00    +0.000 NA
ENDBRANCH  27  30
ENDBRANCH  25  26
ENDBRANCH   6  25
TORSDOF 7
