REMARK  Name = 
REMARK  8 active torsions:
REMARK  status: ('A' for Active; 'I' for Inactive)
REMARK    1  A    between atoms: N_1  and  C_2
REMARK    2  A    between atoms: C_2  and  C_3
REMARK    3  A    between atoms: C_3  and  N_4
REMARK    4  A    between atoms: C_3  and  C_17
REMARK    5  A    between atoms: C_5  and  C_7
REMARK    6  A    between atoms: C_20  and  O_21
REMARK    7  A    between atoms: O_21  and  C_22
REMARK    8  A    between atoms: C_22  and  C_23
REMARK                            x       y       z     vdW  Elec       q    Type
REMARK                         _______ _______ _______ _____ _____    ______ ____
ROOT
ATOM      1  C   UNL     1       2.984   0.844   1.000  0.00  0.00    +0.000 C 
ENDROOT
BRANCH   1   2
ATOM      2  C   UNL     1       4.484   0.932   1.245  0.00  0.00    +0.000 A 
ATOM      3  C   UNL     1       5.199   2.065   0.829  0.00  0.00    +0.000 A 
ATOM      4  C   UNL     1       6.530   2.247   1.222  0.00  0.00    +0.000 A 
ATOM      5  C   UNL     1       7.153   1.301   2.036  0.00  0.00    +0.000 A 
ATOM      6  C   UNL     1       6.497   0.107   2.325  0.00  0.00    +0.000 A 
ATOM      7  C   UNL     1       5.175  -0.077   1.929  0.00  0.00    +0.000 A 
BRANCH   5   8
ATOM      8  O   UNL     1       8.388   1.635   2.522  0.00  0.00    +0.000 OA
BRANCH   8   9
ATOM      9  C   UNL     1       8.688   1.036   3.793  0.00  0.00    +0.000 C 
BRANCH   9  10
ATOM     10  C   UNL     1       9.705   1.860   4.544  0.00  0.00    +0.000 A 
ATOM     11  C   UNL     1       9.426   3.188   4.862  0.00  0.00    +0.000 A 
ATOM     12  C   UNL     1      10.355   3.910   5.602  0.00  0.00    +0.000 A 
ATOM     13  C   UNL     1      11.532   3.291   6.005  0.00  0.00    +0.000 A 
ATOM     14  C   UNL     1      11.728   1.966   5.657  0.00  0.00    +0.000 A 
ATOM     15  N   UNL     1      10.843   1.237   4.944  0.00  0.00    +0.000 NA
ENDBRANCH   9  10
ENDBRANCH   8   9
ENDBRANCH   5   8
ENDBRANCH   1   2
BRANCH   1  16
ATOM     16  N   UNL     1       2.716   0.152  -0.248  0.00  0.00    +0.000 N 
ATOM     17  C   UNL     1       1.514   0.271  -0.896  0.00  0.00    +0.000 C 
ATOM     18  O   UNL     1       0.641   1.036  -0.480  0.00  0.00    +0.000 OA
ATOM     19  H   UNL     1       3.412  -0.521  -0.561  0.00  0.00    +0.000 HD
BRANCH  17  20
ATOM     20  C   UNL     1       1.290  -0.550  -2.092  0.00  0.00    +0.000 A 
ATOM     21  C   UNL     1       0.130  -0.360  -2.834  0.00  0.00    +0.000 A 
ATOM     22  S   UNL     1      -0.000  -1.390  -4.186  0.00  0.00    +0.000 S 
ATOM     23  C   UNL     1       1.483  -2.139  -3.826  0.00  0.00    +0.000 A 
ATOM     24  N   UNL     1       1.957  -3.149  -4.603  0.00  0.00    +0.000 NA
ATOM     25  C   UNL     1       3.087  -3.638  -4.216  0.00  0.00    +0.000 A 
ATOM     26  N   UNL     1       3.789  -3.203  -3.122  0.00  0.00    +0.000 N 
ATOM     27  C   UNL     1       3.353  -2.184  -2.310  0.00  0.00    +0.000 A 
ATOM     28  O   UNL     1       4.011  -1.822  -1.342  0.00  0.00    +0.000 OA
ATOM     29  C   UNL     1       2.081  -1.602  -2.697  0.00  0.00    +0.000 A 
ATOM     30  H   UNL     1       4.673  -3.624  -2.874  0.00  0.00    +0.000 HD
ENDBRANCH  17  20
ENDBRANCH   1  16
BRANCH   1  31
ATOM     31  C   UNL     1       2.193   0.204   2.191  0.00  0.00    +0.000 C 
BRANCH  31  32
ATOM     32  N   UNL     1       2.352   0.909   3.471  0.00  0.00    +0.000 NA
ATOM     33  H   UNL     1       1.656   0.567   4.132  0.00  0.00    +0.000 HD
ATOM     34  H   UNL     1       2.158   1.900   3.336  0.00  0.00    +0.000 HD
ENDBRANCH  31  32
ENDBRANCH   1  31
TORSDOF 8
