REMARK  Name = 
REMARK  7 active torsions:
REMARK  status: ('A' for Active; 'I' for Inactive)
REMARK    1  A    between atoms: C_1  and  O_2
REMARK    2  A    between atoms: O_2  and  C_3
REMARK    3  A    between atoms: C_5  and  C_6
REMARK    4  A    between atoms: C_6  and  N_7
REMARK    5  A    between atoms: C_8  and  C_10
REMARK    6  A    between atoms: C_22  and  C_23
REMARK    7  A    between atoms: C_23  and  N_24
REMARK                            x       y       z     vdW  Elec       q    Type
REMARK                         _______ _______ _______ _____ _____    ______ ____
ROOT
ATOM      1  C   UNL     1       3.125  -0.046   4.629  0.00  0.00    +0.000 C 
ENDROOT
BRANCH   1   4
ATOM      2  C   UNL     1       3.240   0.890   0.891  0.00  0.00    +0.000 A 
ATOM      3  C   UNL     1       2.789   0.364   2.116  0.00  0.00    +0.000 A 
ATOM      4  C   UNL     1       3.553   0.525   3.301  0.00  0.00    +0.000 A 
ATOM      5  C   UNL     1       4.758   1.245   3.232  0.00  0.00    +0.000 A 
ATOM      6  C   UNL     1       5.191   1.792   2.034  0.00  0.00    +0.000 A 
ATOM      7  C   UNL     1       4.447   1.626   0.853  0.00  0.00    +0.000 A 
BRANCH   2   9
ATOM      8  C   UNL     1       1.316   0.270  -0.494  0.00  0.00    +0.000 C 
ATOM      9  O   UNL     1       2.641   0.745  -0.327  0.00  0.00    +0.000 OA
ENDBRANCH   2   9
BRANCH   7  10
ATOM     10  C   UNL     1       4.940   2.309  -0.417  0.00  0.00    +0.000 C 
BRANCH  10  11
ATOM     11  N   UNL     1       5.860   1.521  -1.250  0.00  0.00    +0.000 NA
ATOM     12  C   UNL     1       7.179   1.239  -0.660  0.00  0.00    +0.000 C 
ATOM     13  C   UNL     1       8.201   2.390  -0.710  0.00  0.00    +0.000 C 
ATOM     14  O   UNL     1       8.339   2.938  -2.026  0.00  0.00    +0.000 OA
ATOM     15  C   UNL     1       7.081   3.305  -2.598  0.00  0.00    +0.000 C 
ATOM     16  C   UNL     1       6.062   2.152  -2.571  0.00  0.00    +0.000 C 
ENDBRANCH  10  11
ENDBRANCH   7  10
ENDBRANCH   1   4
BRANCH   1  17
ATOM     17  N   UNL     1       2.410   0.921   5.431  0.00  0.00    +0.000 N 
ATOM     18  C   UNL     1       1.045   0.902   5.530  0.00  0.00    +0.000 C 
ATOM     19  O   UNL     1       0.368   0.064   4.938  0.00  0.00    +0.000 OA
ATOM     20  H   UNL     1       2.946   1.679   5.846  0.00  0.00    +0.000 HD
BRANCH  18  21
ATOM     21  C   UNL     1       0.417   1.887   6.423  0.00  0.00    +0.000 A 
ATOM     22  C   UNL     1      -0.885   1.666   6.851  0.00  0.00    +0.000 A 
ATOM     23  S   UNL     1      -1.498   2.887   7.865  0.00  0.00    +0.000 S 
ATOM     24  C   UNL     1      -0.047   3.771   7.760  0.00  0.00    +0.000 A 
ATOM     25  N   UNL     1       0.081   4.967   8.396  0.00  0.00    +0.000 NA
ATOM     26  C   UNL     1       1.214   5.554   8.201  0.00  0.00    +0.000 A 
ATOM     27  N   UNL     1       2.239   5.044   7.445  0.00  0.00    +0.000 N 
ATOM     28  C   UNL     1       2.178   3.801   6.850  0.00  0.00    +0.000 A 
ATOM     29  O   UNL     1       3.158   3.321   6.287  0.00  0.00    +0.000 OA
ATOM     30  C   UNL     1       0.904   3.128   6.983  0.00  0.00    +0.000 A 
ATOM     31  H   UNL     1       3.112   5.542   7.364  0.00  0.00    +0.000 HD
ENDBRANCH  18  21
ENDBRANCH   1  17
TORSDOF 6
