REMARK  Name = 
REMARK  8 active torsions:
REMARK  status: ('A' for Active; 'I' for Inactive)
REMARK    1  A    between atoms: C_2  and  C_3
REMARK    2  A    between atoms: C_7  and  C_8
REMARK    3  A    between atoms: C_8  and  N_9
REMARK    4  A    between atoms: N_9  and  C_10
REMARK    5  A    between atoms: C_10  and  C_11
REMARK    6  A    between atoms: C_14  and  C_15
REMARK    7  A    between atoms: C_15  and  N_16
REMARK    8  A    between atoms: C_17  and  C_19
REMARK                            x       y       z     vdW  Elec       q    Type
REMARK                         _______ _______ _______ _____ _____    ______ ____
ROOT
ATOM      1  C   UNL     1       5.996   3.297   0.205  0.00  0.00    +0.000 A 
ATOM      2  C   UNL     1       6.870   4.390   0.313  0.00  0.00    +0.000 A 
ATOM      3  C   UNL     1       8.249   4.204   0.443  0.00  0.00    +0.000 A 
ATOM      4  C   UNL     1       8.792   2.914   0.469  0.00  0.00    +0.000 A 
ATOM      5  C   UNL     1       7.918   1.819   0.405  0.00  0.00    +0.000 A 
ATOM      6  C   UNL     1       6.537   2.006   0.264  0.00  0.00    +0.000 A 
ENDROOT
BRANCH   1   7
ATOM      7  C   UNL     1       4.507   3.530   0.056  0.00  0.00    +0.000 C 
BRANCH   7   8
ATOM      8  N   UNL     1       4.213   4.311  -1.146  0.00  0.00    +0.000 NA
ATOM      9  H   UNL     1       4.710   5.198  -1.100  0.00  0.00    +0.000 HD
BRANCH   8  10
ATOM     10  C   UNL     1       2.788   4.592  -1.293  0.00  0.00    +0.000 C 
BRANCH  10  15
ATOM     11  C   UNL     1       2.694   5.567  -4.983  0.00  0.00    +0.000 A 
ATOM     12  C   UNL     1       2.070   6.814  -4.935  0.00  0.00    +0.000 A 
ATOM     13  C   UNL     1       1.690   7.356  -3.708  0.00  0.00    +0.000 A 
ATOM     14  C   UNL     1       1.929   6.651  -2.525  0.00  0.00    +0.000 A 
ATOM     15  C   UNL     1       2.539   5.388  -2.558  0.00  0.00    +0.000 A 
ATOM     16  C   UNL     1       2.920   4.856  -3.801  0.00  0.00    +0.000 A 
BRANCH  11  18
ATOM     17  N   UNL     1       3.423   4.571  -7.262  0.00  0.00    +0.000 NA
ATOM     18  C   UNL     1       3.100   5.013  -6.242  0.00  0.00    +0.000 C 
ENDBRANCH  11  18
ENDBRANCH  10  15
ENDBRANCH   8  10
ENDBRANCH   7   8
ENDBRANCH   1   7
BRANCH   4  19
ATOM     19  C   UNL     1      10.280   2.682   0.571  0.00  0.00    +0.000 C 
BRANCH  19  20
ATOM     20  N   UNL     1      10.710   2.577   1.937  0.00  0.00    +0.000 N 
ATOM     21  C   UNL     1      12.029   2.374   2.269  0.00  0.00    +0.000 C 
ATOM     22  O   UNL     1      12.918   2.292   1.428  0.00  0.00    +0.000 OA
ATOM     23  H   UNL     1      10.000   2.323   2.615  0.00  0.00    +0.000 HD
BRANCH  21  24
ATOM     24  C   UNL     1      12.317   2.333   3.708  0.00  0.00    +0.000 A 
ATOM     25  C   UNL     1      13.563   2.717   4.183  0.00  0.00    +0.000 A 
ATOM     26  S   UNL     1      13.695   2.641   5.883  0.00  0.00    +0.000 S 
ATOM     27  C   UNL     1      12.105   2.053   6.037  0.00  0.00    +0.000 A 
ATOM     28  N   UNL     1      11.583   1.743   7.255  0.00  0.00    +0.000 NA
ATOM     29  C   UNL     1      10.373   1.291   7.219  0.00  0.00    +0.000 A 
ATOM     30  N   UNL     1       9.633   1.130   6.077  0.00  0.00    +0.000 N 
ATOM     31  C   UNL     1      10.104   1.461   4.832  0.00  0.00    +0.000 A 
ATOM     32  O   UNL     1       9.391   1.366   3.839  0.00  0.00    +0.000 OA
ATOM     33  C   UNL     1      11.472   1.947   4.812  0.00  0.00    +0.000 A 
ATOM     34  H   UNL     1       8.682   0.794   6.116  0.00  0.00    +0.000 HD
ENDBRANCH  21  24
ENDBRANCH  19  20
ENDBRANCH   4  19
TORSDOF 8
