REMARK  Name = 
REMARK  9 active torsions:
REMARK  status: ('A' for Active; 'I' for Inactive)
REMARK    1  A    between atoms: C_1  and  C_2
REMARK    2  A    between atoms: C_2  and  N_3
REMARK    3  A    between atoms: C_4  and  C_6
REMARK    4  A    between atoms: C_9  and  N_10
REMARK    5  A    between atoms: N_10  and  C_11
REMARK    6  A    between atoms: C_11  and  C_12
REMARK    7  A    between atoms: C_12  and  C_13
REMARK    8  A    between atoms: C_12  and  C_14
REMARK    9  A    between atoms: C_12  and  C_15
REMARK                            x       y       z     vdW  Elec       q    Type
REMARK                         _______ _______ _______ _____ _____    ______ ____
ROOT
ATOM      1  C   UNL     1       4.953   3.058   0.169  0.00  0.00    +0.000 A 
ATOM      2  C   UNL     1       4.226   4.041   0.839  0.00  0.00    +0.000 A 
ATOM      3  C   UNL     1       4.757   5.330   0.991  0.00  0.00    +0.000 A 
ATOM      4  C   UNL     1       6.005   5.673   0.459  0.00  0.00    +0.000 A 
ATOM      5  C   UNL     1       6.727   4.671  -0.205  0.00  0.00    +0.000 A 
ATOM      6  C   UNL     1       6.215   3.376  -0.347  0.00  0.00    +0.000 A 
ENDROOT
BRANCH   1   8
ATOM      7  N   UNL     1       3.100   1.473   0.056  0.00  0.00    +0.000 N 
ATOM      8  C   UNL     1       4.471   1.656   0.046  0.00  0.00    +0.000 C 
ATOM      9  O   UNL     1       5.270   0.736  -0.074  0.00  0.00    +0.000 OA
ATOM     10  H   UNL     1       2.492   2.274  -0.043  0.00  0.00    +0.000 HD
BRANCH   7  12
ATOM     11  C   UNL     1       2.314  -0.242  -1.515  0.00  0.00    +0.000 C 
ATOM     12  C   UNL     1       2.515   0.155  -0.065  0.00  0.00    +0.000 C 
ENDBRANCH   7  12
ENDBRANCH   1   8
BRANCH   4  13
ATOM     13  N   UNL     1       6.625   6.910   0.659  0.00  0.00    +0.000 N 
ATOM     14  H   UNL     1       7.120   7.214  -0.174  0.00  0.00    +0.000 HD
BRANCH  13  15
ATOM     15  C   UNL     1       5.930   7.972   1.403  0.00  0.00    +0.000 C 
BRANCH  15  16
ATOM     16  C   UNL     1       6.746   9.299   1.512  0.00  0.00    +0.000 C 
ATOM     17  C   UNL     1       8.104   9.016   2.188  0.00  0.00    +0.000 C 
ATOM     18  C   UNL     1       6.972   9.884   0.102  0.00  0.00    +0.000 C 
BRANCH  16  19
ATOM     19  C   UNL     1       5.957  10.325   2.350  0.00  0.00    +0.000 A 
ATOM     20  C   UNL     1       6.473  11.598   2.616  0.00  0.00    +0.000 A 
ATOM     21  C   UNL     1       5.715  12.509   3.349  0.00  0.00    +0.000 A 
ATOM     22  C   UNL     1       4.461  12.137   3.809  0.00  0.00    +0.000 A 
ATOM     23  C   UNL     1       4.017  10.862   3.516  0.00  0.00    +0.000 A 
ATOM     24  N   UNL     1       4.730   9.962   2.801  0.00  0.00    +0.000 NA
ENDBRANCH  16  19
ENDBRANCH  15  16
ENDBRANCH  13  15
ENDBRANCH   4  13
TORSDOF 6
