REMARK  Name = 
REMARK  7 active torsions:
REMARK  status: ('A' for Active; 'I' for Inactive)
REMARK    1  A    between atoms: C_1  and  C_2
REMARK    2  A    between atoms: C_2  and  C_3
REMARK    3  A    between atoms: C_6  and  C_7
REMARK    4  A    between atoms: C_7  and  C_8
REMARK    5  A    between atoms: C_7  and  N_9
REMARK    6  A    between atoms: N_9  and  C_10
REMARK    7  A    between atoms: C_13  and  C_14
REMARK                            x       y       z     vdW  Elec       q    Type
REMARK                         _______ _______ _______ _____ _____    ______ ____
ROOT
ATOM      1  N   UNL     1       3.151   5.723  -3.144  0.00  0.00    +0.000 N 
ATOM      2  H   UNL     1       2.738   5.651  -2.212  0.00  0.00    +0.000 HD
ENDROOT
BRANCH   1   3
ATOM      3  C   UNL     1       3.558   7.026  -3.418  0.00  0.00    +0.000 A 
ATOM      4  C   UNL     1       4.443   7.414  -4.411  0.00  0.00    +0.000 A 
ATOM      5  N   UNL     1       4.765   8.692  -4.717  0.00  0.00    +0.000 NA
ATOM      6  C   UNL     1       4.131   9.639  -3.989  0.00  0.00    +0.000 A 
ATOM      7  N   UNL     1       3.226   9.409  -3.024  0.00  0.00    +0.000 NA
ATOM      8  C   UNL     1       2.956   8.109  -2.784  0.00  0.00    +0.000 A 
BRANCH   6   9
ATOM      9  C   UNL     1       4.481  11.076  -4.310  0.00  0.00    +0.000 C 
ATOM     10  N   UNL     1       5.391  11.246  -5.329  0.00  0.00    +0.000 N 
ATOM     11  O   UNL     1       4.013  12.046  -3.729  0.00  0.00    +0.000 OA
ATOM     12  H   UNL     1       5.769  10.440  -5.813  0.00  0.00    +0.000 HD
ATOM     13  H   UNL     1       5.659  12.182  -5.595  0.00  0.00    +0.000 HD
ENDBRANCH   6   9
ENDBRANCH   1   3
BRANCH   1  14
ATOM     14  C   UNL     1       4.006   4.561  -3.433  0.00  0.00    +0.000 C 
ATOM     15  C   UNL     1       3.793   4.053  -4.861  0.00  0.00    +0.000 C 
BRANCH  14  19
ATOM     16  C   UNL     1       2.994   1.562  -0.448  0.00  0.00    +0.000 A 
ATOM     17  C   UNL     1       4.290   2.087  -0.523  0.00  0.00    +0.000 A 
ATOM     18  C   UNL     1       4.621   3.031  -1.500  0.00  0.00    +0.000 A 
ATOM     19  C   UNL     1       3.662   3.469  -2.424  0.00  0.00    +0.000 A 
ATOM     20  C   UNL     1       2.372   2.915  -2.363  0.00  0.00    +0.000 A 
ATOM     21  C   UNL     1       2.041   1.975  -1.385  0.00  0.00    +0.000 A 
BRANCH  16  23
ATOM     22  C   UNL     1       2.127   1.374   1.892  0.00  0.00    +0.000 C 
ATOM     23  C   UNL     1       2.612   0.617   0.663  0.00  0.00    +0.000 C 
ENDBRANCH  16  23
ENDBRANCH  14  19
ENDBRANCH   1  14
TORSDOF 5
