REMARK  Name = 
REMARK  4 active torsions:
REMARK  status: ('A' for Active; 'I' for Inactive)
REMARK    1  A    between atoms: C_2  and  C_4
REMARK    2  A    between atoms: N_8  and  C_9
REMARK    3  A    between atoms: C_9  and  C_10
REMARK    4  A    between atoms: C_14  and  N_15
REMARK                            x       y       z     vdW  Elec       q    Type
REMARK                         _______ _______ _______ _____ _____    ______ ____
ROOT
ATOM      1  C   UNL     1       7.888  -2.232  -2.079  0.00  0.00    +0.000 A 
ATOM      2  C   UNL     1       7.565  -3.523  -2.483  0.00  0.00    +0.000 A 
ATOM      3  C   UNL     1       6.810  -4.331  -1.632  0.00  0.00    +0.000 A 
ATOM      4  C   UNL     1       6.393  -3.840  -0.399  0.00  0.00    +0.000 A 
ATOM      5  N   UNL     1       5.619  -4.542   0.478  0.00  0.00    +0.000 N 
ATOM      6  N   UNL     1       6.723  -2.599   0.009  0.00  0.00    +0.000 NA
ATOM      7  C   UNL     1       7.463  -1.825  -0.826  0.00  0.00    +0.000 A 
ATOM      8  H   UNL     1       5.474  -4.068   1.359  0.00  0.00    +0.000 HD
ENDROOT
BRANCH   1  10
ATOM      9  N   UNL     1       8.624  -1.485  -4.269  0.00  0.00    +0.000 N 
ATOM     10  C   UNL     1       8.670  -1.300  -2.914  0.00  0.00    +0.000 C 
ATOM     11  O   UNL     1       9.304  -0.376  -2.422  0.00  0.00    +0.000 OA
ATOM     12  H   UNL     1       9.075  -0.777  -4.834  0.00  0.00    +0.000 HD
ATOM     13  H   UNL     1       7.923  -2.061  -4.715  0.00  0.00    +0.000 HD
ENDBRANCH   1  10
BRANCH   5  14
ATOM     14  C   UNL     1       5.177  -5.905   0.341  0.00  0.00    +0.000 C 
BRANCH  14  15
ATOM     15  C   UNL     1       6.147  -6.936   0.867  0.00  0.00    +0.000 A 
ATOM     16  C   UNL     1       7.371  -6.640   1.472  0.00  0.00    +0.000 A 
ATOM     17  C   UNL     1       8.183  -7.667   1.957  0.00  0.00    +0.000 A 
ATOM     18  C   UNL     1       7.778  -9.003   1.855  0.00  0.00    +0.000 A 
ATOM     19  C   UNL     1       6.557  -9.338   1.265  0.00  0.00    +0.000 A 
ATOM     20  C   UNL     1       5.772  -8.286   0.762  0.00  0.00    +0.000 A 
BRANCH  19  21
ATOM     21  N   UNL     1       6.081 -10.641   1.134  0.00  0.00    +0.000 N 
ATOM     22  C   UNL     1       7.023 -11.762   1.132  0.00  0.00    +0.000 C 
ATOM     23  C   UNL     1       6.357 -12.939   0.416  0.00  0.00    +0.000 C 
ATOM     24  C   UNL     1       5.007 -13.295   1.042  0.00  0.00    +0.000 C 
ATOM     25  C   UNL     1       4.108 -12.067   1.187  0.00  0.00    +0.000 C 
ATOM     26  C   UNL     1       4.839 -10.916   1.875  0.00  0.00    +0.000 C 
ENDBRANCH  19  21
ENDBRANCH  14  15
ENDBRANCH   5  14
TORSDOF 4
