REMARK  Name = 
REMARK  4 active torsions:
REMARK  status: ('A' for Active; 'I' for Inactive)
REMARK    1  A    between atoms: O_1  and  C_2
REMARK    2  A    between atoms: C_2  and  C_3
REMARK    3  A    between atoms: C_6  and  C_7
REMARK    4  A    between atoms: C_7  and  N_8
REMARK                            x       y       z     vdW  Elec       q    Type
REMARK                         _______ _______ _______ _____ _____    ______ ____
ROOT
ATOM      1  C   UNL     1       3.905  -5.755   1.144  0.00  0.00    +0.000 C 
ENDROOT
BRANCH   1   2
ATOM      2  N   UNL     1       5.215  -6.396   1.145  0.00  0.00    +0.000 N 
ATOM      3  C   UNL     1       6.171  -6.256   0.172  0.00  0.00    +0.000 A 
ATOM      4  N   UNL     1       6.973  -7.291   0.117  0.00  0.00    +0.000 NA
ATOM      5  C   UNL     1       6.548  -8.128   1.120  0.00  0.00    +0.000 A 
ATOM      6  C   UNL     1       6.980  -9.422   1.446  0.00  0.00    +0.000 A 
ATOM      7  C   UNL     1       6.381 -10.081   2.525  0.00  0.00    +0.000 A 
ATOM      8  C   UNL     1       5.403  -9.447   3.294  0.00  0.00    +0.000 A 
ATOM      9  C   UNL     1       4.948  -8.162   2.975  0.00  0.00    +0.000 A 
ATOM     10  C   UNL     1       5.515  -7.546   1.852  0.00  0.00    +0.000 A 
ENDBRANCH   1   2
BRANCH   1  14
ATOM     11  C   UNL     1       3.747  -1.472   0.495  0.00  0.00    +0.000 A 
ATOM     12  C   UNL     1       3.687  -2.361  -0.586  0.00  0.00    +0.000 A 
ATOM     13  C   UNL     1       3.759  -3.742  -0.380  0.00  0.00    +0.000 A 
ATOM     14  C   UNL     1       3.910  -4.266   0.912  0.00  0.00    +0.000 A 
ATOM     15  C   UNL     1       3.996  -3.379   1.992  0.00  0.00    +0.000 A 
ATOM     16  C   UNL     1       3.913  -1.998   1.785  0.00  0.00    +0.000 A 
BRANCH  11  17
ATOM     17  C   UNL     1       3.708   0.020   0.295  0.00  0.00    +0.000 C 
BRANCH  17  18
ATOM     18  O   UNL     1       2.901   0.370  -0.825  0.00  0.00    +0.000 OA
ATOM     19  H   UNL     1       2.914   1.338  -0.885  0.00  0.00    +0.000 HD
ENDBRANCH  17  18
ENDBRANCH  11  17
ENDBRANCH   1  14
TORSDOF 4
