REMARK  Name = 
REMARK  6 active torsions:
REMARK  status: ('A' for Active; 'I' for Inactive)
REMARK    1  A    between atoms: C_2  and  C_3
REMARK    2  A    between atoms: C_6  and  C_7
REMARK    3  A    between atoms: C_11  and  C_12
REMARK    4  A    between atoms: C_12  and  N_13
REMARK    5  A    between atoms: N_13  and  C_14
REMARK    6  A    between atoms: C_17  and  C_18
REMARK                            x       y       z     vdW  Elec       q    Type
REMARK                         _______ _______ _______ _____ _____    ______ ____
ROOT
ATOM      1  C   UNL     1       6.357   1.198   2.426  0.00  0.00    +0.000 C 
ATOM      2  C   UNL     1       7.355   2.341   2.391  0.00  0.00    +0.000 C 
ATOM      3  C   UNL     1       7.831   0.985   2.780  0.00  0.00    +0.000 C 
ENDROOT
BRANCH   1   8
ATOM      4  C   UNL     1       5.988  -1.171  -0.448  0.00  0.00    +0.000 A 
ATOM      5  C   UNL     1       5.170  -0.486  -1.341  0.00  0.00    +0.000 A 
ATOM      6  C   UNL     1       4.701   0.776  -0.996  0.00  0.00    +0.000 A 
ATOM      7  C   UNL     1       5.069   1.327   0.226  0.00  0.00    +0.000 A 
ATOM      8  C   UNL     1       5.893   0.604   1.088  0.00  0.00    +0.000 A 
ATOM      9  N   UNL     1       6.324  -0.644   0.755  0.00  0.00    +0.000 NA
BRANCH   4  13
ATOM     10  C   UNL     1       7.713  -5.033  -1.280  0.00  0.00    +0.000 A 
ATOM     11  C   UNL     1       7.518  -4.116  -2.315  0.00  0.00    +0.000 A 
ATOM     12  C   UNL     1       6.954  -2.863  -2.046  0.00  0.00    +0.000 A 
ATOM     13  C   UNL     1       6.571  -2.497  -0.743  0.00  0.00    +0.000 A 
ATOM     14  C   UNL     1       6.790  -3.433   0.285  0.00  0.00    +0.000 A 
ATOM     15  C   UNL     1       7.351  -4.689   0.023  0.00  0.00    +0.000 A 
BRANCH  10  17
ATOM     16  N   UNL     1       8.756  -7.353  -1.787  0.00  0.00    +0.000 NA
ATOM     17  C   UNL     1       8.289  -6.314  -1.556  0.00  0.00    +0.000 C 
ENDBRANCH  10  17
ENDBRANCH   4  13
ENDBRANCH   1   8
BRANCH   1  18
ATOM     18  N   UNL     1       5.421   0.972   3.545  0.00  0.00    +0.000 N 
ATOM     19  H   UNL     1       5.141   0.002   3.685  0.00  0.00    +0.000 HD
BRANCH  18  20
ATOM     20  C   UNL     1       4.305   1.763   3.831  0.00  0.00    +0.000 A 
ATOM     21  N   UNL     1       3.269   1.091   4.391  0.00  0.00    +0.000 NA
ATOM     22  C   UNL     1       2.189   1.806   4.807  0.00  0.00    +0.000 A 
ATOM     23  C   UNL     1       2.101   3.188   4.725  0.00  0.00    +0.000 A 
ATOM     24  C   UNL     1       3.150   3.869   4.120  0.00  0.00    +0.000 A 
ATOM     25  C   UNL     1       4.248   3.149   3.664  0.00  0.00    +0.000 A 
ATOM     26  F   UNL     1       5.234   3.845   3.084  0.00  0.00    +0.000 F 
BRANCH  23  27
ATOM     27  C   UNL     1       0.910   3.875   5.259  0.00  0.00    +0.000 C 
ATOM     28  N   UNL     1       1.065   5.173   5.661  0.00  0.00    +0.000 N 
ATOM     29  O   UNL     1      -0.161   3.297   5.368  0.00  0.00    +0.000 OA
ATOM     30  H   UNL     1       1.966   5.607   5.803  0.00  0.00    +0.000 HD
ATOM     31  H   UNL     1       0.268   5.605   6.111  0.00  0.00    +0.000 HD
ENDBRANCH  23  27
ENDBRANCH  18  20
ENDBRANCH   1  18
TORSDOF 6
