REMARK  Name = 
REMARK  3 active torsions:
REMARK  status: ('A' for Active; 'I' for Inactive)
REMARK    1  A    between atoms: C_2  and  C_4
REMARK    2  A    between atoms: N_8  and  C_9
REMARK    3  A    between atoms: C_9  and  C_10
REMARK                            x       y       z     vdW  Elec       q    Type
REMARK                         _______ _______ _______ _____ _____    ______ ____
ROOT
ATOM      1  C   UNL     1       3.534   3.462  -0.806  0.00  0.00    +0.000 A 
ATOM      2  C   UNL     1       2.742   3.812   0.285  0.00  0.00    +0.000 A 
ATOM      3  C   UNL     1       3.311   3.855   1.558  0.00  0.00    +0.000 A 
ATOM      4  C   UNL     1       4.654   3.551   1.721  0.00  0.00    +0.000 A 
ATOM      5  N   UNL     1       5.270   3.468   2.972  0.00  0.00    +0.000 N 
ATOM      6  N   UNL     1       5.434   3.210   0.670  0.00  0.00    +0.000 NA
ATOM      7  C   UNL     1       4.863   3.163  -0.564  0.00  0.00    +0.000 A 
ATOM      8  H   UNL     1       6.254   3.290   2.779  0.00  0.00    +0.000 HD
ENDROOT
BRANCH   1  10
ATOM      9  N   UNL     1       1.891   4.101  -2.466  0.00  0.00    +0.000 N 
ATOM     10  C   UNL     1       2.985   3.334  -2.171  0.00  0.00    +0.000 C 
ATOM     11  O   UNL     1       3.488   2.593  -2.997  0.00  0.00    +0.000 OA
ATOM     12  H   UNL     1       1.537   4.051  -3.412  0.00  0.00    +0.000 HD
ATOM     13  H   UNL     1       1.600   4.885  -1.899  0.00  0.00    +0.000 HD
ENDBRANCH   1  10
BRANCH   5  14
ATOM     14  C   UNL     1       4.991   4.348   4.124  0.00  0.00    +0.000 C 
ATOM     15  C   UNL     1       4.881   3.592   5.444  0.00  0.00    +0.000 C 
ATOM     16  C   UNL     1       3.701   4.336   4.923  0.00  0.00    +0.000 C 
BRANCH  14  17
ATOM     17  C   UNL     1       5.772   5.653   4.083  0.00  0.00    +0.000 A 
ATOM     18  C   UNL     1       7.052   5.787   4.640  0.00  0.00    +0.000 A 
ATOM     19  C   UNL     1       7.770   6.974   4.502  0.00  0.00    +0.000 A 
ATOM     20  C   UNL     1       7.182   8.019   3.814  0.00  0.00    +0.000 A 
ATOM     21  N   UNL     1       5.943   7.961   3.286  0.00  0.00    +0.000 NA
ATOM     22  C   UNL     1       5.280   6.787   3.431  0.00  0.00    +0.000 A 
ENDBRANCH  14  17
ENDBRANCH   5  14
TORSDOF 3
