REMARK  Name = 
REMARK  9 active torsions:
REMARK  status: ('A' for Active; 'I' for Inactive)
REMARK    1  A    between atoms: C_1  and  N_2
REMARK    2  A    between atoms: C_6  and  C_7
REMARK    3  A    between atoms: N_9  and  C_10
REMARK    4  A    between atoms: C_10  and  C_11
REMARK    5  A    between atoms: C_10  and  C_13
REMARK    6  A    between atoms: C_11  and  N_12
REMARK    7  A    between atoms: C_16  and  C_17
REMARK    8  A    between atoms: C_17  and  N_18
REMARK    9  A    between atoms: C_19  and  C_21
REMARK                            x       y       z     vdW  Elec       q    Type
REMARK                         _______ _______ _______ _____ _____    ______ ____
ROOT
ATOM      1  C   UNL     1      -3.781  -4.577   0.333  0.00  0.00    +0.000 A 
ATOM      2  C   UNL     1      -4.414  -5.836   0.484  0.00  0.00    +0.000 A 
ATOM      3  C   UNL     1      -5.811  -5.978   0.514  0.00  0.00    +0.000 A 
ATOM      4  C   UNL     1      -6.634  -4.857   0.415  0.00  0.00    +0.000 A 
ATOM      5  C   UNL     1      -6.024  -3.600   0.284  0.00  0.00    +0.000 A 
ATOM      6  C   UNL     1      -4.623  -3.462   0.246  0.00  0.00    +0.000 A 
ENDROOT
BRANCH   1   7
ATOM      7  C   UNL     1      -2.238  -4.452   0.348  0.00  0.00    +0.000 C 
BRANCH   7  10
ATOM      8  C   UNL     1      -0.506  -2.609   0.100  0.00  0.00    +0.000 C 
ATOM      9  O   UNL     1       0.064  -2.921   1.144  0.00  0.00    +0.000 OA
ATOM     10  N   UNL     1      -1.709  -3.213  -0.283  0.00  0.00    +0.000 N 
ATOM     11  H   UNL     1      -2.073  -3.009  -1.198  0.00  0.00    +0.000 HD
BRANCH   8  17
ATOM     12  C   UNL     1       2.024  -0.630   0.496  0.00  0.00    +0.000 C 
ATOM     13  N   UNL     1       1.178  -0.834  -0.661  0.00  0.00    +0.000 N 
ATOM     14  N   UNL     1       1.510  -0.118  -1.760  0.00  0.00    +0.000 NA
ATOM     15  C   UNL     1       0.547  -0.388  -2.632  0.00  0.00    +0.000 A 
ATOM     16  C   UNL     1      -0.389  -1.293  -2.113  0.00  0.00    +0.000 A 
ATOM     17  C   UNL     1       0.049  -1.630  -0.835  0.00  0.00    +0.000 A 
ENDBRANCH   8  17
ENDBRANCH   7  10
BRANCH   7  18
ATOM     18  C   UNL     1      -1.549  -5.686  -0.332  0.00  0.00    +0.000 C 
BRANCH  18  19
ATOM     19  N   UNL     1      -2.086  -6.013  -1.662  0.00  0.00    +0.000 NA
ATOM     20  H   UNL     1      -2.268  -5.170  -2.199  0.00  0.00    +0.000 HD
ATOM     21  H   UNL     1      -1.430  -6.588  -2.185  0.00  0.00    +0.000 HD
ENDBRANCH  18  19
ENDBRANCH   7  18
ENDBRANCH   1   7
BRANCH   4  22
ATOM     22  C   UNL     1      -8.128  -4.965   0.616  0.00  0.00    +0.000 C 
BRANCH  22  23
ATOM     23  N   UNL     1      -8.415  -4.836   2.023  0.00  0.00    +0.000 N 
ATOM     24  C   UNL     1      -9.673  -4.884   2.554  0.00  0.00    +0.000 C 
ATOM     25  O   UNL     1     -10.673  -5.069   1.866  0.00  0.00    +0.000 OA
ATOM     26  H   UNL     1      -7.659  -4.465   2.588  0.00  0.00    +0.000 HD
BRANCH  24  27
ATOM     27  C   UNL     1      -9.744  -4.773   4.018  0.00  0.00    +0.000 A 
ATOM     28  C   UNL     1     -10.838  -5.287   4.700  0.00  0.00    +0.000 A 
ATOM     29  S   UNL     1     -10.707  -5.160   6.396  0.00  0.00    +0.000 S 
ATOM     30  C   UNL     1      -9.212  -4.359   6.275  0.00  0.00    +0.000 A 
ATOM     31  N   UNL     1      -8.547  -3.956   7.388  0.00  0.00    +0.000 NA
ATOM     32  C   UNL     1      -7.427  -3.350   7.164  0.00  0.00    +0.000 A 
ATOM     33  N   UNL     1      -6.919  -3.106   5.909  0.00  0.00    +0.000 N 
ATOM     34  C   UNL     1      -7.556  -3.502   4.752  0.00  0.00    +0.000 A 
ATOM     35  O   UNL     1      -7.067  -3.273   3.651  0.00  0.00    +0.000 OA
ATOM     36  C   UNL     1      -8.811  -4.197   4.962  0.00  0.00    +0.000 A 
ATOM     37  H   UNL     1      -6.039  -2.627   5.785  0.00  0.00    +0.000 HD
ENDBRANCH  24  27
ENDBRANCH  22  23
ENDBRANCH   4  22
TORSDOF 8
