REMARK  Name = 
REMARK  10 active torsions:
REMARK  status: ('A' for Active; 'I' for Inactive)
REMARK    1  A    between atoms: N_1  and  C_2
REMARK    2  A    between atoms: C_2  and  C_3
REMARK    3  A    between atoms: C_3  and  N_4
REMARK    4  A    between atoms: N_4  and  C_5
REMARK    5  A    between atoms: C_5  and  C_6
REMARK    6  A    between atoms: C_9  and  C_10
REMARK    7  A    between atoms: C_10  and  N_11
REMARK    8  A    between atoms: C_12  and  C_14
REMARK    9  A    between atoms: C_25  and  C_26
REMARK   10  A    between atoms: C_26  and  N_27
REMARK                            x       y       z     vdW  Elec       q    Type
REMARK                         _______ _______ _______ _____ _____    ______ ____
ROOT
ATOM      1  C   UNL     1       6.412   2.184  -1.773  0.00  0.00    +0.000 A 
ATOM      2  C   UNL     1       7.097   2.308  -3.000  0.00  0.00    +0.000 A 
ATOM      3  C   UNL     1       8.489   2.372  -3.054  0.00  0.00    +0.000 A 
ATOM      4  C   UNL     1       9.239   2.306  -1.880  0.00  0.00    +0.000 A 
ATOM      5  C   UNL     1       8.566   2.149  -0.658  0.00  0.00    +0.000 A 
ATOM      6  C   UNL     1       7.159   2.095  -0.578  0.00  0.00    +0.000 A 
ENDROOT
BRANCH   1   7
ATOM      7  C   UNL     1       4.898   2.168  -1.824  0.00  0.00    +0.000 C 
BRANCH   7   8
ATOM      8  N   UNL     1       4.248   3.265  -1.100  0.00  0.00    +0.000 NA
ATOM      9  H   UNL     1       3.244   3.191  -1.268  0.00  0.00    +0.000 HD
BRANCH   8  10
ATOM     10  C   UNL     1       4.668   4.592  -1.576  0.00  0.00    +0.000 C 
BRANCH  10  11
ATOM     11  C   UNL     1       3.949   5.705  -0.790  0.00  0.00    +0.000 C 
BRANCH  11  12
ATOM     12  N   UNL     1       2.488   5.617  -0.898  0.00  0.00    +0.000 NA
ATOM     13  H   UNL     1       2.080   6.389  -0.370  0.00  0.00    +0.000 HD
ATOM     14  H   UNL     1       2.189   4.774  -0.409  0.00  0.00    +0.000 HD
ENDBRANCH  11  12
ENDBRANCH  10  11
ENDBRANCH   8  10
ENDBRANCH   7   8
ENDBRANCH   1   7
BRANCH   4  15
ATOM     15  C   UNL     1      10.742   2.388  -1.920  0.00  0.00    +0.000 C 
BRANCH  15  16
ATOM     16  N   UNL     1      11.228   3.566  -1.240  0.00  0.00    +0.000 N 
ATOM     17  C   UNL     1      11.714   3.519   0.041  0.00  0.00    +0.000 C 
ATOM     18  O   UNL     1      11.791   2.467   0.670  0.00  0.00    +0.000 OA
ATOM     19  H   UNL     1      11.000   4.461  -1.660  0.00  0.00    +0.000 HD
BRANCH  17  20
ATOM     20  C   UNL     1      12.197   4.780   0.619  0.00  0.00    +0.000 A 
ATOM     21  C   UNL     1      13.037   4.735   1.725  0.00  0.00    +0.000 A 
ATOM     22  S   UNL     1      13.557   6.266   2.257  0.00  0.00    +0.000 S 
ATOM     23  C   UNL     1      12.632   7.051   1.066  0.00  0.00    +0.000 A 
ATOM     24  N   UNL     1      12.615   8.412   0.987  0.00  0.00    +0.000 NA
ATOM     25  C   UNL     1      11.840   8.881   0.067  0.00  0.00    +0.000 A 
ATOM     26  N   UNL     1      11.098   8.115  -0.793  0.00  0.00    +0.000 N 
ATOM     27  C   UNL     1      11.130   6.735  -0.790  0.00  0.00    +0.000 A 
ATOM     28  O   UNL     1      10.521   6.082  -1.632  0.00  0.00    +0.000 OA
ATOM     29  C   UNL     1      11.956   6.156   0.254  0.00  0.00    +0.000 A 
ATOM     30  H   UNL     1      10.530   8.542  -1.509  0.00  0.00    +0.000 HD
ENDBRANCH  17  20
ENDBRANCH  15  16
ENDBRANCH   4  15
BRANCH   6  31
ATOM     31  C   UNL     1       6.546   1.894   0.800  0.00  0.00    +0.000 C 
BRANCH  31  32
ATOM     32  N   UNL     1       6.624   0.491   1.136  0.00  0.00    +0.000 N 
ATOM     33  C   UNL     1       6.035   0.046   2.296  0.00  0.00    +0.000 A 
ATOM     34  N   UNL     1       5.707   0.889   3.289  0.00  0.00    +0.000 NA
ATOM     35  C   UNL     1       5.117   0.347   4.382  0.00  0.00    +0.000 A 
ATOM     36  C   UNL     1       4.855  -0.994   4.525  0.00  0.00    +0.000 A 
ATOM     37 CL   UNL     1       4.082  -1.645   5.903  0.00  0.00    +0.000 Cl
ATOM     38  C   UNL     1       5.246  -1.773   3.467  0.00  0.00    +0.000 A 
ATOM     39  N   UNL     1       5.816  -1.278   2.347  0.00  0.00    +0.000 NA
ATOM     40  H   UNL     1       6.405  -0.160   0.394  0.00  0.00    +0.000 HD
ENDBRANCH  31  32
ENDBRANCH   6  31
TORSDOF 10
