REMARK  Name = 
REMARK  6 active torsions:
REMARK  status: ('A' for Active; 'I' for Inactive)
REMARK    1  A    between atoms: C_2  and  C_20
REMARK    2  A    between atoms: N_3  and  C_4
REMARK    3  A    between atoms: C_4  and  C_5
REMARK    4  A    between atoms: C_8  and  C_9
REMARK    5  A    between atoms: C_9  and  C_10
REMARK    6  A    between atoms: C_10  and  N_11
REMARK                            x       y       z     vdW  Elec       q    Type
REMARK                         _______ _______ _______ _____ _____    ______ ____
ROOT
ATOM      1  C   UNL     1       2.205  -1.771   1.588  0.00  0.00    +0.000 C 
ENDROOT
BRANCH   1   2
ATOM      2  C   UNL     1       3.124  -2.619   2.427  0.00  0.00    +0.000 A 
ATOM      3  C   UNL     1       4.070  -2.010   3.256  0.00  0.00    +0.000 A 
ATOM      4  C   UNL     1       4.896  -2.778   4.078  0.00  0.00    +0.000 A 
ATOM      5  C   UNL     1       4.809  -4.178   4.088  0.00  0.00    +0.000 A 
ATOM      6  C   UNL     1       3.884  -4.787   3.227  0.00  0.00    +0.000 A 
ATOM      7  C   UNL     1       3.056  -4.017   2.400  0.00  0.00    +0.000 A 
BRANCH   5   8
ATOM      8  C   UNL     1       5.661  -5.056   4.989  0.00  0.00    +0.000 C 
BRANCH   8   9
ATOM      9  C   UNL     1       6.638  -4.294   5.891  0.00  0.00    +0.000 C 
BRANCH   9  10
ATOM     10  N   UNL     1       7.429  -5.193   6.738  0.00  0.00    +0.000 N 
ATOM     11  C   UNL     1       8.334  -4.473   7.554  0.00  0.00    +0.000 A 
ATOM     12  C   UNL     1       9.184  -5.153   8.430  0.00  0.00    +0.000 A 
ATOM     13  N   UNL     1      10.083  -4.539   9.243  0.00  0.00    +0.000 NA
ATOM     14  C   UNL     1      10.096  -3.192   9.161  0.00  0.00    +0.000 A 
ATOM     15  C   UNL     1       9.256  -2.500   8.311  0.00  0.00    +0.000 A 
ATOM     16  N   UNL     1       8.369  -3.121   7.502  0.00  0.00    +0.000 NA
ATOM     17  H   UNL     1       7.955  -5.872   6.194  0.00  0.00    +0.000 HD
ENDBRANCH   9  10
ENDBRANCH   8   9
ENDBRANCH   5   8
ENDBRANCH   1   2
BRANCH   1  20
ATOM     18  O   UNL     1       3.510   0.650   0.989  0.00  0.00    +0.000 OA
ATOM     19  C   UNL     1       3.460  -0.226   0.129  0.00  0.00    +0.000 C 
ATOM     20  N   UNL     1       2.808  -1.414   0.329  0.00  0.00    +0.000 N 
ATOM     21  H   UNL     1       2.916  -2.165  -0.344  0.00  0.00    +0.000 HD
BRANCH  19  22
ATOM     22  C   UNL     1       4.066  -0.026  -1.194  0.00  0.00    +0.000 A 
ATOM     23  C   UNL     1       4.316   1.262  -1.649  0.00  0.00    +0.000 A 
ATOM     24  S   UNL     1       5.052   1.314  -3.187  0.00  0.00    +0.000 S 
ATOM     25  C   UNL     1       5.099  -0.385  -3.280  0.00  0.00    +0.000 A 
ATOM     26  N   UNL     1       5.668  -1.011  -4.346  0.00  0.00    +0.000 NA
ATOM     27  C   UNL     1       5.676  -2.299  -4.265  0.00  0.00    +0.000 A 
ATOM     28  N   UNL     1       5.144  -3.019  -3.229  0.00  0.00    +0.000 N 
ATOM     29  C   UNL     1       4.477  -2.433  -2.181  0.00  0.00    +0.000 A 
ATOM     30  O   UNL     1       3.867  -3.110  -1.358  0.00  0.00    +0.000 OA
ATOM     31  C   UNL     1       4.512  -0.983  -2.180  0.00  0.00    +0.000 A 
ATOM     32  H   UNL     1       5.140  -4.027  -3.248  0.00  0.00    +0.000 HD
ENDBRANCH  19  22
ENDBRANCH   1  20
TORSDOF 6
