REMARK  Name = 
REMARK  8 active torsions:
REMARK  status: ('A' for Active; 'I' for Inactive)
REMARK    1  A    between atoms: C_2  and  C_21
REMARK    2  A    between atoms: N_3  and  C_4
REMARK    3  A    between atoms: C_4  and  C_5
REMARK    4  A    between atoms: C_8  and  C_9
REMARK    5  A    between atoms: C_9  and  C_10
REMARK    6  A    between atoms: C_10  and  O_11
REMARK    7  A    between atoms: C_10  and  C_12
REMARK    8  A    between atoms: C_12  and  C_13
REMARK                            x       y       z     vdW  Elec       q    Type
REMARK                         _______ _______ _______ _____ _____    ______ ____
ROOT
ATOM      1  C   UNL     1       3.239  -0.788   3.474  0.00  0.00    +0.000 A 
ATOM      2  C   UNL     1       3.919   0.263   4.087  0.00  0.00    +0.000 A 
ATOM      3  C   UNL     1       4.796  -0.001   5.133  0.00  0.00    +0.000 A 
ATOM      4  C   UNL     1       4.984  -1.319   5.546  0.00  0.00    +0.000 A 
ATOM      5  N   UNL     1       4.364  -2.363   4.945  0.00  0.00    +0.000 NA
ATOM      6  C   UNL     1       3.521  -2.074   3.923  0.00  0.00    +0.000 A 
ENDROOT
BRANCH   1   7
ATOM      7  C   UNL     1       2.265  -0.535   2.363  0.00  0.00    +0.000 C 
BRANCH   7  10
ATOM      8  O   UNL     1       3.159   1.730   0.950  0.00  0.00    +0.000 OA
ATOM      9  C   UNL     1       3.369   0.615   0.480  0.00  0.00    +0.000 C 
ATOM     10  N   UNL     1       2.912  -0.534   1.078  0.00  0.00    +0.000 N 
ATOM     11  H   UNL     1       3.245  -1.430   0.741  0.00  0.00    +0.000 HD
BRANCH   9  12
ATOM     12  C   UNL     1       4.082   0.438  -0.791  0.00  0.00    +0.000 A 
ATOM     13  C   UNL     1       4.148   1.493  -1.695  0.00  0.00    +0.000 A 
ATOM     14  S   UNL     1       5.016   1.122  -3.113  0.00  0.00    +0.000 S 
ATOM     15  C   UNL     1       5.374  -0.446  -2.552  0.00  0.00    +0.000 A 
ATOM     16  N   UNL     1       6.139  -1.294  -3.288  0.00  0.00    +0.000 NA
ATOM     17  C   UNL     1       6.371  -2.430  -2.723  0.00  0.00    +0.000 A 
ATOM     18  N   UNL     1       5.890  -2.804  -1.494  0.00  0.00    +0.000 N 
ATOM     19  C   UNL     1       5.036  -2.017  -0.755  0.00  0.00    +0.000 A 
ATOM     20  O   UNL     1       4.495  -2.443   0.255  0.00  0.00    +0.000 OA
ATOM     21  C   UNL     1       4.804  -0.696  -1.317  0.00  0.00    +0.000 A 
ATOM     22  H   UNL     1       6.075  -3.726  -1.124  0.00  0.00    +0.000 HD
ENDBRANCH   9  12
ENDBRANCH   7  10
ENDBRANCH   1   7
BRANCH   4  23
ATOM     23  C   UNL     1       5.933  -1.630   6.682  0.00  0.00    +0.000 C 
BRANCH  23  24
ATOM     24  C   UNL     1       7.371  -1.808   6.178  0.00  0.00    +0.000 C 
BRANCH  24  25
ATOM     25  O   UNL     1       7.834  -0.560   5.642  0.00  0.00    +0.000 OA
ATOM     26  H   UNL     1       8.091   0.015   6.384  0.00  0.00    +0.000 HD
ENDBRANCH  24  25
BRANCH  24  27
ATOM     27  C   UNL     1       8.309  -2.275   7.308  0.00  0.00    +0.000 C 
BRANCH  27  28
ATOM     28  C   UNL     1       9.730  -2.466   6.826  0.00  0.00    +0.000 A 
ATOM     29  C   UNL     1      10.034  -3.427   5.863  0.00  0.00    +0.000 A 
ATOM     30  C   UNL     1      11.336  -3.510   5.379  0.00  0.00    +0.000 A 
ATOM     31  C   UNL     1      12.304  -2.648   5.879  0.00  0.00    +0.000 A 
ATOM     32  C   UNL     1      11.927  -1.741   6.855  0.00  0.00    +0.000 A 
ATOM     33  N   UNL     1      10.669  -1.632   7.339  0.00  0.00    +0.000 NA
ENDBRANCH  27  28
ENDBRANCH  24  27
ENDBRANCH  23  24
ENDBRANCH   4  23
TORSDOF 8
