REMARK  Name = 
REMARK  5 active torsions:
REMARK  status: ('A' for Active; 'I' for Inactive)
REMARK    1  A    between atoms: N_1  and  C_2
REMARK    2  A    between atoms: C_2  and  C_3
REMARK    3  A    between atoms: C_6  and  O_7
REMARK    4  A    between atoms: O_7  and  C_8
REMARK    5  A    between atoms: C_8  and  C_9
REMARK                            x       y       z     vdW  Elec       q    Type
REMARK                         _______ _______ _______ _____ _____    ______ ____
ROOT
ATOM      1  C   UNL     1       1.118   1.697   1.793  0.00  0.00    +0.000 A 
ATOM      2  C   UNL     1       1.514   2.630   0.823  0.00  0.00    +0.000 A 
ATOM      3  C   UNL     1       2.403   3.658   1.140  0.00  0.00    +0.000 A 
ATOM      4  C   UNL     1       2.888   3.783   2.439  0.00  0.00    +0.000 A 
ATOM      5  C   UNL     1       2.534   2.838   3.402  0.00  0.00    +0.000 A 
ATOM      6  C   UNL     1       1.653   1.799   3.084  0.00  0.00    +0.000 A 
ENDROOT
BRANCH   1   7
ATOM      7  C   UNL     1       0.092   0.646   1.457  0.00  0.00    +0.000 C 
BRANCH   7   8
ATOM      8  N   UNL     1       0.481  -0.143   0.294  0.00  0.00    +0.000 NA
ATOM      9  H   UNL     1      -0.213  -0.872   0.139  0.00  0.00    +0.000 HD
ATOM     10  H   UNL     1       1.360  -0.615   0.501  0.00  0.00    +0.000 HD
ENDBRANCH   7   8
ENDBRANCH   1   7
BRANCH   4  11
ATOM     11  O   UNL     1       3.723   4.781   2.865  0.00  0.00    +0.000 OA
BRANCH  11  12
ATOM     12  C   UNL     1       3.602   6.020   2.157  0.00  0.00    +0.000 C 
BRANCH  12  13
ATOM     13  C   UNL     1       3.964   7.174   3.105  0.00  0.00    +0.000 C 
ATOM     14  C   UNL     1       3.027   7.173   4.325  0.00  0.00    +0.000 C 
ATOM     15  C   UNL     1       3.259   8.374   5.234  0.00  0.00    +0.000 C 
ATOM     16  C   UNL     1       3.148   9.682   4.461  0.00  0.00    +0.000 C 
ATOM     17  C   UNL     1       4.114   9.708   3.282  0.00  0.00    +0.000 C 
ATOM     18  C   UNL     1       3.902   8.514   2.355  0.00  0.00    +0.000 C 
ENDBRANCH  12  13
ENDBRANCH  11  12
ENDBRANCH   4  11
TORSDOF 5
