REMARK  Name = 
REMARK  6 active torsions:
REMARK  status: ('A' for Active; 'I' for Inactive)
REMARK    1  A    between atoms: C_2  and  C_25
REMARK    2  A    between atoms: N_3  and  C_4
REMARK    3  A    between atoms: C_4  and  C_5
REMARK    4  A    between atoms: C_8  and  C_9
REMARK    5  A    between atoms: C_9  and  N_10
REMARK    6  A    between atoms: C_11  and  C_13
REMARK                            x       y       z     vdW  Elec       q    Type
REMARK                         _______ _______ _______ _____ _____    ______ ____
ROOT
ATOM      1  C   UNL     1       3.291  -2.997   1.962  0.00  0.00    +0.000 A 
ATOM      2  C   UNL     1       4.407  -2.515   2.645  0.00  0.00    +0.000 A 
ATOM      3  C   UNL     1       5.278  -3.425   3.247  0.00  0.00    +0.000 A 
ATOM      4  C   UNL     1       5.031  -4.795   3.140  0.00  0.00    +0.000 A 
ATOM      5  C   UNL     1       3.892  -5.182   2.442  0.00  0.00    +0.000 A 
ATOM      6  N   UNL     1       3.032  -4.323   1.846  0.00  0.00    +0.000 NA
ENDROOT
BRANCH   1   7
ATOM      7  C   UNL     1       2.335  -2.038   1.294  0.00  0.00    +0.000 C 
BRANCH   7  10
ATOM      8  O   UNL     1       1.794   0.399  -0.032  0.00  0.00    +0.000 OA
ATOM      9  C   UNL     1       2.423  -0.476  -0.614  0.00  0.00    +0.000 C 
ATOM     10  N   UNL     1       2.770  -1.677  -0.038  0.00  0.00    +0.000 N 
ATOM     11  H   UNL     1       3.168  -2.393  -0.640  0.00  0.00    +0.000 HD
BRANCH   9  12
ATOM     12  C   UNL     1       2.882  -0.282  -2.018  0.00  0.00    +0.000 A 
ATOM     13  C   UNL     1       2.642   0.925  -2.658  0.00  0.00    +0.000 A 
ATOM     14  N   UNL     1       3.076   1.177  -3.919  0.00  0.00    +0.000 NA
ATOM     15  C   UNL     1       3.758   0.168  -4.507  0.00  0.00    +0.000 A 
ATOM     16  C   UNL     1       3.992  -1.043  -3.870  0.00  0.00    +0.000 A 
ATOM     17  N   UNL     1       3.563  -1.306  -2.612  0.00  0.00    +0.000 NA
ENDBRANCH   9  12
ENDBRANCH   7  10
ENDBRANCH   1   7
BRANCH   4  18
ATOM     18  C   UNL     1       5.924  -5.818   3.778  0.00  0.00    +0.000 C 
BRANCH  18  19
ATOM     19  N   UNL     1       5.497  -6.129   5.116  0.00  0.00    +0.000 N 
ATOM     20  C   UNL     1       6.213  -6.986   5.914  0.00  0.00    +0.000 C 
ATOM     21  O   UNL     1       7.278  -7.475   5.545  0.00  0.00    +0.000 OA
ATOM     22  H   UNL     1       4.530  -5.926   5.357  0.00  0.00    +0.000 HD
BRANCH  20  23
ATOM     23  C   UNL     1       5.675  -7.244   7.256  0.00  0.00    +0.000 A 
ATOM     24  C   UNL     1       6.522  -7.675   8.267  0.00  0.00    +0.000 A 
ATOM     25  S   UNL     1       5.747  -7.872   9.773  0.00  0.00    +0.000 S 
ATOM     26  C   UNL     1       4.239  -7.442   9.115  0.00  0.00    +0.000 A 
ATOM     27  N   UNL     1       3.116  -7.432   9.883  0.00  0.00    +0.000 NA
ATOM     28  C   UNL     1       2.035  -7.123   9.247  0.00  0.00    +0.000 A 
ATOM     29  N   UNL     1       1.977  -6.818   7.911  0.00  0.00    +0.000 N 
ATOM     30  C   UNL     1       3.090  -6.780   7.104  0.00  0.00    +0.000 A 
ATOM     31  O   UNL     1       3.012  -6.452   5.925  0.00  0.00    +0.000 OA
ATOM     32  C   UNL     1       4.329  -7.135   7.769  0.00  0.00    +0.000 A 
ATOM     33  H   UNL     1       1.100  -6.575   7.475  0.00  0.00    +0.000 HD
ENDBRANCH  20  23
ENDBRANCH  18  19
ENDBRANCH   4  18
TORSDOF 6
