REMARK  Name = 
REMARK  5 active torsions:
REMARK  status: ('A' for Active; 'I' for Inactive)
REMARK    1  A    between atoms: N_1  and  C_2
REMARK    2  A    between atoms: C_2  and  C_3
REMARK    3  A    between atoms: C_3  and  C_4
REMARK    4  A    between atoms: C_7  and  C_8
REMARK    5  A    between atoms: C_8  and  N_9
REMARK                            x       y       z     vdW  Elec       q    Type
REMARK                         _______ _______ _______ _____ _____    ______ ____
ROOT
ATOM      1  C   UNL     1       4.531   0.717   1.163  0.00  0.00    +0.000 A 
ATOM      2  C   UNL     1       5.218   1.828   0.673  0.00  0.00    +0.000 A 
ATOM      3  C   UNL     1       6.612   1.847   0.691  0.00  0.00    +0.000 A 
ATOM      4  C   UNL     1       7.298   0.753   1.217  0.00  0.00    +0.000 A 
ATOM      5  N   UNL     1       6.651  -0.345   1.680  0.00  0.00    +0.000 NA
ATOM      6  C   UNL     1       5.300  -0.345   1.625  0.00  0.00    +0.000 A 
ENDROOT
BRANCH   1   7
ATOM      7  C   UNL     1       3.026   0.667   1.189  0.00  0.00    +0.000 C 
BRANCH   7   8
ATOM      8  C   UNL     1       2.469   0.529   2.613  0.00  0.00    +0.000 C 
BRANCH   8   9
ATOM      9  N   UNL     1       1.008   0.484   2.612  0.00  0.00    +0.000 NA
ATOM     10  H   UNL     1       0.676   0.366   3.569  0.00  0.00    +0.000 HD
ATOM     11  H   UNL     1       0.688  -0.338   2.100  0.00  0.00    +0.000 HD
ENDBRANCH   8   9
ENDBRANCH   7   8
ENDBRANCH   1   7
BRANCH   4  12
ATOM     12  C   UNL     1       8.798   0.784   1.362  0.00  0.00    +0.000 C 
BRANCH  12  13
ATOM     13  N   UNL     1       9.494   0.265   0.191  0.00  0.00    +0.000 N 
ATOM     14  C   UNL     1       9.948   1.046  -0.845  0.00  0.00    +0.000 A 
ATOM     15  C   UNL     1      10.704   0.251  -1.677  0.00  0.00    +0.000 A 
ATOM     16  C   UNL     1      10.721  -1.059  -1.127  0.00  0.00    +0.000 A 
ATOM     17  C   UNL     1      11.339  -2.266  -1.510  0.00  0.00    +0.000 A 
ATOM     18  C   UNL     1      11.164  -3.411  -0.725  0.00  0.00    +0.000 A 
ATOM     19  C   UNL     1      10.377  -3.367   0.421  0.00  0.00    +0.000 A 
ATOM     20  C   UNL     1       9.750  -2.183   0.820  0.00  0.00    +0.000 A 
ATOM     21  C   UNL     1       9.944  -1.034   0.035  0.00  0.00    +0.000 A 
ENDBRANCH  12  13
ENDBRANCH   4  12
TORSDOF 5
