REMARK  Name = 
REMARK  5 active torsions:
REMARK  status: ('A' for Active; 'I' for Inactive)
REMARK    1  A    between atoms: C_2  and  C_3
REMARK    2  A    between atoms: N_7  and  C_8
REMARK    3  A    between atoms: C_8  and  C_9
REMARK    4  A    between atoms: C_9  and  C_12
REMARK    5  A    between atoms: C_16  and  C_17
REMARK                            x       y       z     vdW  Elec       q    Type
REMARK                         _______ _______ _______ _____ _____    ______ ____
ROOT
ATOM      1  C   UNL     1      -5.886   1.130  -0.265  0.00  0.00    +0.000 C 
ATOM      2  F   UNL     1      -5.064   0.978  -1.346  0.00  0.00    +0.000 F 
ATOM      3  F   UNL     1      -6.743   0.063  -0.323  0.00  0.00    +0.000 F 
ENDROOT
BRANCH   1   4
ATOM      4  C   UNL     1      -6.627   2.451  -0.304  0.00  0.00    +0.000 A 
ATOM      5  C   UNL     1      -8.024   2.500  -0.338  0.00  0.00    +0.000 A 
ATOM      6  C   UNL     1      -8.679   3.729  -0.363  0.00  0.00    +0.000 A 
ATOM      7  C   UNL     1      -7.946   4.921  -0.366  0.00  0.00    +0.000 A 
ATOM      8  C   UNL     1      -6.539   4.924  -0.333  0.00  0.00    +0.000 A 
ATOM      9  C   UNL     1      -5.914   3.660  -0.300  0.00  0.00    +0.000 A 
ATOM     10  F   UNL     1      -4.575   3.587  -0.226  0.00  0.00    +0.000 F 
BRANCH   8  11
ATOM     11  C   UNL     1      -5.764   6.194  -0.331  0.00  0.00    +0.000 A 
ATOM     12  C   UNL     1      -6.264   7.370   0.262  0.00  0.00    +0.000 A 
ATOM     13  C   UNL     1      -5.530   8.563   0.266  0.00  0.00    +0.000 A 
ATOM     14  C   UNL     1      -4.266   8.608  -0.311  0.00  0.00    +0.000 A 
ATOM     15  C   UNL     1      -3.744   7.466  -0.906  0.00  0.00    +0.000 A 
ATOM     16  C   UNL     1      -4.490   6.283  -0.926  0.00  0.00    +0.000 A 
ENDBRANCH   8  11
ENDBRANCH   1   4
BRANCH   1  17
ATOM     17  C   UNL     1      -5.044   1.000   1.029  0.00  0.00    +0.000 C 
BRANCH  17  22
ATOM     18  C   UNL     1      -1.961  -1.277   4.417  0.00  0.00    +0.000 A 
ATOM     19  C   UNL     1      -2.533  -0.013   4.392  0.00  0.00    +0.000 A 
ATOM     20  C   UNL     1      -3.359   0.336   3.327  0.00  0.00    +0.000 A 
ATOM     21  C   UNL     1      -3.593  -0.574   2.298  0.00  0.00    +0.000 A 
ATOM     22  N   UNL     1      -4.411  -0.300   1.233  0.00  0.00    +0.000 N 
ATOM     23  N   UNL     1      -3.035  -1.800   2.312  0.00  0.00    +0.000 NA
ATOM     24  C   UNL     1      -2.239  -2.128   3.362  0.00  0.00    +0.000 A 
ATOM     25  H   UNL     1      -4.447  -1.011   0.509  0.00  0.00    +0.000 HD
BRANCH  18  27
ATOM     26  N   UNL     1      -0.435  -2.004   6.375  0.00  0.00    +0.000 NA
ATOM     27  C   UNL     1      -1.116  -1.686   5.493  0.00  0.00    +0.000 C 
ENDBRANCH  18  27
ENDBRANCH  17  22
ENDBRANCH   1  17
TORSDOF 5
