REMARK  Name = 
REMARK  6 active torsions:
REMARK  status: ('A' for Active; 'I' for Inactive)
REMARK    1  A    between atoms: C_1  and  C_2
REMARK    2  A    between atoms: C_4  and  C_5
REMARK    3  A    between atoms: N_10  and  C_11
REMARK    4  A    between atoms: C_11  and  C_12
REMARK    5  A    between atoms: C_17  and  C_18
REMARK    6  A    between atoms: C_22  and  C_23
REMARK                            x       y       z     vdW  Elec       q    Type
REMARK                         _______ _______ _______ _____ _____    ______ ____
ROOT
ATOM      1  C   UNL     1       2.998   2.581  -0.086  0.00  0.00    +0.000 C 
ENDROOT
BRANCH   1   8
ATOM      2  C   UNL     1       3.771   1.097  -5.840  0.00  0.00    +0.000 C 
ATOM      3  C   UNL     1       4.147   1.015  -4.392  0.00  0.00    +0.000 A 
ATOM      4  C   UNL     1       5.286   0.369  -3.986  0.00  0.00    +0.000 A 
ATOM      5  C   UNL     1       5.497   0.357  -2.626  0.00  0.00    +0.000 A 
ATOM      6  N   UNL     1       4.669   0.923  -1.711  0.00  0.00    +0.000 NA
ATOM      7  C   UNL     1       3.579   1.516  -2.205  0.00  0.00    +0.000 A 
ATOM      8  N   UNL     1       2.621   2.064  -1.380  0.00  0.00    +0.000 N 
ATOM      9  N   UNL     1       3.298   1.590  -3.513  0.00  0.00    +0.000 NA
ATOM     10  H   UNL     1       2.018   2.648  -1.947  0.00  0.00    +0.000 HD
BRANCH   5  11
ATOM     11  C   UNL     1       6.722  -0.322  -2.097  0.00  0.00    +0.000 C 
ATOM     12  N   UNL     1       6.876  -0.296  -0.737  0.00  0.00    +0.000 N 
ATOM     13  O   UNL     1       7.538  -0.869  -2.825  0.00  0.00    +0.000 OA
ATOM     14  H   UNL     1       6.162   0.120  -0.152  0.00  0.00    +0.000 HD
ATOM     15  H   UNL     1       7.673  -0.759  -0.325  0.00  0.00    +0.000 HD
ENDBRANCH   5  11
ENDBRANCH   1   8
BRANCH   1  16
ATOM     16  C   UNL     1       3.380   4.042  -0.151  0.00  0.00    +0.000 A 
ATOM     17  C   UNL     1       2.427   5.060   0.007  0.00  0.00    +0.000 A 
ATOM     18  C   UNL     1       2.813   6.397  -0.056  0.00  0.00    +0.000 A 
ATOM     19  C   UNL     1       4.148   6.724  -0.279  0.00  0.00    +0.000 A 
ATOM     20  F   UNL     1       4.451   8.030  -0.355  0.00  0.00    +0.000 F 
ATOM     21  C   UNL     1       5.142   5.743  -0.428  0.00  0.00    +0.000 A 
ATOM     22  C   UNL     1       4.723   4.399  -0.368  0.00  0.00    +0.000 A 
BRANCH  21  23
ATOM     23  C   UNL     1       6.562   6.096  -0.644  0.00  0.00    +0.000 A 
ATOM     24  C   UNL     1       7.118   7.265  -0.091  0.00  0.00    +0.000 A 
ATOM     25  C   UNL     1       8.441   7.637  -0.331  0.00  0.00    +0.000 A 
ATOM     26  C   UNL     1       9.255   6.827  -1.111  0.00  0.00    +0.000 A 
ATOM     27  C   UNL     1       8.745   5.644  -1.649  0.00  0.00    +0.000 A 
ATOM     28  C   UNL     1       7.409   5.287  -1.421  0.00  0.00    +0.000 A 
BRANCH  27  29
ATOM     29  C   UNL     1       9.582   4.802  -2.447  0.00  0.00    +0.000 C 
ATOM     30  N   UNL     1      10.260   4.118  -3.093  0.00  0.00    +0.000 NA
ENDBRANCH  27  29
ENDBRANCH  21  23
ENDBRANCH   1  16
TORSDOF 5
