REMARK  Name = 
REMARK  9 active torsions:
REMARK  status: ('A' for Active; 'I' for Inactive)
REMARK    1  A    between atoms: N_1  and  C_2
REMARK    2  A    between atoms: C_2  and  C_3
REMARK    3  A    between atoms: C_3  and  N_4
REMARK    4  A    between atoms: N_4  and  C_5
REMARK    5  A    between atoms: C_5  and  C_6
REMARK    6  A    between atoms: C_9  and  C_10
REMARK    7  A    between atoms: C_10  and  N_11
REMARK    8  A    between atoms: C_12  and  C_14
REMARK    9  A    between atoms: C_26  and  C_28
REMARK                            x       y       z     vdW  Elec       q    Type
REMARK                         _______ _______ _______ _____ _____    ______ ____
ROOT
ATOM      1  C   UNL     1       4.440  -0.278   1.184  0.00  0.00    +0.000 A 
ATOM      2  C   UNL     1       4.215  -1.633   1.462  0.00  0.00    +0.000 A 
ATOM      3  C   UNL     1       3.397  -2.011   2.524  0.00  0.00    +0.000 A 
ATOM      4  C   UNL     1       2.773  -1.038   3.314  0.00  0.00    +0.000 A 
ATOM      5  C   UNL     1       3.072   0.314   3.094  0.00  0.00    +0.000 A 
ATOM      6  C   UNL     1       3.896   0.693   2.033  0.00  0.00    +0.000 A 
ENDROOT
BRANCH   1   7
ATOM      7  C   UNL     1       5.250   0.114  -0.023  0.00  0.00    +0.000 C 
BRANCH   7   8
ATOM      8  N   UNL     1       4.550   0.429  -1.275  0.00  0.00    +0.000 N 
ATOM      9  C   UNL     1       5.205   1.077  -2.349  0.00  0.00    +0.000 C 
ATOM     10  O   UNL     1       4.533   1.528  -3.281  0.00  0.00    +0.000 OA
BRANCH   9  11
ATOM     11  C   UNL     1       6.664   1.247  -2.321  0.00  0.00    +0.000 A 
ATOM     12  C   UNL     1       7.687   0.447  -1.837  0.00  0.00    +0.000 A 
ATOM     13  C   UNL     1       8.974   1.052  -1.949  0.00  0.00    +0.000 A 
ATOM     14  C   UNL     1       8.919   2.250  -2.619  0.00  0.00    +0.000 A 
ATOM     15  S   UNL     1       7.321   2.663  -3.059  0.00  0.00    +0.000 S 
ENDBRANCH   9  11
BRANCH   8  16
ATOM     16  C   UNL     1       3.082   0.314  -1.374  0.00  0.00    +0.000 C 
BRANCH  16  17
ATOM     17  C   UNL     1       2.564  -0.627  -2.487  0.00  0.00    +0.000 C 
BRANCH  17  18
ATOM     18  N   UNL     1       2.860  -2.046  -2.254  0.00  0.00    +0.000 NA
ATOM     19  H   UNL     1       2.542  -2.574  -3.067  0.00  0.00    +0.000 HD
ATOM     20  H   UNL     1       2.295  -2.377  -1.472  0.00  0.00    +0.000 HD
ENDBRANCH  17  18
ENDBRANCH  16  17
ENDBRANCH   8  16
ENDBRANCH   7   8
ENDBRANCH   1   7
BRANCH   4  21
ATOM     21  C   UNL     1       1.770  -1.436   4.363  0.00  0.00    +0.000 C 
BRANCH  21  22
ATOM     22  N   UNL     1       2.385  -1.680   5.637  0.00  0.00    +0.000 N 
ATOM     23  C   UNL     1       1.630  -2.153   6.684  0.00  0.00    +0.000 C 
ATOM     24  O   UNL     1       0.447  -2.446   6.548  0.00  0.00    +0.000 OA
ATOM     25  H   UNL     1       3.276  -1.230   5.822  0.00  0.00    +0.000 HD
BRANCH  23  26
ATOM     26  C   UNL     1       2.325  -2.351   7.960  0.00  0.00    +0.000 A 
ATOM     27  C   UNL     1       1.785  -3.219   8.901  0.00  0.00    +0.000 A 
ATOM     28  S   UNL     1       2.741  -3.389  10.300  0.00  0.00    +0.000 S 
ATOM     29  C   UNL     1       3.881  -2.259   9.727  0.00  0.00    +0.000 A 
ATOM     30  N   UNL     1       4.965  -1.925  10.472  0.00  0.00    +0.000 NA
ATOM     31  C   UNL     1       5.730  -1.038   9.926  0.00  0.00    +0.000 A 
ATOM     32  N   UNL     1       5.513  -0.464   8.703  0.00  0.00    +0.000 N 
ATOM     33  C   UNL     1       4.444  -0.789   7.905  0.00  0.00    +0.000 A 
ATOM     34  O   UNL     1       4.293  -0.276   6.798  0.00  0.00    +0.000 OA
ATOM     35  C   UNL     1       3.545  -1.777   8.474  0.00  0.00    +0.000 A 
ATOM     36  H   UNL     1       6.154   0.224   8.334  0.00  0.00    +0.000 HD
ENDBRANCH  23  26
ENDBRANCH  21  22
ENDBRANCH   4  21
TORSDOF 9
