REMARK  Name = 
REMARK  10 active torsions:
REMARK  status: ('A' for Active; 'I' for Inactive)
REMARK    1  A    between atoms: C_1  and  C_2
REMARK    2  A    between atoms: C_2  and  C_3
REMARK    3  A    between atoms: C_3  and  N_4
REMARK    4  A    between atoms: C_3  and  C_20
REMARK    5  A    between atoms: N_4  and  C_5
REMARK    6  A    between atoms: C_5  and  C_6
REMARK    7  A    between atoms: C_9  and  C_10
REMARK    8  A    between atoms: C_10  and  N_11
REMARK    9  A    between atoms: N_11  and  C_12
REMARK   10  A    between atoms: C_12  and  C_13
REMARK                            x       y       z     vdW  Elec       q    Type
REMARK                         _______ _______ _______ _____ _____    ______ ____
ROOT
ATOM      1  C   UNL     1       2.616   1.070  -1.139  0.00  0.00    +0.000 C 
ENDROOT
BRANCH   1   2
ATOM      2  C   UNL     1       1.386   1.920  -0.958  0.00  0.00    +0.000 A 
ATOM      3  C   UNL     1       0.295   1.823  -1.823  0.00  0.00    +0.000 A 
ATOM      4  C   UNL     1      -0.810   2.649  -1.637  0.00  0.00    +0.000 A 
ATOM      5  C   UNL     1      -0.800   3.558  -0.583  0.00  0.00    +0.000 A 
ATOM      6  N   UNL     1       0.246   3.672   0.275  0.00  0.00    +0.000 NA
ATOM      7  C   UNL     1       1.305   2.854   0.070  0.00  0.00    +0.000 A 
BRANCH   5   8
ATOM      8  C   UNL     1      -1.957   4.517  -0.383  0.00  0.00    +0.000 C 
BRANCH   8   9
ATOM      9  N   UNL     1      -1.548   5.933  -0.363  0.00  0.00    +0.000 NA
ATOM     10  H   UNL     1      -0.758   5.976   0.292  0.00  0.00    +0.000 HD
BRANCH   9  11
ATOM     11  C   UNL     1      -1.030   6.359  -1.673  0.00  0.00    +0.000 C 
BRANCH  11  12
ATOM     12  C   UNL     1      -0.678   7.813  -1.650  0.00  0.00    +0.000 A 
ATOM     13  N   UNL     1       0.261   8.426  -2.341  0.00  0.00    +0.000 NA
ATOM     14  C   UNL     1       0.218   9.737  -1.939  0.00  0.00    +0.000 A 
ATOM     15  C   UNL     1      -0.770   9.930  -1.004  0.00  0.00    +0.000 A 
ATOM     16  N   UNL     1      -1.343   8.703  -0.840  0.00  0.00    +0.000 N 
ATOM     17  H   UNL     1      -2.086   8.441  -0.207  0.00  0.00    +0.000 HD
ENDBRANCH  11  12
ENDBRANCH   9  11
ENDBRANCH   8   9
ENDBRANCH   5   8
ENDBRANCH   1   2
BRANCH   1  18
ATOM     18  N   UNL     1       2.854   0.238   0.038  0.00  0.00    +0.000 NA
ATOM     19  H   UNL     1       1.991  -0.273   0.231  0.00  0.00    +0.000 HD
BRANCH  18  20
ATOM     20  C   UNL     1       3.915  -0.762  -0.156  0.00  0.00    +0.000 C 
BRANCH  20  21
ATOM     21  C   UNL     1       3.933  -1.564   1.134  0.00  0.00    +0.000 A 
ATOM     22  C   UNL     1       4.596  -1.203   2.297  0.00  0.00    +0.000 A 
ATOM     23  S   UNL     1       4.395  -2.329   3.567  0.00  0.00    +0.000 S 
ATOM     24  C   UNL     1       3.376  -3.308   2.618  0.00  0.00    +0.000 A 
ATOM     25  N   UNL     1       2.817  -4.441   3.119  0.00  0.00    +0.000 NA
ATOM     26  C   UNL     1       2.049  -5.068   2.286  0.00  0.00    +0.000 A 
ATOM     27  N   UNL     1       1.797  -4.667   0.999  0.00  0.00    +0.000 N 
ATOM     28  C   UNL     1       2.331  -3.524   0.450  0.00  0.00    +0.000 A 
ATOM     29  O   UNL     1       2.057  -3.176  -0.694  0.00  0.00    +0.000 OA
ATOM     30  C   UNL     1       3.207  -2.793   1.348  0.00  0.00    +0.000 A 
ATOM     31  H   UNL     1       1.178  -5.196   0.404  0.00  0.00    +0.000 HD
ENDBRANCH  20  21
BRANCH  20  33
ATOM     32  C   UNL     1       6.352  -1.224  -0.760  0.00  0.00    +0.000 C 
ATOM     33  C   UNL     1       5.286  -0.158  -0.528  0.00  0.00    +0.000 C 
ENDBRANCH  20  33
ENDBRANCH  18  20
ENDBRANCH   1  18
TORSDOF 9
