REMARK  Name = 
REMARK  11 active torsions:
REMARK  status: ('A' for Active; 'I' for Inactive)
REMARK    1  A    between atoms: C_1  and  O_2
REMARK    2  A    between atoms: O_2  and  C_3
REMARK    3  A    between atoms: C_10  and  C_11
REMARK    4  A    between atoms: N_13  and  C_14
REMARK    5  A    between atoms: C_14  and  C_15
REMARK    6  A    between atoms: C_18  and  C_19
REMARK    7  A    between atoms: C_19  and  N_20
REMARK    8  A    between atoms: N_20  and  CA_21
REMARK    9  A    between atoms: CA_21  and  C_22
REMARK   10  A    between atoms: CA_21  and  C_24
REMARK   11  A    between atoms: C_22  and  O_23
REMARK                            x       y       z     vdW  Elec       q    Type
REMARK                         _______ _______ _______ _____ _____    ______ ____
ROOT
ATOM      1  C   UNL     1      -1.275   9.680  -3.438  0.00  0.00    +0.000 A 
ATOM      2  C   UNL     1      -1.600   8.328  -3.606  0.00  0.00    +0.000 A 
ATOM      3  C   UNL     1      -1.942   7.533  -2.508  0.00  0.00    +0.000 A 
ATOM      4  C   UNL     1      -1.954   8.070  -1.214  0.00  0.00    +0.000 A 
ATOM      5  C   UNL     1      -1.645   9.430  -1.053  0.00  0.00    +0.000 A 
ATOM      6  C   UNL     1      -1.310  10.227  -2.150  0.00  0.00    +0.000 A 
ENDROOT
BRANCH   1   7
ATOM      7  C   UNL     1      -0.965  10.549  -4.628  0.00  0.00    +0.000 C 
BRANCH   7  10
ATOM      8  C   UNL     1      -2.152  11.925  -6.278  0.00  0.00    +0.000 C 
ATOM      9  O   UNL     1      -1.100  12.159  -6.870  0.00  0.00    +0.000 OA
ATOM     10  N   UNL     1      -2.170  11.141  -5.158  0.00  0.00    +0.000 N 
ATOM     11  H   UNL     1      -3.033  10.986  -4.653  0.00  0.00    +0.000 HD
BRANCH   8  19
ATOM     12  C   UNL     1      -5.426  11.559  -5.255  0.00  0.00    +0.000 A 
ATOM     13  N   UNL     1      -6.760  11.613  -5.068  0.00  0.00    +0.000 NA
ATOM     14  C   UNL     1      -7.482  12.379  -5.890  0.00  0.00    +0.000 A 
ATOM     15  N   UNL     1      -7.028  13.113  -6.902  0.00  0.00    +0.000 NA
ATOM     16  C   UNL     1      -5.695  13.039  -7.049  0.00  0.00    +0.000 A 
ATOM     17  S   UNL     1      -4.944  13.910  -8.297  0.00  0.00    +0.000 S 
ATOM     18  C   UNL     1      -3.413  13.334  -7.844  0.00  0.00    +0.000 A 
ATOM     19  C   UNL     1      -3.432  12.482  -6.745  0.00  0.00    +0.000 A 
ATOM     20  C   UNL     1      -4.803  12.300  -6.274  0.00  0.00    +0.000 A 
BRANCH  12  22
ATOM     21  C   UNL     1      -5.433   9.711  -3.828  0.00  0.00    +0.000 C 
ATOM     22  O   UNL     1      -4.682  10.789  -4.385  0.00  0.00    +0.000 OA
ENDBRANCH  12  22
ENDBRANCH   8  19
ENDBRANCH   7  10
ENDBRANCH   1   7
BRANCH   4  23
ATOM     23  C   UNL     1      -2.366   7.259  -0.003  0.00  0.00    +0.000 C 
BRANCH  23  24
ATOM     24  N   UNL     1      -1.981   5.849  -0.087  0.00  0.00    +0.000 NA
ATOM     25  H   UNL     1      -0.971   5.783  -0.207  0.00  0.00    +0.000 HD
BRANCH  24  26
ATOM     26  CA  UNL     1      -2.420   5.047   1.077  0.00  0.00    +0.000 C 
BRANCH  26  27
ATOM     27  C   UNL     1      -2.060   3.572   0.843  0.00  0.00    +0.000 A 
ATOM     28  C   UNL     1      -1.294   2.808   1.740  0.00  0.00    +0.000 A 
ATOM     29  C   UNL     1      -1.011   1.461   1.491  0.00  0.00    +0.000 A 
ATOM     30  C   UNL     1      -1.494   0.847   0.338  0.00  0.00    +0.000 A 
ATOM     31  C   UNL     1      -2.257   1.579  -0.563  0.00  0.00    +0.000 A 
ATOM     32  C   UNL     1      -2.539   2.926  -0.313  0.00  0.00    +0.000 A 
ENDBRANCH  26  27
BRANCH  26  33
ATOM     33  C   UNL     1      -1.932   5.617   2.442  0.00  0.00    +0.000 C 
BRANCH  33  34
ATOM     34  O   UNL     1      -0.514   5.784   2.513  0.00  0.00    +0.000 OA
ATOM     35  H   UNL     1      -0.132   5.466   1.677  0.00  0.00    +0.000 HD
ENDBRANCH  33  34
ENDBRANCH  26  33
ENDBRANCH  24  26
ENDBRANCH  23  24
ENDBRANCH   4  23
TORSDOF 10
