REMARK  Name = 
REMARK  5 active torsions:
REMARK  status: ('A' for Active; 'I' for Inactive)
REMARK    1  A    between atoms: N_1  and  C_2
REMARK    2  A    between atoms: C_2  and  C_3
REMARK    3  A    between atoms: C_6  and  S_7
REMARK    4  A    between atoms: S_7  and  C_8
REMARK    5  A    between atoms: C_8  and  C_9
REMARK                            x       y       z     vdW  Elec       q    Type
REMARK                         _______ _______ _______ _____ _____    ______ ____
ROOT
ATOM      1  C   UNL     1       2.836   0.689  -1.252  0.00  0.00    +0.000 A 
ATOM      2  C   UNL     1       2.537   2.051  -1.377  0.00  0.00    +0.000 A 
ATOM      3  C   UNL     1       2.999   2.795  -2.471  0.00  0.00    +0.000 A 
ATOM      4  C   UNL     1       3.785   2.198  -3.461  0.00  0.00    +0.000 A 
ATOM      5  C   UNL     1       4.072   0.831  -3.345  0.00  0.00    +0.000 A 
ATOM      6  C   UNL     1       3.608   0.085  -2.252  0.00  0.00    +0.000 A 
ENDROOT
BRANCH   1   7
ATOM      7  C   UNL     1       2.351  -0.100  -0.061  0.00  0.00    +0.000 C 
BRANCH   7   8
ATOM      8  N   UNL     1       0.895  -0.098   0.034  0.00  0.00    +0.000 NA
ATOM      9  H   UNL     1       0.611  -0.698   0.806  0.00  0.00    +0.000 HD
ATOM     10  H   UNL     1       0.511  -0.518  -0.811  0.00  0.00    +0.000 HD
ENDBRANCH   7   8
ENDBRANCH   1   7
BRANCH   4  11
ATOM     11  S   UNL     1       4.390   3.067  -4.908  0.00  0.00    +0.000 S 
BRANCH  11  12
ATOM     12  C   UNL     1       4.700   4.743  -4.259  0.00  0.00    +0.000 C 
BRANCH  12  13
ATOM     13  C   UNL     1       5.319   5.660  -5.288  0.00  0.00    +0.000 A 
ATOM     14  C   UNL     1       4.525   6.395  -6.175  0.00  0.00    +0.000 A 
ATOM     15  C   UNL     1       5.142   7.255  -7.070  0.00  0.00    +0.000 A 
ATOM     16  N   UNL     1       6.479   7.431  -7.146  0.00  0.00    +0.000 NA
ATOM     17  C   UNL     1       7.230   6.703  -6.296  0.00  0.00    +0.000 A 
ATOM     18  C   UNL     1       6.708   5.815  -5.366  0.00  0.00    +0.000 A 
ENDBRANCH  12  13
ENDBRANCH  11  12
ENDBRANCH   4  11
TORSDOF 5
