REMARK  Name = 
REMARK  4 active torsions:
REMARK  status: ('A' for Active; 'I' for Inactive)
REMARK    1  A    between atoms: C_2  and  C_4
REMARK    2  A    between atoms: N_8  and  C_9
REMARK    3  A    between atoms: C_9  and  C_10
REMARK    4  A    between atoms: C_14  and  C_15
REMARK                            x       y       z     vdW  Elec       q    Type
REMARK                         _______ _______ _______ _____ _____    ______ ____
ROOT
ATOM      1  C   UNL     1       7.799  -1.197   0.172  0.00  0.00    +0.000 A 
ATOM      2  C   UNL     1       7.342  -2.416  -0.315  0.00  0.00    +0.000 A 
ATOM      3  C   UNL     1       6.592  -3.246   0.521  0.00  0.00    +0.000 A 
ATOM      4  C   UNL     1       6.323  -2.849   1.830  0.00  0.00    +0.000 A 
ATOM      5  N   UNL     1       5.541  -3.570   2.702  0.00  0.00    +0.000 N 
ATOM      6  N   UNL     1       6.770  -1.673   2.312  0.00  0.00    +0.000 NA
ATOM      7  C   UNL     1       7.501  -0.878   1.486  0.00  0.00    +0.000 A 
ATOM      8  H   UNL     1       5.549  -3.119   3.612  0.00  0.00    +0.000 HD
ENDROOT
BRANCH   1  10
ATOM      9  N   UNL     1       8.427  -0.290  -1.995  0.00  0.00    +0.000 N 
ATOM     10  C   UNL     1       8.593  -0.251  -0.638  0.00  0.00    +0.000 C 
ATOM     11  O   UNL     1       9.348   0.560  -0.116  0.00  0.00    +0.000 OA
ATOM     12  H   UNL     1       8.901   0.431  -2.524  0.00  0.00    +0.000 HD
ATOM     13  H   UNL     1       7.641  -0.748  -2.434  0.00  0.00    +0.000 HD
ENDBRANCH   1  10
BRANCH   5  14
ATOM     14  C   UNL     1       5.490  -5.017   2.721  0.00  0.00    +0.000 C 
BRANCH  14  15
ATOM     15  C   UNL     1       6.540  -5.695   3.579  0.00  0.00    +0.000 A 
ATOM     16  C   UNL     1       7.547  -5.013   4.270  0.00  0.00    +0.000 A 
ATOM     17  C   UNL     1       8.451  -5.713   5.067  0.00  0.00    +0.000 A 
ATOM     18  C   UNL     1       8.352  -7.100   5.194  0.00  0.00    +0.000 A 
ATOM     19  C   UNL     1       7.342  -7.827   4.543  0.00  0.00    +0.000 A 
ATOM     20  C   UNL     1       6.463  -7.100   3.718  0.00  0.00    +0.000 A 
BRANCH  19  21
ATOM     21  C   UNL     1       7.177  -9.283   4.769  0.00  0.00    +0.000 A 
ATOM     22  C   UNL     1       7.432  -9.847   6.029  0.00  0.00    +0.000 A 
ATOM     23  C   UNL     1       7.248 -11.206   6.226  0.00  0.00    +0.000 A 
ATOM     24  N   UNL     1       6.818 -12.051   5.268  0.00  0.00    +0.000 NA
ATOM     25  C   UNL     1       6.567 -11.504   4.061  0.00  0.00    +0.000 A 
ATOM     26  C   UNL     1       6.730 -10.157   3.767  0.00  0.00    +0.000 A 
ENDBRANCH  19  21
ENDBRANCH  14  15
ENDBRANCH   5  14
TORSDOF 4
