REMARK  Name = 
REMARK  6 active torsions:
REMARK  status: ('A' for Active; 'I' for Inactive)
REMARK    1  A    between atoms: C_2  and  C_4
REMARK    2  A    between atoms: C_7  and  N_8
REMARK    3  A    between atoms: N_8  and  C_9
REMARK    4  A    between atoms: C_9  and  C_10
REMARK    5  A    between atoms: C_10  and  C_11
REMARK    6  A    between atoms: C_15  and  C_16
REMARK                            x       y       z     vdW  Elec       q    Type
REMARK                         _______ _______ _______ _____ _____    ______ ____
ROOT
ATOM      1  C   UNL     1       5.301  -4.983   3.015  0.00  0.00    +0.000 C 
ENDROOT
BRANCH   1   2
ATOM      2  N   UNL     1       5.703  -3.606   2.747  0.00  0.00    +0.000 N 
ATOM      3  H   UNL     1       6.132  -3.117   3.528  0.00  0.00    +0.000 HD
BRANCH   2   7
ATOM      4  C   UNL     1       3.424  -1.063   0.261  0.00  0.00    +0.000 A 
ATOM      5  C   UNL     1       2.952  -2.346   0.546  0.00  0.00    +0.000 A 
ATOM      6  C   UNL     1       3.686  -3.191   1.388  0.00  0.00    +0.000 A 
ATOM      7  C   UNL     1       4.882  -2.771   1.984  0.00  0.00    +0.000 A 
ATOM      8  C   UNL     1       5.340  -1.481   1.685  0.00  0.00    +0.000 A 
ATOM      9  C   UNL     1       4.625  -0.634   0.828  0.00  0.00    +0.000 A 
BRANCH   4  11
ATOM     10  N   UNL     1       1.364  -0.324  -0.812  0.00  0.00    +0.000 N 
ATOM     11  C   UNL     1       2.714  -0.161  -0.682  0.00  0.00    +0.000 C 
ATOM     12  O   UNL     1       3.306   0.713  -1.303  0.00  0.00    +0.000 OA
ATOM     13  H   UNL     1       0.884   0.351  -1.394  0.00  0.00    +0.000 HD
ATOM     14  H   UNL     1       0.812  -0.854  -0.152  0.00  0.00    +0.000 HD
ENDBRANCH   4  11
ENDBRANCH   2   7
ENDBRANCH   1   2
BRANCH   1  15
ATOM     15  C   UNL     1       6.365  -5.711   3.842  0.00  0.00    +0.000 C 
BRANCH  15  16
ATOM     16  C   UNL     1       5.976  -7.147   4.074  0.00  0.00    +0.000 A 
ATOM     17  C   UNL     1       5.173  -7.507   5.147  0.00  0.00    +0.000 A 
ATOM     18  N   UNL     1       4.741  -8.763   5.372  0.00  0.00    +0.000 NA
ATOM     19  C   UNL     1       5.137  -9.711   4.485  0.00  0.00    +0.000 A 
ATOM     20  C   UNL     1       5.954  -9.490   3.373  0.00  0.00    +0.000 A 
ATOM     21  C   UNL     1       6.364  -8.160   3.186  0.00  0.00    +0.000 A 
BRANCH  20  22
ATOM     22  C   UNL     1       6.370 -10.583   2.465  0.00  0.00    +0.000 A 
ATOM     23  C   UNL     1       6.576 -10.363   1.089  0.00  0.00    +0.000 A 
ATOM     24  C   UNL     1       7.004 -11.389   0.240  0.00  0.00    +0.000 A 
ATOM     25  C   UNL     1       7.223 -12.667   0.743  0.00  0.00    +0.000 A 
ATOM     26  C   UNL     1       7.012 -12.919   2.094  0.00  0.00    +0.000 A 
ATOM     27  C   UNL     1       6.595 -11.888   2.943  0.00  0.00    +0.000 A 
ENDBRANCH  20  22
ENDBRANCH  15  16
ENDBRANCH   1  15
TORSDOF 6
