REMARK  Name = 
REMARK  11 active torsions:
REMARK  status: ('A' for Active; 'I' for Inactive)
REMARK    1  A    between atoms: C_1  and  O_2
REMARK    2  A    between atoms: O_2  and  C_3
REMARK    3  A    between atoms: C_5  and  C_6
REMARK    4  A    between atoms: C_11  and  N_12
REMARK    5  A    between atoms: N_12  and  C_13
REMARK    6  A    between atoms: C_13  and  C_14
REMARK    7  A    between atoms: C_18  and  C_19
REMARK    8  A    between atoms: C_23  and  N_24
REMARK    9  A    between atoms: N_24  and  C_25
REMARK   10  A    between atoms: C_25  and  C_26
REMARK   11  A    between atoms: C_25  and  C_27
REMARK                            x       y       z     vdW  Elec       q    Type
REMARK                         _______ _______ _______ _____ _____    ______ ____
ROOT
ATOM      1  C   UNL     1       4.187   3.276   0.516  0.00  0.00    +0.000 A 
ATOM      2  C   UNL     1       3.319   4.326   0.199  0.00  0.00    +0.000 A 
ATOM      3  C   UNL     1       3.756   5.644   0.266  0.00  0.00    +0.000 A 
ATOM      4  C   UNL     1       5.046   5.914   0.712  0.00  0.00    +0.000 A 
ATOM      5  C   UNL     1       5.925   4.887   1.116  0.00  0.00    +0.000 A 
ATOM      6  C   UNL     1       5.497   3.564   0.947  0.00  0.00    +0.000 A 
ENDROOT
BRANCH   5   7
ATOM      7  C   UNL     1       7.192   5.212   1.800  0.00  0.00    +0.000 A 
ATOM      8  C   UNL     1       7.255   6.316   2.651  0.00  0.00    +0.000 A 
ATOM      9  C   UNL     1       8.446   6.615   3.286  0.00  0.00    +0.000 A 
ATOM     10  C   UNL     1       9.536   5.789   3.068  0.00  0.00    +0.000 A 
ATOM     11  C   UNL     1       9.403   4.650   2.269  0.00  0.00    +0.000 A 
ATOM     12  N   UNL     1       8.244   4.362   1.639  0.00  0.00    +0.000 NA
BRANCH  11  13
ATOM     13  N   UNL     1      10.479   3.769   2.240  0.00  0.00    +0.000 N 
ATOM     14  H   UNL     1      11.365   4.190   1.994  0.00  0.00    +0.000 HD
BRANCH  13  15
ATOM     15  C   UNL     1      10.287   2.360   1.925  0.00  0.00    +0.000 C 
ATOM     16  C   UNL     1      10.270   2.064   0.429  0.00  0.00    +0.000 C 
ATOM     17  C   UNL     1      11.442   1.588   2.575  0.00  0.00    +0.000 C 
ENDBRANCH  13  15
ENDBRANCH  11  13
ENDBRANCH   5   7
BRANCH   1  18
ATOM     18  C   UNL     1       3.708   1.850   0.402  0.00  0.00    +0.000 C 
BRANCH  18  19
ATOM     19  N   UNL     1       3.132   1.368   1.633  0.00  0.00    +0.000 N 
ATOM     20  H   UNL     1       2.931   2.010   2.385  0.00  0.00    +0.000 HD
BRANCH  19  26
ATOM     21  C   UNL     1       2.569  -0.893   0.799  0.00  0.00    +0.000 A 
ATOM     22  C   UNL     1       1.998  -2.132   1.110  0.00  0.00    +0.000 A 
ATOM     23  C   UNL     1       1.498  -2.380   2.383  0.00  0.00    +0.000 A 
ATOM     24  C   UNL     1       1.573  -1.349   3.301  0.00  0.00    +0.000 A 
ATOM     25  N   UNL     1       2.088  -0.120   3.027  0.00  0.00    +0.000 NA
ATOM     26  C   UNL     1       2.598   0.111   1.794  0.00  0.00    +0.000 A 
BRANCH  23  27
ATOM     27  C   UNL     1       0.944  -3.726   2.660  0.00  0.00    +0.000 C 
ATOM     28  N   UNL     1       0.472  -4.011   3.906  0.00  0.00    +0.000 N 
ATOM     29  O   UNL     1       0.902  -4.586   1.794  0.00  0.00    +0.000 OA
ATOM     30  H   UNL     1       0.482  -3.391   4.705  0.00  0.00    +0.000 HD
ATOM     31  H   UNL     1       0.123  -4.951   4.052  0.00  0.00    +0.000 HD
ENDBRANCH  23  27
BRANCH  21  33
ATOM     32  C   UNL     1       2.648  -1.409  -1.519  0.00  0.00    +0.000 C 
ATOM     33  O   UNL     1       3.123  -0.635  -0.427  0.00  0.00    +0.000 OA
ENDBRANCH  21  33
ENDBRANCH  19  26
ENDBRANCH  18  19
ENDBRANCH   1  18
TORSDOF 8
