REMARK  Name = 
REMARK  6 active torsions:
REMARK  status: ('A' for Active; 'I' for Inactive)
REMARK    1  A    between atoms: N_1  and  C_2
REMARK    2  A    between atoms: C_2  and  C_3
REMARK    3  A    between atoms: C_3  and  C_4
REMARK    4  A    between atoms: C_8  and  C_9
REMARK    5  A    between atoms: C_9  and  N_10
REMARK    6  A    between atoms: C_15  and  C_16
REMARK                            x       y       z     vdW  Elec       q    Type
REMARK                         _______ _______ _______ _____ _____    ______ ____
ROOT
ATOM      1  N   UNL     1       8.415   3.192  -3.296  0.00  0.00    +0.000 N 
ATOM      2  C   UNL     1       8.525   4.564  -3.291  0.00  0.00    +0.000 A 
ATOM      3  N   UNL     1       9.568   4.974  -3.974  0.00  0.00    +0.000 NA
ATOM      4  C   UNL     1      10.182   3.830  -4.419  0.00  0.00    +0.000 A 
ATOM      5  C   UNL     1      11.236   3.678  -5.330  0.00  0.00    +0.000 A 
ATOM      6  C   UNL     1      11.664   2.387  -5.672  0.00  0.00    +0.000 A 
ATOM      7  C   UNL     1      11.120   1.274  -5.013  0.00  0.00    +0.000 A 
ATOM      8  C   UNL     1      10.051   1.407  -4.112  0.00  0.00    +0.000 A 
ATOM      9  C   UNL     1       9.565   2.700  -3.890  0.00  0.00    +0.000 A 
ENDROOT
BRANCH   6  10
ATOM     10  C   UNL     1      12.630   2.273  -6.806  0.00  0.00    +0.000 C 
ATOM     11  N   UNL     1      13.095   1.038  -7.162  0.00  0.00    +0.000 N 
ATOM     12  O   UNL     1      12.980   3.255  -7.451  0.00  0.00    +0.000 OA
ATOM     13  H   UNL     1      12.872   0.170  -6.705  0.00  0.00    +0.000 HD
ATOM     14  H   UNL     1      13.691   1.004  -7.979  0.00  0.00    +0.000 HD
ENDBRANCH   6  10
BRANCH   1  15
ATOM     15  C   UNL     1       7.115   2.525  -3.356  0.00  0.00    +0.000 C 
BRANCH  15  20
ATOM     16  C   UNL     1       4.655   0.675  -1.150  0.00  0.00    +0.000 A 
ATOM     17  C   UNL     1       5.488   0.084  -0.200  0.00  0.00    +0.000 A 
ATOM     18  C   UNL     1       6.866   0.329  -0.219  0.00  0.00    +0.000 A 
ATOM     19  C   UNL     1       7.434   1.161  -1.193  0.00  0.00    +0.000 A 
ATOM     20  C   UNL     1       6.620   1.772  -2.148  0.00  0.00    +0.000 A 
ATOM     21  C   UNL     1       5.229   1.530  -2.098  0.00  0.00    +0.000 A 
BRANCH  16  22
ATOM     22  C   UNL     1       3.177   0.366  -1.210  0.00  0.00    +0.000 C 
BRANCH  22  23
ATOM     23  C   UNL     1       2.323   1.292  -0.338  0.00  0.00    +0.000 C 
BRANCH  23  24
ATOM     24  N   UNL     1       0.901   0.987  -0.503  0.00  0.00    +0.000 NA
ATOM     25  H   UNL     1       0.350   1.603   0.093  0.00  0.00    +0.000 HD
ATOM     26  H   UNL     1       0.711   0.038  -0.182  0.00  0.00    +0.000 HD
ENDBRANCH  23  24
ENDBRANCH  22  23
ENDBRANCH  16  22
ENDBRANCH  15  20
ENDBRANCH   1  15
TORSDOF 6
