REMARK  Name = 
REMARK  3 active torsions:
REMARK  status: ('A' for Active; 'I' for Inactive)
REMARK    1  A    between atoms: C_2  and  C_4
REMARK    2  A    between atoms: N_8  and  C_9
REMARK    3  A    between atoms: C_9  and  C_10
REMARK                            x       y       z     vdW  Elec       q    Type
REMARK                         _______ _______ _______ _____ _____    ______ ____
ROOT
ATOM      1  C   UNL     1       3.066  -3.692  -0.227  0.00  0.00    +0.000 A 
ATOM      2  C   UNL     1       2.405  -3.522  -1.438  0.00  0.00    +0.000 A 
ATOM      3  C   UNL     1       3.147  -3.253  -2.589  0.00  0.00    +0.000 A 
ATOM      4  C   UNL     1       4.532  -3.150  -2.514  0.00  0.00    +0.000 A 
ATOM      5  N   UNL     1       5.333  -2.812  -3.609  0.00  0.00    +0.000 N 
ATOM      6  N   UNL     1       5.181  -3.294  -1.339  0.00  0.00    +0.000 NA
ATOM      7  C   UNL     1       4.444  -3.555  -0.225  0.00  0.00    +0.000 A 
ATOM      8  H   UNL     1       6.299  -2.883  -3.296  0.00  0.00    +0.000 HD
ENDROOT
BRANCH   1  10
ATOM      9  N   UNL     1       1.138  -4.591   0.942  0.00  0.00    +0.000 N 
ATOM     10  C   UNL     1       2.357  -3.980   1.037  0.00  0.00    +0.000 C 
ATOM     11  O   UNL     1       2.850  -3.708   2.123  0.00  0.00    +0.000 OA
ATOM     12  H   UNL     1       0.700  -4.865   1.813  0.00  0.00    +0.000 HD
ATOM     13  H   UNL     1       0.814  -5.042   0.097  0.00  0.00    +0.000 HD
ENDBRANCH   1  10
BRANCH   5  14
ATOM     14  C   UNL     1       5.049  -3.171  -5.007  0.00  0.00    +0.000 C 
ATOM     15  C   UNL     1       5.219  -2.035  -6.012  0.00  0.00    +0.000 C 
ATOM     16  C   UNL     1       3.865  -2.612  -5.781  0.00  0.00    +0.000 C 
BRANCH  14  17
ATOM     17  C   UNL     1       5.542  -4.560  -5.415  0.00  0.00    +0.000 A 
ATOM     18  C   UNL     1       4.742  -5.703  -5.213  0.00  0.00    +0.000 A 
ATOM     19  C   UNL     1       5.146  -6.965  -5.658  0.00  0.00    +0.000 A 
ATOM     20  C   UNL     1       6.365  -7.102  -6.307  0.00  0.00    +0.000 A 
ATOM     21  F   UNL     1       6.741  -8.304  -6.763  0.00  0.00    +0.000 F 
ATOM     22  C   UNL     1       7.196  -6.007  -6.497  0.00  0.00    +0.000 A 
ATOM     23  C   UNL     1       6.791  -4.749  -6.043  0.00  0.00    +0.000 A 
ENDBRANCH  14  17
ENDBRANCH   5  14
TORSDOF 3
