REMARK  Name = 
REMARK  6 active torsions:
REMARK  status: ('A' for Active; 'I' for Inactive)
REMARK    1  A    between atoms: C_2  and  C_25
REMARK    2  A    between atoms: N_3  and  C_4
REMARK    3  A    between atoms: C_4  and  C_5
REMARK    4  A    between atoms: C_8  and  C_9
REMARK    5  A    between atoms: C_9  and  N_10
REMARK    6  A    between atoms: C_11  and  C_13
REMARK                            x       y       z     vdW  Elec       q    Type
REMARK                         _______ _______ _______ _____ _____    ______ ____
ROOT
ATOM      1  C   UNL     1       3.179   1.100   3.412  0.00  0.00    +0.000 A 
ATOM      2  C   UNL     1       3.380   2.449   3.735  0.00  0.00    +0.000 A 
ATOM      3  C   UNL     1       4.222   2.813   4.792  0.00  0.00    +0.000 A 
ATOM      4  C   UNL     1       4.898   1.837   5.536  0.00  0.00    +0.000 A 
ATOM      5  C   UNL     1       4.702   0.489   5.208  0.00  0.00    +0.000 A 
ATOM      6  C   UNL     1       3.862   0.124   4.150  0.00  0.00    +0.000 A 
ENDROOT
BRANCH   1   7
ATOM      7  C   UNL     1       2.237   0.707   2.305  0.00  0.00    +0.000 C 
BRANCH   7  10
ATOM      8  O   UNL     1       1.005  -0.047  -0.060  0.00  0.00    +0.000 OA
ATOM      9  C   UNL     1       2.182   0.292  -0.105  0.00  0.00    +0.000 C 
ATOM     10  N   UNL     1       2.886   0.669   1.017  0.00  0.00    +0.000 N 
ATOM     11  H   UNL     1       3.804   1.078   0.924  0.00  0.00    +0.000 HD
BRANCH   9  12
ATOM     12  C   UNL     1       2.917   0.341  -1.340  0.00  0.00    +0.000 A 
ATOM     13  C   UNL     1       4.246   0.562  -1.650  0.00  0.00    +0.000 A 
ATOM     14  C   UNL     1       4.320   0.462  -3.051  0.00  0.00    +0.000 A 
ATOM     15  N   UNL     1       3.136   0.201  -3.604  0.00  0.00    +0.000 NA
ATOM     16  N   UNL     1       2.306   0.122  -2.549  0.00  0.00    +0.000 N 
ATOM     17  H   UNL     1       1.324  -0.081  -2.710  0.00  0.00    +0.000 HD
ENDBRANCH   9  12
ENDBRANCH   7  10
ENDBRANCH   1   7
BRANCH   4  18
ATOM     18  C   UNL     1       5.789   2.218   6.691  0.00  0.00    +0.000 C 
BRANCH  18  19
ATOM     19  N   UNL     1       5.058   2.262   7.933  0.00  0.00    +0.000 N 
ATOM     20  C   UNL     1       5.663   2.665   9.097  0.00  0.00    +0.000 C 
ATOM     21  O   UNL     1       6.830   3.047   9.123  0.00  0.00    +0.000 OA
ATOM     22  H   UNL     1       4.188   1.740   7.977  0.00  0.00    +0.000 HD
BRANCH  20  23
ATOM     23  C   UNL     1       4.828   2.678  10.306  0.00  0.00    +0.000 A 
ATOM     24  C   UNL     1       5.178   3.494  11.374  0.00  0.00    +0.000 A 
ATOM     25  S   UNL     1       4.077   3.431  12.675  0.00  0.00    +0.000 S 
ATOM     26  C   UNL     1       3.121   2.270  11.880  0.00  0.00    +0.000 A 
ATOM     27  N   UNL     1       2.008   1.757  12.471  0.00  0.00    +0.000 NA
ATOM     28  C   UNL     1       1.397   0.861  11.770  0.00  0.00    +0.000 A 
ATOM     29  N   UNL     1       1.795   0.436  10.529  0.00  0.00    +0.000 N 
ATOM     30  C   UNL     1       2.895   0.946   9.881  0.00  0.00    +0.000 A 
ATOM     31  O   UNL     1       3.201   0.572   8.754  0.00  0.00    +0.000 OA
ATOM     32  C   UNL     1       3.625   1.949  10.632  0.00  0.00    +0.000 A 
ATOM     33  H   UNL     1       1.268  -0.265  10.029  0.00  0.00    +0.000 HD
ENDBRANCH  20  23
ENDBRANCH  18  19
ENDBRANCH   4  18
TORSDOF 6
