REMARK  Name = 
REMARK  6 active torsions:
REMARK  status: ('A' for Active; 'I' for Inactive)
REMARK    1  A    between atoms: C_1  and  C_2
REMARK    2  A    between atoms: C_2  and  N_3
REMARK    3  A    between atoms: C_2  and  C_16
REMARK    4  A    between atoms: C_4  and  C_6
REMARK    5  A    between atoms: C_19  and  O_20
REMARK    6  A    between atoms: O_20  and  C_21
REMARK                            x       y       z     vdW  Elec       q    Type
REMARK                         _______ _______ _______ _____ _____    ______ ____
ROOT
ATOM      1  C   UNL     1       0.996   0.029  -0.032  0.00  0.00    +0.000 C 
ATOM      2  C   UNL     1       2.524  -0.032   0.090  0.00  0.00    +0.000 C 
ENDROOT
BRANCH   2   3
ATOM      3  C   UNL     1       3.057  -0.844  -1.082  0.00  0.00    +0.000 A 
ATOM      4  C   UNL     1       3.379  -0.187  -2.278  0.00  0.00    +0.000 A 
ATOM      5  C   UNL     1       3.767  -0.912  -3.405  0.00  0.00    +0.000 A 
ATOM      6  C   UNL     1       3.888  -2.301  -3.344  0.00  0.00    +0.000 A 
ATOM      7  C   UNL     1       3.560  -2.969  -2.164  0.00  0.00    +0.000 A 
ATOM      8  C   UNL     1       3.141  -2.246  -1.043  0.00  0.00    +0.000 A 
BRANCH   6   9
ATOM      9  O   UNL     1       4.228  -3.090  -4.421  0.00  0.00    +0.000 OA
BRANCH   9  10
ATOM     10  C   UNL     1       5.178  -2.608  -5.313  0.00  0.00    +0.000 A 
ATOM     11  C   UNL     1       5.125  -3.109  -6.606  0.00  0.00    +0.000 A 
ATOM     12  C   UNL     1       6.057  -2.643  -7.529  0.00  0.00    +0.000 A 
ATOM     13  C   UNL     1       7.002  -1.702  -7.130  0.00  0.00    +0.000 A 
ATOM     14  C   UNL     1       6.986  -1.275  -5.812  0.00  0.00    +0.000 A 
ATOM     15  N   UNL     1       6.109  -1.721  -4.894  0.00  0.00    +0.000 NA
ENDBRANCH   9  10
ENDBRANCH   6   9
ENDBRANCH   2   3
BRANCH   2  16
ATOM     16  N   UNL     1       2.969  -0.577   1.364  0.00  0.00    +0.000 N 
ATOM     17  C   UNL     1       2.648   0.010   2.562  0.00  0.00    +0.000 C 
ATOM     18  O   UNL     1       1.931   1.003   2.643  0.00  0.00    +0.000 OA
ATOM     19  H   UNL     1       3.808  -1.150   1.336  0.00  0.00    +0.000 HD
BRANCH  17  20
ATOM     20  C   UNL     1       3.154  -0.645   3.772  0.00  0.00    +0.000 A 
ATOM     21  C   UNL     1       2.438  -0.529   4.956  0.00  0.00    +0.000 A 
ATOM     22  S   UNL     1       3.171  -1.319   6.277  0.00  0.00    +0.000 S 
ATOM     23  C   UNL     1       4.488  -1.812   5.318  0.00  0.00    +0.000 A 
ATOM     24  N   UNL     1       5.529  -2.498   5.860  0.00  0.00    +0.000 NA
ATOM     25  C   UNL     1       6.473  -2.779   5.026  0.00  0.00    +0.000 A 
ATOM     26  N   UNL     1       6.460  -2.456   3.692  0.00  0.00    +0.000 N 
ATOM     27  C   UNL     1       5.407  -1.808   3.091  0.00  0.00    +0.000 A 
ATOM     28  O   UNL     1       5.380  -1.606   1.884  0.00  0.00    +0.000 OA
ATOM     29  C   UNL     1       4.345  -1.422   3.998  0.00  0.00    +0.000 A 
ATOM     30  H   UNL     1       7.218  -2.735   3.086  0.00  0.00    +0.000 HD
ENDBRANCH  17  20
ENDBRANCH   2  16
TORSDOF 5
