REMARK  Name = 
REMARK  9 active torsions:
REMARK  status: ('A' for Active; 'I' for Inactive)
REMARK    1  A    between atoms: C_1  and  O_2
REMARK    2  A    between atoms: O_2  and  C_3
REMARK    3  A    between atoms: C_10  and  C_11
REMARK    4  A    between atoms: N_13  and  C_14
REMARK    5  A    between atoms: C_14  and  C_15
REMARK    6  A    between atoms: C_18  and  N_19
REMARK    7  A    between atoms: N_19  and  C_20
REMARK    8  A    between atoms: C_20  and  C_21
REMARK    9  A    between atoms: C_26  and  C_27
REMARK                            x       y       z     vdW  Elec       q    Type
REMARK                         _______ _______ _______ _____ _____    ______ ____
ROOT
ATOM      1  C   UNL     1       1.754   3.025   1.600  0.00  0.00    +0.000 A 
ATOM      2  C   UNL     1       0.690   2.192   1.242  0.00  0.00    +0.000 A 
ATOM      3  C   UNL     1      -0.340   2.666   0.423  0.00  0.00    +0.000 A 
ATOM      4  C   UNL     1      -0.347   3.983  -0.047  0.00  0.00    +0.000 A 
ATOM      5  C   UNL     1       0.692   4.827   0.367  0.00  0.00    +0.000 A 
ATOM      6  C   UNL     1       1.736   4.356   1.173  0.00  0.00    +0.000 A 
ENDROOT
BRANCH   4   7
ATOM      7  N   UNL     1      -1.272   4.481  -0.974  0.00  0.00    +0.000 N 
ATOM      8  H   UNL     1      -1.684   5.353  -0.643  0.00  0.00    +0.000 HD
BRANCH   7   9
ATOM      9  C   UNL     1      -2.282   3.577  -1.527  0.00  0.00    +0.000 C 
BRANCH   9  10
ATOM     10  C   UNL     1      -3.194   4.274  -2.558  0.00  0.00    +0.000 C 
ATOM     11  C   UNL     1      -2.422   4.770  -3.788  0.00  0.00    +0.000 C 
ATOM     12  C   UNL     1      -3.407   5.726  -4.446  0.00  0.00    +0.000 C 
ATOM     13  C   UNL     1      -4.140   6.365  -3.272  0.00  0.00    +0.000 C 
ATOM     14  N   UNL     1      -3.932   5.473  -2.138  0.00  0.00    +0.000 N 
ATOM     15  C   UNL     1      -4.569   5.580  -0.920  0.00  0.00    +0.000 C 
ATOM     16  C   UNL     1      -5.340   6.846  -0.636  0.00  0.00    +0.000 C 
ATOM     17  O   UNL     1      -4.491   4.714  -0.049  0.00  0.00    +0.000 OA
ENDBRANCH   9  10
ENDBRANCH   7   9
ENDBRANCH   4   7
BRANCH   1  18
ATOM     18  C   UNL     1       2.934   2.459   2.341  0.00  0.00    +0.000 C 
BRANCH  18  21
ATOM     19  C   UNL     1       4.713   0.859   1.767  0.00  0.00    +0.000 C 
ATOM     20  O   UNL     1       4.673   0.375   2.897  0.00  0.00    +0.000 OA
ATOM     21  N   UNL     1       3.876   1.879   1.407  0.00  0.00    +0.000 N 
ATOM     22  H   UNL     1       3.976   2.324   0.504  0.00  0.00    +0.000 HD
BRANCH  19  30
ATOM     23  C   UNL     1       5.471   1.743  -1.496  0.00  0.00    +0.000 A 
ATOM     24  N   UNL     1       5.941   1.833  -2.760  0.00  0.00    +0.000 NA
ATOM     25  C   UNL     1       6.873   0.958  -3.154  0.00  0.00    +0.000 A 
ATOM     26  N   UNL     1       7.409  -0.015  -2.427  0.00  0.00    +0.000 NA
ATOM     27  C   UNL     1       6.911  -0.077  -1.181  0.00  0.00    +0.000 A 
ATOM     28  S   UNL     1       7.497  -1.261  -0.117  0.00  0.00    +0.000 S 
ATOM     29  C   UNL     1       6.464  -0.729   1.118  0.00  0.00    +0.000 A 
ATOM     30  C   UNL     1       5.657   0.346   0.759  0.00  0.00    +0.000 A 
ATOM     31  C   UNL     1       5.937   0.746  -0.620  0.00  0.00    +0.000 A 
BRANCH  23  33
ATOM     32  C   UNL     1       4.142   3.580  -2.103  0.00  0.00    +0.000 C 
ATOM     33  O   UNL     1       4.540   2.671  -1.077  0.00  0.00    +0.000 OA
ENDBRANCH  23  33
ENDBRANCH  19  30
ENDBRANCH  18  21
ENDBRANCH   1  18
TORSDOF 7
