REMARK  Name = 
REMARK  6 active torsions:
REMARK  status: ('A' for Active; 'I' for Inactive)
REMARK    1  A    between atoms: C_2  and  C_4
REMARK    2  A    between atoms: N_8  and  C_9
REMARK    3  A    between atoms: C_9  and  C_10
REMARK    4  A    between atoms: C_10  and  C_13
REMARK    5  A    between atoms: C_17  and  O_18
REMARK    6  A    between atoms: O_18  and  C_19
REMARK                            x       y       z     vdW  Elec       q    Type
REMARK                         _______ _______ _______ _____ _____    ______ ____
ROOT
ATOM      1  C   UNL     1       6.086  -3.344  -6.313  0.00  0.00    +0.000 C 
ATOM      2  F   UNL     1       7.363  -2.925  -6.075  0.00  0.00    +0.000 F 
ATOM      3  F   UNL     1       6.038  -4.635  -5.868  0.00  0.00    +0.000 F 
ENDROOT
BRANCH   1   4
ATOM      4  C   UNL     1       5.701  -3.227  -7.776  0.00  0.00    +0.000 A 
ATOM      5  C   UNL     1       4.792  -4.128  -8.345  0.00  0.00    +0.000 A 
ATOM      6  C   UNL     1       4.351  -3.950  -9.659  0.00  0.00    +0.000 A 
ATOM      7  C   UNL     1       4.816  -2.873 -10.421  0.00  0.00    +0.000 A 
ATOM      8  C   UNL     1       5.743  -1.986  -9.875  0.00  0.00    +0.000 A 
ATOM      9  C   UNL     1       6.180  -2.164  -8.560  0.00  0.00    +0.000 A 
BRANCH   8  10
ATOM     10  O   UNL     1       6.248  -0.877 -10.507  0.00  0.00    +0.000 OA
BRANCH  10  11
ATOM     11  C   UNL     1       6.264  -0.822 -11.953  0.00  0.00    +0.000 C 
ATOM     12  C   UNL     1       7.222  -1.767 -12.703  0.00  0.00    +0.000 C 
ATOM     13  N   UNL     1       7.797  -0.633 -13.441  0.00  0.00    +0.000 NA
ATOM     14  C   UNL     1       7.117   0.320 -12.553  0.00  0.00    +0.000 C 
ATOM     15  H   UNL     1       7.507  -0.575 -14.416  0.00  0.00    +0.000 HD
ENDBRANCH  10  11
ENDBRANCH   8  10
ENDBRANCH   1   4
BRANCH   1  16
ATOM     16  C   UNL     1       5.112  -2.488  -5.466  0.00  0.00    +0.000 C 
BRANCH  16  21
ATOM     17  C   UNL     1       3.085  -0.720  -1.100  0.00  0.00    +0.000 A 
ATOM     18  C   UNL     1       2.753  -0.478  -2.428  0.00  0.00    +0.000 A 
ATOM     19  C   UNL     1       3.504  -1.088  -3.431  0.00  0.00    +0.000 A 
ATOM     20  C   UNL     1       4.573  -1.917  -3.096  0.00  0.00    +0.000 A 
ATOM     21  N   UNL     1       5.340  -2.559  -4.029  0.00  0.00    +0.000 N 
ATOM     22  N   UNL     1       4.915  -2.133  -1.812  0.00  0.00    +0.000 NA
ATOM     23  C   UNL     1       4.177  -1.531  -0.843  0.00  0.00    +0.000 A 
ATOM     24  H   UNL     1       6.105  -3.110  -3.654  0.00  0.00    +0.000 HD
BRANCH  17  26
ATOM     25  N   UNL     1       1.005   0.131  -0.200  0.00  0.00    +0.000 N 
ATOM     26  C   UNL     1       2.326  -0.139   0.023  0.00  0.00    +0.000 C 
ATOM     27  O   UNL     1       2.841   0.053   1.115  0.00  0.00    +0.000 OA
ATOM     28  H   UNL     1       0.469   0.424   0.611  0.00  0.00    +0.000 HD
ATOM     29  H   UNL     1       0.496  -0.259  -0.980  0.00  0.00    +0.000 HD
ENDBRANCH  17  26
ENDBRANCH  16  21
ENDBRANCH   1  16
TORSDOF 6
