REMARK  Name = 
REMARK  5 active torsions:
REMARK  status: ('A' for Active; 'I' for Inactive)
REMARK    1  A    between atoms: C_2  and  C_4
REMARK    2  A    between atoms: N_8  and  C_9
REMARK    3  A    between atoms: C_9  and  C_10
REMARK    4  A    between atoms: C_10  and  C_13
REMARK    5  A    between atoms: C_17  and  C_18
REMARK                            x       y       z     vdW  Elec       q    Type
REMARK                         _______ _______ _______ _____ _____    ______ ____
ROOT
ATOM      1  C   UNL     1       6.189  -2.041   6.687  0.00  0.00    +0.000 C 
ATOM      2  F   UNL     1       6.990  -2.398   5.634  0.00  0.00    +0.000 F 
ATOM      3  F   UNL     1       6.871  -1.039   7.322  0.00  0.00    +0.000 F 
ENDROOT
BRANCH   1   4
ATOM      4  C   UNL     1       5.932  -3.213   7.613  0.00  0.00    +0.000 A 
ATOM      5  C   UNL     1       5.856  -4.524   7.118  0.00  0.00    +0.000 A 
ATOM      6  C   UNL     1       5.709  -5.605   7.979  0.00  0.00    +0.000 A 
ATOM      7  C   UNL     1       5.680  -5.390   9.358  0.00  0.00    +0.000 A 
ATOM      8  C   UNL     1       5.780  -4.092   9.882  0.00  0.00    +0.000 A 
ATOM      9  C   UNL     1       5.843  -3.006   9.000  0.00  0.00    +0.000 A 
BRANCH   8  10
ATOM     10  C   UNL     1       5.991  -3.863  11.366  0.00  0.00    +0.000 C 
ATOM     11  C   UNL     1       7.314  -4.517  11.803  0.00  0.00    +0.000 C 
ATOM     12  C   UNL     1       7.510  -4.407  13.304  0.00  0.00    +0.000 C 
ATOM     13  O   UNL     1       6.383  -4.940  13.997  0.00  0.00    +0.000 OA
ATOM     14  C   UNL     1       5.182  -4.227  13.705  0.00  0.00    +0.000 C 
ATOM     15  C   UNL     1       4.826  -4.354  12.230  0.00  0.00    +0.000 C 
ENDBRANCH   8  10
ENDBRANCH   1   4
BRANCH   1  16
ATOM     16  C   UNL     1       4.877  -1.454   6.119  0.00  0.00    +0.000 C 
BRANCH  16  21
ATOM     17  C   UNL     1       2.027   1.807   3.422  0.00  0.00    +0.000 A 
ATOM     18  C   UNL     1       1.739   1.136   4.604  0.00  0.00    +0.000 A 
ATOM     19  C   UNL     1       2.748   0.406   5.223  0.00  0.00    +0.000 A 
ATOM     20  C   UNL     1       4.028   0.371   4.672  0.00  0.00    +0.000 A 
ATOM     21  N   UNL     1       5.081  -0.238   5.320  0.00  0.00    +0.000 N 
ATOM     22  N   UNL     1       4.309   1.008   3.521  0.00  0.00    +0.000 NA
ATOM     23  C   UNL     1       3.306   1.696   2.909  0.00  0.00    +0.000 A 
ATOM     24  H   UNL     1       5.953  -0.171   4.785  0.00  0.00    +0.000 HD
BRANCH  17  26
ATOM     25  N   UNL     1       0.036   3.184   3.474  0.00  0.00    +0.000 N 
ATOM     26  C   UNL     1       1.006   2.609   2.716  0.00  0.00    +0.000 C 
ATOM     27  O   UNL     1       1.055   2.770   1.497  0.00  0.00    +0.000 OA
ATOM     28  H   UNL     1      -0.606   3.808   2.997  0.00  0.00    +0.000 HD
ATOM     29  H   UNL     1       0.114   3.275   4.478  0.00  0.00    +0.000 HD
ENDBRANCH  17  26
ENDBRANCH  16  21
ENDBRANCH   1  16
TORSDOF 5
