REMARK  Name = 
REMARK  8 active torsions:
REMARK  status: ('A' for Active; 'I' for Inactive)
REMARK    1  A    between atoms: C_1  and  O_2
REMARK    2  A    between atoms: O_2  and  C_3
REMARK    3  A    between atoms: C_7  and  C_8
REMARK    4  A    between atoms: N_14  and  C_15
REMARK    5  A    between atoms: C_15  and  C_16
REMARK    6  A    between atoms: C_19  and  O_20
REMARK    7  A    between atoms: O_20  and  C_21
REMARK    8  A    between atoms: C_21  and  C_22
REMARK                            x       y       z     vdW  Elec       q    Type
REMARK                         _______ _______ _______ _____ _____    ______ ____
ROOT
ATOM      1  C   UNL     1       3.036  -0.277   1.222  0.00  0.00    +0.000 A 
ATOM      2  N   UNL     1       4.003   0.506   1.656  0.00  0.00    +0.000 NA
ATOM      3  C   UNL     1       4.425  -0.063   2.823  0.00  0.00    +0.000 A 
ATOM      4  C   UNL     1       5.450   0.319   3.702  0.00  0.00    +0.000 A 
ATOM      5  C   UNL     1       5.652  -0.479   4.836  0.00  0.00    +0.000 A 
ATOM      6  C   UNL     1       4.831  -1.598   5.011  0.00  0.00    +0.000 A 
ATOM      7  N   UNL     1       3.825  -2.011   4.187  0.00  0.00    +0.000 NA
ATOM      8  C   UNL     1       3.682  -1.202   3.119  0.00  0.00    +0.000 A 
ATOM      9  N   UNL     1       2.777  -1.310   2.090  0.00  0.00    +0.000 N 
ENDROOT
BRANCH   5  10
ATOM     10  C   UNL     1       6.679  -0.203   5.874  0.00  0.00    +0.000 C 
ATOM     11  N   UNL     1       7.495   0.886   5.739  0.00  0.00    +0.000 N 
ATOM     12  O   UNL     1       6.799  -0.933   6.849  0.00  0.00    +0.000 OA
ATOM     13  H   UNL     1       7.467   1.548   4.975  0.00  0.00    +0.000 HD
ATOM     14  H   UNL     1       8.170   1.046   6.475  0.00  0.00    +0.000 HD
ENDBRANCH   5  10
BRANCH   1  16
ATOM     15  C   UNL     1       2.943   0.862  -0.798  0.00  0.00    +0.000 C 
ATOM     16  O   UNL     1       2.396  -0.132   0.064  0.00  0.00    +0.000 OA
ENDBRANCH   1  16
BRANCH   9  17
ATOM     17  C   UNL     1       1.700  -2.279   2.017  0.00  0.00    +0.000 C 
BRANCH  17  18
ATOM     18  C   UNL     1       1.702  -3.129   0.775  0.00  0.00    +0.000 A 
ATOM     19  C   UNL     1       2.404  -4.335   0.719  0.00  0.00    +0.000 A 
ATOM     20  C   UNL     1       2.258  -5.160  -0.392  0.00  0.00    +0.000 A 
ATOM     21  C   UNL     1       1.461  -4.726  -1.437  0.00  0.00    +0.000 A 
ATOM     22  N   UNL     1       0.801  -3.551  -1.444  0.00  0.00    +0.000 NA
ATOM     23  C   UNL     1       0.932  -2.785  -0.337  0.00  0.00    +0.000 A 
BRANCH  21  24
ATOM     24  O   UNL     1       1.268  -5.615  -2.470  0.00  0.00    +0.000 OA
BRANCH  24  25
ATOM     25  C   UNL     1       1.032  -4.965  -3.721  0.00  0.00    +0.000 C 
BRANCH  25  26
ATOM     26  C   UNL     1       0.855  -6.043  -4.776  0.00  0.00    +0.000 C 
ATOM     27  F   UNL     1       1.991  -6.790  -4.860  0.00  0.00    +0.000 F 
ENDBRANCH  25  26
ENDBRANCH  24  25
ENDBRANCH  21  24
ENDBRANCH  17  18
ENDBRANCH   9  17
TORSDOF 7
