REMARK  Name = 
REMARK  4 active torsions:
REMARK  status: ('A' for Active; 'I' for Inactive)
REMARK    1  A    between atoms: C_2  and  C_3
REMARK    2  A    between atoms: N_7  and  C_8
REMARK    3  A    between atoms: C_8  and  C_9
REMARK    4  A    between atoms: C_13  and  N_14
REMARK                            x       y       z     vdW  Elec       q    Type
REMARK                         _______ _______ _______ _____ _____    ______ ____
ROOT
ATOM      1  C   UNL     1       4.308   1.184  -0.004  0.00  0.00    +0.000 C 
ATOM      2  C   UNL     1       2.959   0.598  -0.428  0.00  0.00    +0.000 C 
ATOM      3  C   UNL     1       3.157   1.033   0.983  0.00  0.00    +0.000 C 
ENDROOT
BRANCH   1   8
ATOM      4  C   UNL     1       3.038   5.288  -2.827  0.00  0.00    +0.000 A 
ATOM      5  C   UNL     1       2.330   4.230  -2.324  0.00  0.00    +0.000 A 
ATOM      6  N   UNL     1       2.871   3.319  -1.494  0.00  0.00    +0.000 NA
ATOM      7  C   UNL     1       4.162   3.456  -1.134  0.00  0.00    +0.000 A 
ATOM      8  N   UNL     1       4.770   2.546  -0.281  0.00  0.00    +0.000 N 
ATOM      9  N   UNL     1       4.914   4.486  -1.558  0.00  0.00    +0.000 NA
ATOM     10  C   UNL     1       4.343   5.370  -2.408  0.00  0.00    +0.000 A 
ATOM     11  H   UNL     1       5.702   2.848  -0.033  0.00  0.00    +0.000 HD
BRANCH   4  13
ATOM     12  N   UNL     1       1.987   6.980  -4.462  0.00  0.00    +0.000 NA
ATOM     13  C   UNL     1       2.464   6.225  -3.724  0.00  0.00    +0.000 C 
ENDBRANCH   4  13
ENDBRANCH   1   8
BRANCH   1  14
ATOM     14  C   UNL     1       5.407   0.117  -0.014  0.00  0.00    +0.000 A 
ATOM     15  C   UNL     1       5.937  -0.412   1.171  0.00  0.00    +0.000 A 
ATOM     16  C   UNL     1       6.582  -1.646   1.167  0.00  0.00    +0.000 A 
ATOM     17  C   UNL     1       6.703  -2.363  -0.025  0.00  0.00    +0.000 A 
ATOM     18  C   UNL     1       6.274  -1.826  -1.243  0.00  0.00    +0.000 A 
ATOM     19  C   UNL     1       5.705  -0.548  -1.221  0.00  0.00    +0.000 A 
BRANCH  18  20
ATOM     20  N   UNL     1       6.280  -2.554  -2.410  0.00  0.00    +0.000 N 
ATOM     21  C   UNL     1       5.874  -3.961  -2.453  0.00  0.00    +0.000 C 
ATOM     22  C   UNL     1       7.050  -4.826  -2.917  0.00  0.00    +0.000 C 
ATOM     23  O   UNL     1       7.588  -4.359  -4.168  0.00  0.00    +0.000 OA
ATOM     24  C   UNL     1       8.040  -2.996  -4.045  0.00  0.00    +0.000 C 
ATOM     25  C   UNL     1       6.898  -2.047  -3.637  0.00  0.00    +0.000 C 
ENDBRANCH  18  20
ENDBRANCH   1  14
TORSDOF 4
