REMARK  Name = 
REMARK  8 active torsions:
REMARK  status: ('A' for Active; 'I' for Inactive)
REMARK    1  A    between atoms: C_1  and  O_2
REMARK    2  A    between atoms: O_2  and  C_3
REMARK    3  A    between atoms: C_5  and  C_6
REMARK    4  A    between atoms: C_11  and  N_12
REMARK    5  A    between atoms: N_12  and  C_13
REMARK    6  A    between atoms: C_13  and  C_14
REMARK    7  A    between atoms: C_17  and  O_18
REMARK    8  A    between atoms: O_18  and  C_19
REMARK                            x       y       z     vdW  Elec       q    Type
REMARK                         _______ _______ _______ _____ _____    ______ ____
ROOT
ATOM      1  N   UNL     1       4.311   0.074   1.473  0.00  0.00    +0.000 N 
ATOM      2  H   UNL     1       4.872  -0.230   0.683  0.00  0.00    +0.000 HD
ENDROOT
BRANCH   1   8
ATOM      3  C   UNL     1       2.938  -1.115   3.211  0.00  0.00    +0.000 A 
ATOM      4  C   UNL     1       2.475  -2.379   3.619  0.00  0.00    +0.000 A 
ATOM      5  C   UNL     1       2.843  -3.539   2.926  0.00  0.00    +0.000 A 
ATOM      6  C   UNL     1       3.657  -3.376   1.828  0.00  0.00    +0.000 A 
ATOM      7  N   UNL     1       4.106  -2.175   1.391  0.00  0.00    +0.000 NA
ATOM      8  C   UNL     1       3.746  -1.050   2.063  0.00  0.00    +0.000 A 
BRANCH   5   9
ATOM      9  C   UNL     1       2.365  -4.855   3.412  0.00  0.00    +0.000 C 
ATOM     10  N   UNL     1       2.701  -5.983   2.714  0.00  0.00    +0.000 N 
ATOM     11  O   UNL     1       1.686  -4.944   4.424  0.00  0.00    +0.000 OA
ATOM     12  H   UNL     1       3.241  -6.026   1.866  0.00  0.00    +0.000 HD
ATOM     13  H   UNL     1       2.356  -6.859   3.090  0.00  0.00    +0.000 HD
ENDBRANCH   5   9
BRANCH   3  15
ATOM     14  C   UNL     1       2.160  -0.127   5.238  0.00  0.00    +0.000 C 
ATOM     15  O   UNL     1       2.634   0.031   3.900  0.00  0.00    +0.000 OA
ENDBRANCH   3  15
ENDBRANCH   1   8
BRANCH   1  16
ATOM     16  C   UNL     1       3.965   1.484   1.573  0.00  0.00    +0.000 C 
ATOM     17  C   UNL     1       2.538   1.987   1.658  0.00  0.00    +0.000 C 
ATOM     18  C   UNL     1       3.258   2.111   0.363  0.00  0.00    +0.000 C 
BRANCH  16  19
ATOM     19  C   UNL     1       5.057   2.341   2.205  0.00  0.00    +0.000 A 
ATOM     20  C   UNL     1       5.944   3.106   1.426  0.00  0.00    +0.000 A 
ATOM     21  C   UNL     1       6.754   4.089   1.998  0.00  0.00    +0.000 A 
ATOM     22  C   UNL     1       6.690   4.321   3.367  0.00  0.00    +0.000 A 
ATOM     23  C   UNL     1       5.956   3.452   4.174  0.00  0.00    +0.000 A 
ATOM     24  C   UNL     1       5.151   2.470   3.596  0.00  0.00    +0.000 A 
BRANCH  22  25
ATOM     25  O   UNL     1       7.333   5.329   4.016  0.00  0.00    +0.000 OA
BRANCH  25  26
ATOM     26  C   UNL     1       7.370   6.607   3.386  0.00  0.00    +0.000 C 
ATOM     27  F   UNL     1       6.717   6.677   2.206  0.00  0.00    +0.000 F 
ATOM     28  F   UNL     1       6.814   7.520   4.216  0.00  0.00    +0.000 F 
ATOM     29  F   UNL     1       8.659   6.955   3.183  0.00  0.00    +0.000 F 
ENDBRANCH  25  26
ENDBRANCH  22  25
ENDBRANCH  16  19
ENDBRANCH   1  16
TORSDOF 7
