REMARK  Name = 
REMARK  5 active torsions:
REMARK  status: ('A' for Active; 'I' for Inactive)
REMARK    1  A    between atoms: C_1  and  O_2
REMARK    2  A    between atoms: O_2  and  C_3
REMARK    3  A    between atoms: C_5  and  C_6
REMARK    4  A    between atoms: C_6  and  C_7
REMARK    5  A    between atoms: C_13  and  C_14
REMARK                            x       y       z     vdW  Elec       q    Type
REMARK                         _______ _______ _______ _____ _____    ______ ____
ROOT
ATOM      1  C   UNL     1       1.852  -5.222   2.324  0.00  0.00    +0.000 A 
ATOM      2  N   UNL     1       1.154  -5.855   3.286  0.00  0.00    +0.000 NA
ATOM      3  C   UNL     1       0.014  -6.479   2.883  0.00  0.00    +0.000 A 
ATOM      4  C   UNL     1      -0.477  -6.502   1.589  0.00  0.00    +0.000 A 
ATOM      5  N   UNL     1      -1.641  -7.106   1.213  0.00  0.00    +0.000 NA
ATOM      6  C   UNL     1      -2.003  -6.999  -0.093  0.00  0.00    +0.000 A 
ATOM      7  C   UNL     1      -1.253  -6.325  -1.042  0.00  0.00    +0.000 A 
ATOM      8  C   UNL     1      -0.053  -5.751  -0.616  0.00  0.00    +0.000 A 
ATOM      9  C   UNL     1       0.349  -5.816   0.698  0.00  0.00    +0.000 A 
ATOM     10  N   UNL     1       1.487  -5.192   1.034  0.00  0.00    +0.000 NA
ENDROOT
BRANCH   7  11
ATOM     11  C   UNL     1      -1.627  -6.142  -2.463  0.00  0.00    +0.000 C 
ATOM     12  N   UNL     1      -2.832  -6.600  -2.905  0.00  0.00    +0.000 N 
ATOM     13  O   UNL     1      -0.878  -5.563  -3.241  0.00  0.00    +0.000 OA
ATOM     14  H   UNL     1      -3.553  -7.029  -2.348  0.00  0.00    +0.000 HD
ATOM     15  H   UNL     1      -3.047  -6.396  -3.875  0.00  0.00    +0.000 HD
ENDBRANCH   7  11
BRANCH   1  16
ATOM     16  C   UNL     1       3.088  -4.438   2.696  0.00  0.00    +0.000 C 
BRANCH  16  19
ATOM     17  C   UNL     1       6.292  -6.094   1.504  0.00  0.00    +0.000 A 
ATOM     18  C   UNL     1       5.147  -5.309   1.481  0.00  0.00    +0.000 A 
ATOM     19  C   UNL     1       4.366  -5.238   2.642  0.00  0.00    +0.000 A 
ATOM     20  C   UNL     1       4.783  -5.952   3.768  0.00  0.00    +0.000 A 
ATOM     21  C   UNL     1       5.958  -6.678   3.700  0.00  0.00    +0.000 A 
ATOM     22  N   UNL     1       6.724  -6.763   2.595  0.00  0.00    +0.000 NA
BRANCH  17  24
ATOM     23  C   UNL     1       7.857  -7.340   0.324  0.00  0.00    +0.000 C 
ATOM     24  O   UNL     1       7.019  -6.185   0.333  0.00  0.00    +0.000 OA
ENDBRANCH  17  24
ENDBRANCH  16  19
ENDBRANCH   1  16
TORSDOF 4
