REMARK  Name = 
REMARK  12 active torsions:
REMARK  status: ('A' for Active; 'I' for Inactive)
REMARK    1  A    between atoms: C_1  and  C_2
REMARK    2  A    between atoms: C_2  and  C_3
REMARK    3  A    between atoms: C_3  and  N_4
REMARK    4  A    between atoms: C_3  and  C_23
REMARK    5  A    between atoms: N_4  and  C_5
REMARK    6  A    between atoms: C_5  and  C_6
REMARK    7  A    between atoms: C_9  and  C_10
REMARK    8  A    between atoms: C_10  and  O_11
REMARK    9  A    between atoms: C_10  and  C_12
REMARK   10  A    between atoms: C_12  and  C_13
REMARK   11  A    between atoms: C_16  and  C_17
REMARK   12  A    between atoms: C_17  and  O_18
REMARK                            x       y       z     vdW  Elec       q    Type
REMARK                         _______ _______ _______ _____ _____    ______ ____
ROOT
ATOM      1  C   UNL     1       2.786   1.928  -1.014  0.00  0.00    +0.000 A 
ATOM      2  C   UNL     1       1.510   2.463  -0.818  0.00  0.00    +0.000 A 
ATOM      3  C   UNL     1       1.121   3.595  -1.538  0.00  0.00    +0.000 A 
ATOM      4  C   UNL     1       2.019   4.150  -2.447  0.00  0.00    +0.000 A 
ATOM      5  N   UNL     1       3.277   3.663  -2.606  0.00  0.00    +0.000 NA
ATOM      6  C   UNL     1       3.620   2.570  -1.916  0.00  0.00    +0.000 A 
ENDROOT
BRANCH   1   7
ATOM      7  C   UNL     1       3.339   0.786  -0.220  0.00  0.00    +0.000 C 
BRANCH   7   8
ATOM      8  N   UNL     1       2.595  -0.462  -0.353  0.00  0.00    +0.000 NA
ATOM      9  H   UNL     1       2.595  -0.798  -1.320  0.00  0.00    +0.000 HD
BRANCH   8  10
ATOM     10  C   UNL     1       3.162  -1.490   0.529  0.00  0.00    +0.000 C 
BRANCH  10  11
ATOM     11  C   UNL     1       4.570  -1.871   0.098  0.00  0.00    +0.000 A 
ATOM     12  C   UNL     1       5.678  -1.586   0.886  0.00  0.00    +0.000 A 
ATOM     13  S   UNL     1       7.141  -2.192   0.254  0.00  0.00    +0.000 S 
ATOM     14  C   UNL     1       6.343  -2.874  -1.084  0.00  0.00    +0.000 A 
ATOM     15  N   UNL     1       7.013  -3.644  -1.982  0.00  0.00    +0.000 NA
ATOM     16  C   UNL     1       6.273  -4.115  -2.930  0.00  0.00    +0.000 A 
ATOM     17  N   UNL     1       4.938  -3.835  -3.094  0.00  0.00    +0.000 N 
ATOM     18  C   UNL     1       4.257  -2.950  -2.286  0.00  0.00    +0.000 A 
ATOM     19  O   UNL     1       3.148  -2.519  -2.583  0.00  0.00    +0.000 OA
ATOM     20  C   UNL     1       5.000  -2.540  -1.109  0.00  0.00    +0.000 A 
ATOM     21  H   UNL     1       4.447  -4.167  -3.911  0.00  0.00    +0.000 HD
ENDBRANCH  10  11
BRANCH  10  23
ATOM     22  C   UNL     1       2.619  -3.650   1.764  0.00  0.00    +0.000 C 
ATOM     23  C   UNL     1       2.192  -2.673   0.671  0.00  0.00    +0.000 C 
ENDBRANCH  10  23
ENDBRANCH   8  10
ENDBRANCH   7   8
ENDBRANCH   1   7
BRANCH   4  24
ATOM     24  C   UNL     1       1.653   5.362  -3.283  0.00  0.00    +0.000 C 
BRANCH  24  25
ATOM     25  O   UNL     1       1.982   6.547  -2.549  0.00  0.00    +0.000 OA
ATOM     26  H   UNL     1       2.892   6.418  -2.225  0.00  0.00    +0.000 HD
ENDBRANCH  24  25
BRANCH  24  27
ATOM     27  C   UNL     1       2.447   5.308  -4.608  0.00  0.00    +0.000 C 
BRANCH  27  28
ATOM     28  C   UNL     1       2.217   6.397  -5.623  0.00  0.00    +0.000 A 
ATOM     29  C   UNL     1       3.281   6.743  -6.472  0.00  0.00    +0.000 A 
ATOM     30  C   UNL     1       3.135   7.745  -7.428  0.00  0.00    +0.000 A 
ATOM     31  C   UNL     1       1.914   8.412  -7.561  0.00  0.00    +0.000 A 
ATOM     32  C   UNL     1       0.838   8.036  -6.746  0.00  0.00    +0.000 A 
ATOM     33  C   UNL     1       0.987   7.032  -5.790  0.00  0.00    +0.000 A 
BRANCH  31  34
ATOM     34  C   UNL     1       1.757   9.538  -8.542  0.00  0.00    +0.000 C 
BRANCH  34  35
ATOM     35  O   UNL     1       0.770   9.224  -9.513  0.00  0.00    +0.000 OA
ATOM     36  H   UNL     1       0.859   8.275  -9.709  0.00  0.00    +0.000 HD
ENDBRANCH  34  35
ENDBRANCH  31  34
ENDBRANCH  27  28
ENDBRANCH  24  27
ENDBRANCH   4  24
TORSDOF 11
