REMARK  Name = 
REMARK  9 active torsions:
REMARK  status: ('A' for Active; 'I' for Inactive)
REMARK    1  A    between atoms: C_1  and  C_2
REMARK    2  A    between atoms: C_2  and  N_3
REMARK    3  A    between atoms: C_2  and  C_26
REMARK    4  A    between atoms: N_3  and  C_4
REMARK    5  A    between atoms: C_4  and  C_5
REMARK    6  A    between atoms: C_8  and  C_9
REMARK    7  A    between atoms: C_9  and  N_10
REMARK    8  A    between atoms: N_10  and  C_11
REMARK    9  A    between atoms: C_12  and  C_14
REMARK                            x       y       z     vdW  Elec       q    Type
REMARK                         _______ _______ _______ _____ _____    ______ ____
ROOT
ATOM      1  C   UNL     1       2.824  -2.010   3.199  0.00  0.00    +0.000 A 
ATOM      2  C   UNL     1       2.987  -1.697   4.555  0.00  0.00    +0.000 A 
ATOM      3  C   UNL     1       3.277  -2.694   5.487  0.00  0.00    +0.000 A 
ATOM      4  C   UNL     1       3.381  -4.038   5.098  0.00  0.00    +0.000 A 
ATOM      5  C   UNL     1       3.166  -4.363   3.753  0.00  0.00    +0.000 A 
ATOM      6  C   UNL     1       2.900  -3.358   2.814  0.00  0.00    +0.000 A 
ENDROOT
BRANCH   1   7
ATOM      7  C   UNL     1       2.522  -0.932   2.182  0.00  0.00    +0.000 C 
BRANCH   7   8
ATOM      8  N   UNL     1       3.569   0.092   2.126  0.00  0.00    +0.000 NA
ATOM      9  H   UNL     1       3.698   0.482   3.060  0.00  0.00    +0.000 HD
BRANCH   8  11
ATOM     10  C   UNL     1       3.043   0.789  -0.225  0.00  0.00    +0.000 C 
ATOM     11  C   UNL     1       3.210   1.220   1.238  0.00  0.00    +0.000 C 
BRANCH  11  12
ATOM     12  C   UNL     1       4.244   2.341   1.329  0.00  0.00    +0.000 A 
ATOM     13  C   UNL     1       5.571   2.131   0.947  0.00  0.00    +0.000 A 
ATOM     14  C   UNL     1       6.474   3.188   1.013  0.00  0.00    +0.000 A 
ATOM     15  C   UNL     1       6.040   4.426   1.466  0.00  0.00    +0.000 A 
ATOM     16  C   UNL     1       4.712   4.553   1.842  0.00  0.00    +0.000 A 
ATOM     17  N   UNL     1       3.812   3.547   1.786  0.00  0.00    +0.000 NA
ENDBRANCH  11  12
ENDBRANCH   8  11
ENDBRANCH   7   8
ENDBRANCH   1   7
BRANCH   4  18
ATOM     18  C   UNL     1       3.778  -5.097   6.102  0.00  0.00    +0.000 C 
BRANCH  18  19
ATOM     19  N   UNL     1       2.696  -5.804   6.793  0.00  0.00    +0.000 N 
ATOM     20  C   UNL     1       1.467  -5.079   7.095  0.00  0.00    +0.000 C 
ATOM     21  C   UNL     1       3.045  -7.041   7.371  0.00  0.00    +0.000 C 
ATOM     22  O   UNL     1       4.178  -7.503   7.237  0.00  0.00    +0.000 OA
BRANCH  21  23
ATOM     23  C   UNL     1       2.032  -7.809   8.106  0.00  0.00    +0.000 A 
ATOM     24  C   UNL     1       0.717  -7.955   7.693  0.00  0.00    +0.000 A 
ATOM     25  S   UNL     1      -0.219  -8.934   8.731  0.00  0.00    +0.000 S 
ATOM     26  C   UNL     1       1.136  -9.308   9.689  0.00  0.00    +0.000 A 
ATOM     27  N   UNL     1       1.037 -10.189  10.721  0.00  0.00    +0.000 NA
ATOM     28  C   UNL     1       2.157 -10.431  11.316  0.00  0.00    +0.000 A 
ATOM     29  N   UNL     1       3.357  -9.847  10.996  0.00  0.00    +0.000 N 
ATOM     30  C   UNL     1       3.478  -8.849  10.048  0.00  0.00    +0.000 A 
ATOM     31  O   UNL     1       4.510  -8.197   9.957  0.00  0.00    +0.000 OA
ATOM     32  C   UNL     1       2.268  -8.630   9.274  0.00  0.00    +0.000 A 
ATOM     33  H   UNL     1       4.184 -10.034  11.542  0.00  0.00    +0.000 HD
ENDBRANCH  21  23
ENDBRANCH  18  19
ENDBRANCH   4  18
TORSDOF 7
