REMARK  Name = 
REMARK  4 active torsions:
REMARK  status: ('A' for Active; 'I' for Inactive)
REMARK    1  A    between atoms: C_2  and  C_4
REMARK    2  A    between atoms: N_8  and  C_9
REMARK    3  A    between atoms: C_9  and  C_10
REMARK    4  A    between atoms: C_14  and  C_15
REMARK                            x       y       z     vdW  Elec       q    Type
REMARK                         _______ _______ _______ _____ _____    ______ ____
ROOT
ATOM      1  C   UNL     1       5.128  -5.484  -2.698  0.00  0.00    +0.000 C 
ENDROOT
BRANCH   1   6
ATOM      2  C   UNL     1       5.163  -3.732   2.165  0.00  0.00    +0.000 A 
ATOM      3  C   UNL     1       6.083  -3.559   1.138  0.00  0.00    +0.000 A 
ATOM      4  C   UNL     1       5.841  -4.155  -0.099  0.00  0.00    +0.000 A 
ATOM      5  C   UNL     1       4.697  -4.921  -0.290  0.00  0.00    +0.000 A 
ATOM      6  N   UNL     1       4.340  -5.468  -1.490  0.00  0.00    +0.000 N 
ATOM      7  N   UNL     1       3.820  -5.128   0.713  0.00  0.00    +0.000 NA
ATOM      8  C   UNL     1       4.069  -4.544   1.915  0.00  0.00    +0.000 A 
ATOM      9  H   UNL     1       3.543  -6.087  -1.412  0.00  0.00    +0.000 HD
BRANCH   2  11
ATOM     10  N   UNL     1       6.035  -1.934   3.541  0.00  0.00    +0.000 N 
ATOM     11  C   UNL     1       5.315  -3.098   3.489  0.00  0.00    +0.000 C 
ATOM     12  O   UNL     1       4.789  -3.565   4.489  0.00  0.00    +0.000 OA
ATOM     13  H   UNL     1       6.046  -1.451   4.431  0.00  0.00    +0.000 HD
ATOM     14  H   UNL     1       6.260  -1.396   2.717  0.00  0.00    +0.000 HD
ENDBRANCH   2  11
ENDBRANCH   1   6
BRANCH   1  15
ATOM     15  C   UNL     1       6.142  -6.602  -2.689  0.00  0.00    +0.000 A 
ATOM     16  C   UNL     1       7.513  -6.331  -2.762  0.00  0.00    +0.000 A 
ATOM     17  C   UNL     1       8.435  -7.374  -2.761  0.00  0.00    +0.000 A 
ATOM     18  C   UNL     1       7.996  -8.698  -2.682  0.00  0.00    +0.000 A 
ATOM     19  C   UNL     1       6.629  -9.011  -2.594  0.00  0.00    +0.000 A 
ATOM     20  C   UNL     1       5.718  -7.940  -2.612  0.00  0.00    +0.000 A 
BRANCH  19  21
ATOM     21  C   UNL     1       6.162 -10.404  -2.452  0.00  0.00    +0.000 A 
ATOM     22  C   UNL     1       6.852 -11.340  -1.670  0.00  0.00    +0.000 A 
ATOM     23  N   UNL     1       6.477 -12.630  -1.475  0.00  0.00    +0.000 NA
ATOM     24  C   UNL     1       5.334 -13.018  -2.081  0.00  0.00    +0.000 A 
ATOM     25  C   UNL     1       4.571 -12.179  -2.869  0.00  0.00    +0.000 A 
ATOM     26  F   UNL     1       3.441 -12.617  -3.438  0.00  0.00    +0.000 F 
ATOM     27  C   UNL     1       4.987 -10.867  -3.063  0.00  0.00    +0.000 A 
ENDBRANCH  19  21
ENDBRANCH   1  15
TORSDOF 4
