REMARK  Name = 
REMARK  11 active torsions:
REMARK  status: ('A' for Active; 'I' for Inactive)
REMARK    1  A    between atoms: C_1  and  C_2
REMARK    2  A    between atoms: C_2  and  N_3
REMARK    3  A    between atoms: N_3  and  C_4
REMARK    4  A    between atoms: C_4  and  C_5
REMARK    5  A    between atoms: N_8  and  C_9
REMARK    6  A    between atoms: C_9  and  C_10
REMARK    7  A    between atoms: C_13  and  C_14
REMARK    8  A    between atoms: C_14  and  O_15
REMARK    9  A    between atoms: C_14  and  C_16
REMARK   10  A    between atoms: C_16  and  O_17
REMARK   11  A    between atoms: O_17  and  C_18
REMARK                            x       y       z     vdW  Elec       q    Type
REMARK                         _______ _______ _______ _____ _____    ______ ____
ROOT
ATOM      1  C   UNL     1       6.405  -4.321   2.193  0.00  0.00    +0.000 A 
ATOM      2  C   UNL     1       6.076  -5.490   1.520  0.00  0.00    +0.000 A 
ATOM      3  N   UNL     1       6.198  -6.717   2.081  0.00  0.00    +0.000 NA
ATOM      4  C   UNL     1       6.686  -6.752   3.350  0.00  0.00    +0.000 A 
ATOM      5  C   UNL     1       7.045  -5.582   4.008  0.00  0.00    +0.000 A 
ATOM      6  N   UNL     1       6.923  -4.351   3.449  0.00  0.00    +0.000 NA
ENDROOT
BRANCH   1   7
ATOM      7  C   UNL     1       6.210  -2.982   1.538  0.00  0.00    +0.000 C 
BRANCH   7  11
ATOM      8  N   UNL     1       8.649  -2.378  -1.160  0.00  0.00    +0.000 N 
ATOM      9  C   UNL     1       7.509  -2.888  -0.537  0.00  0.00    +0.000 C 
ATOM     10  O   UNL     1       6.650  -3.534  -1.132  0.00  0.00    +0.000 OA
ATOM     11  N   UNL     1       7.373  -2.566   0.785  0.00  0.00    +0.000 N 
ATOM     12  H   UNL     1       8.208  -2.437   1.333  0.00  0.00    +0.000 HD
BRANCH   8  14
ATOM     13  C   UNL     1       9.391  -3.880  -3.003  0.00  0.00    +0.000 C 
ATOM     14  C   UNL     1       8.742  -2.561  -2.612  0.00  0.00    +0.000 C 
ENDBRANCH   8  14
BRANCH   8  15
ATOM     15  C   UNL     1       9.646  -1.577  -0.438  0.00  0.00    +0.000 C 
ATOM     16  C   UNL     1      10.867  -1.080  -1.193  0.00  0.00    +0.000 C 
ENDBRANCH   8  15
ENDBRANCH   7  11
ENDBRANCH   1   7
BRANCH   4  17
ATOM     17  C   UNL     1       6.777  -8.084   4.063  0.00  0.00    +0.000 C 
BRANCH  17  18
ATOM     18  O   UNL     1       5.943  -8.027   5.230  0.00  0.00    +0.000 OA
ATOM     19  H   UNL     1       5.027  -8.172   4.933  0.00  0.00    +0.000 HD
ENDBRANCH  17  18
BRANCH  17  20
ATOM     20  C   UNL     1       6.366  -9.255   3.150  0.00  0.00    +0.000 C 
BRANCH  20  21
ATOM     21  O   UNL     1       6.501 -10.495   3.854  0.00  0.00    +0.000 OA
BRANCH  21  22
ATOM     22  C   UNL     1       6.197 -11.628   3.147  0.00  0.00    +0.000 A 
ATOM     23  C   UNL     1       5.750 -11.672   1.823  0.00  0.00    +0.000 A 
ATOM     24  C   UNL     1       5.493 -12.901   1.206  0.00  0.00    +0.000 A 
ATOM     25  C   UNL     1       5.679 -14.086   1.913  0.00  0.00    +0.000 A 
ATOM     26 CL   UNL     1       5.376 -15.595   1.145  0.00  0.00    +0.000 Cl
ATOM     27  C   UNL     1       6.113 -14.053   3.236  0.00  0.00    +0.000 A 
ATOM     28  C   UNL     1       6.368 -12.824   3.850  0.00  0.00    +0.000 A 
ENDBRANCH  21  22
ENDBRANCH  20  21
ENDBRANCH  17  20
ENDBRANCH   4  17
TORSDOF 9
