REMARK  Name = 
REMARK  2 active torsions:
REMARK  status: ('A' for Active; 'I' for Inactive)
REMARK    1  A    between atoms: C_7  and  C_8
REMARK    2  A    between atoms: C_8  and  N_9
REMARK                            x       y       z     vdW  Elec       q    Type
REMARK                         _______ _______ _______ _____ _____    ______ ____
ROOT
ATOM      1  N   UNL     1       0.972   0.294  -0.271  0.00  0.00    +0.000 NA
ATOM      2  C   UNL     1       2.211   0.094   0.012  0.00  0.00    +0.000 C 
ATOM      3  N   UNL     1       2.749   0.581   1.152  0.00  0.00    +0.000 N 
ATOM      4  N   UNL     1       3.089  -0.557  -0.810  0.00  0.00    +0.000 N 
ATOM      5  C   UNL     1       4.219  -1.338  -0.301  0.00  0.00    +0.000 C 
ATOM      6  C   UNL     1       5.416  -1.094  -1.215  0.00  0.00    +0.000 C 
ATOM      7  C   UNL     1       5.117  -1.517  -2.665  0.00  0.00    +0.000 C 
ATOM      8  C   UNL     1       3.823  -0.826  -3.139  0.00  0.00    +0.000 C 
ATOM      9  C   UNL     1       2.656  -0.965  -2.154  0.00  0.00    +0.000 C 
ATOM     10  H   UNL     1       0.525   0.794   0.497  0.00  0.00    +0.000 HD
ATOM     11  H   UNL     1       2.193   1.283   1.620  0.00  0.00    +0.000 HD
ATOM     12  H   UNL     1       3.697   0.907   1.019  0.00  0.00    +0.000 HD
ENDROOT
BRANCH   7  13
ATOM     13  C   UNL     1       5.040  -3.049  -2.852  0.00  0.00    +0.000 C 
BRANCH  13  14
ATOM     14  N   UNL     1       6.253  -3.752  -2.449  0.00  0.00    +0.000 N 
ATOM     15  C   UNL     1       7.477  -3.558  -3.041  0.00  0.00    +0.000 A 
ATOM     16  C   UNL     1       8.412  -4.280  -2.340  0.00  0.00    +0.000 A 
ATOM     17  C   UNL     1       7.732  -4.972  -1.302  0.00  0.00    +0.000 A 
ATOM     18  C   UNL     1       8.159  -5.842  -0.279  0.00  0.00    +0.000 A 
ATOM     19  C   UNL     1       7.218  -6.395   0.595  0.00  0.00    +0.000 A 
ATOM     20  C   UNL     1       5.867  -6.102   0.443  0.00  0.00    +0.000 A 
ATOM     21 CL   UNL     1       4.723  -6.815   1.518  0.00  0.00    +0.000 Cl
ATOM     22  C   UNL     1       5.414  -5.239  -0.560  0.00  0.00    +0.000 A 
ATOM     23  C   UNL     1       6.370  -4.664  -1.416  0.00  0.00    +0.000 A 
ENDBRANCH  13  14
ENDBRANCH   7  13
TORSDOF 2
