REMARK  Name = 
REMARK  6 active torsions:
REMARK  status: ('A' for Active; 'I' for Inactive)
REMARK    1  A    between atoms: C_2  and  C_4
REMARK    2  A    between atoms: N_8  and  C_9
REMARK    3  A    between atoms: C_9  and  C_10
REMARK    4  A    between atoms: C_10  and  C_13
REMARK    5  A    between atoms: C_15  and  C_16
REMARK    6  A    between atoms: C_23  and  C_24
REMARK                            x       y       z     vdW  Elec       q    Type
REMARK                         _______ _______ _______ _____ _____    ______ ____
ROOT
ATOM      1  C   UNL     1       6.202  -6.962   0.961  0.00  0.00    +0.000 C 
ATOM      2  F   UNL     1       5.816  -5.976   0.093  0.00  0.00    +0.000 F 
ATOM      3  F   UNL     1       7.549  -6.779   1.120  0.00  0.00    +0.000 F 
ENDROOT
BRANCH   1   4
ATOM      4  C   UNL     1       5.889  -8.351   0.432  0.00  0.00    +0.000 A 
ATOM      5  C   UNL     1       6.717  -9.421   0.807  0.00  0.00    +0.000 A 
ATOM      6  C   UNL     1       6.449 -10.729   0.392  0.00  0.00    +0.000 A 
ATOM      7  C   UNL     1       5.329 -10.963  -0.418  0.00  0.00    +0.000 A 
ATOM      8  C   UNL     1       4.475  -9.919  -0.800  0.00  0.00    +0.000 A 
ATOM      9  C   UNL     1       4.774  -8.608  -0.383  0.00  0.00    +0.000 A 
BRANCH   6  10
ATOM     10  C   UNL     1       7.341 -11.865   0.859  0.00  0.00    +0.000 C 
ATOM     11  C   UNL     1       8.024 -12.571  -0.324  0.00  0.00    +0.000 C 
ATOM     12  C   UNL     1       8.866 -13.756   0.140  0.00  0.00    +0.000 C 
ATOM     13  C   UNL     1       8.045 -14.729   0.980  0.00  0.00    +0.000 C 
ATOM     14  C   UNL     1       7.406 -14.032   2.176  0.00  0.00    +0.000 C 
ATOM     15  C   UNL     1       6.549 -12.850   1.737  0.00  0.00    +0.000 C 
ENDBRANCH   6  10
BRANCH   8  16
ATOM     16  C   UNL     1       3.233 -10.214  -1.608  0.00  0.00    +0.000 C 
ATOM     17  F   UNL     1       3.054 -11.540  -1.870  0.00  0.00    +0.000 F 
ATOM     18  F   UNL     1       2.097  -9.809  -0.973  0.00  0.00    +0.000 F 
ATOM     19  F   UNL     1       3.228  -9.592  -2.819  0.00  0.00    +0.000 F 
ENDBRANCH   8  16
ENDBRANCH   1   4
BRANCH   1  20
ATOM     20  C   UNL     1       5.499  -6.707   2.322  0.00  0.00    +0.000 C 
BRANCH  20  25
ATOM     21  C   UNL     1       3.954  -4.391   6.470  0.00  0.00    +0.000 A 
ATOM     22  C   UNL     1       4.912  -3.535   5.938  0.00  0.00    +0.000 A 
ATOM     23  C   UNL     1       5.562  -3.897   4.755  0.00  0.00    +0.000 A 
ATOM     24  C   UNL     1       5.239  -5.098   4.121  0.00  0.00    +0.000 A 
ATOM     25  N   UNL     1       5.957  -5.461   2.976  0.00  0.00    +0.000 N 
ATOM     26  N   UNL     1       4.326  -5.941   4.645  0.00  0.00    +0.000 NA
ATOM     27  C   UNL     1       3.712  -5.581   5.803  0.00  0.00    +0.000 A 
ATOM     28  H   UNL     1       6.041  -4.686   2.324  0.00  0.00    +0.000 HD
BRANCH  21  30
ATOM     29  N   UNL     1       3.026  -2.791   8.045  0.00  0.00    +0.000 N 
ATOM     30  C   UNL     1       3.215  -4.105   7.716  0.00  0.00    +0.000 C 
ATOM     31  O   UNL     1       2.752  -5.006   8.409  0.00  0.00    +0.000 OA
ATOM     32  H   UNL     1       2.432  -2.605   8.844  0.00  0.00    +0.000 HD
ATOM     33  H   UNL     1       3.169  -2.039   7.386  0.00  0.00    +0.000 HD
ENDBRANCH  21  30
ENDBRANCH  20  25
ENDBRANCH   1  20
TORSDOF 6
