REMARK  Name = 
REMARK  3 active torsions:
REMARK  status: ('A' for Active; 'I' for Inactive)
REMARK    1  A    between atoms: C_2  and  C_4
REMARK    2  A    between atoms: N_8  and  C_9
REMARK    3  A    between atoms: C_9  and  C_10
REMARK                            x       y       z     vdW  Elec       q    Type
REMARK                         _______ _______ _______ _____ _____    ______ ____
ROOT
ATOM      1  C   UNL     1       6.080  -2.154   1.705  0.00  0.00    +0.000 A 
ATOM      2  C   UNL     1       6.859  -1.001   1.685  0.00  0.00    +0.000 A 
ATOM      3  C   UNL     1       6.678  -0.047   2.685  0.00  0.00    +0.000 A 
ATOM      4  C   UNL     1       5.756  -0.278   3.707  0.00  0.00    +0.000 A 
ATOM      5  N   UNL     1       5.615   0.699   4.684  0.00  0.00    +0.000 N 
ATOM      6  N   UNL     1       5.015  -1.401   3.750  0.00  0.00    +0.000 NA
ATOM      7  C   UNL     1       5.172  -2.301   2.745  0.00  0.00    +0.000 A 
ATOM      8  H   UNL     1       5.187   1.540   4.307  0.00  0.00    +0.000 HD
ENDROOT
BRANCH   1  10
ATOM      9  N   UNL     1       7.334  -3.333  -0.003  0.00  0.00    +0.000 N 
ATOM     10  C   UNL     1       6.142  -3.177   0.649  0.00  0.00    +0.000 C 
ATOM     11  O   UNL     1       5.169  -3.871   0.372  0.00  0.00    +0.000 OA
ATOM     12  H   UNL     1       7.386  -4.084  -0.678  0.00  0.00    +0.000 HD
ATOM     13  H   UNL     1       8.204  -2.958   0.353  0.00  0.00    +0.000 HD
ENDBRANCH   1  10
BRANCH   5  14
ATOM     14  C   UNL     1       5.087   0.302   5.986  0.00  0.00    +0.000 C 
BRANCH  14  15
ATOM     15  C   UNL     1       6.046   0.827   7.087  0.00  0.00    +0.000 C 
ATOM     16  C   UNL     1       5.589   0.428   8.493  0.00  0.00    +0.000 C 
ATOM     17  C   UNL     1       4.376   1.235   8.947  0.00  0.00    +0.000 C 
ATOM     18  C   UNL     1       4.610   2.727   8.744  0.00  0.00    +0.000 C 
ATOM     19  C   UNL     1       5.109   3.027   7.338  0.00  0.00    +0.000 C 
ATOM     20  O   UNL     1       6.259   2.249   7.025  0.00  0.00    +0.000 OA
ENDBRANCH  14  15
ENDBRANCH   5  14
TORSDOF 3
