REMARK  Name = 
REMARK  7 active torsions:
REMARK  status: ('A' for Active; 'I' for Inactive)
REMARK    1  A    between atoms: C_1  and  C_2
REMARK    2  A    between atoms: C_2  and  C_3
REMARK    3  A    between atoms: C_2  and  C_4
REMARK    4  A    between atoms: C_2  and  C_5
REMARK    5  A    between atoms: C_9  and  C_10
REMARK    6  A    between atoms: N_16  and  C_17
REMARK    7  A    between atoms: C_17  and  C_18
REMARK                            x       y       z     vdW  Elec       q    Type
REMARK                         _______ _______ _______ _____ _____    ______ ____
ROOT
ATOM      1  C   UNL     1       2.877   1.195   1.003  0.00  0.00    +0.000 A 
ATOM      2  N   UNL     1       2.488   2.445   0.804  0.00  0.00    +0.000 NA
ATOM      3  C   UNL     1       3.071   3.217   1.762  0.00  0.00    +0.000 A 
ATOM      4  C   UNL     1       2.952   4.588   1.985  0.00  0.00    +0.000 A 
ATOM      5  C   UNL     1       3.671   5.081   3.061  0.00  0.00    +0.000 A 
ATOM      6  N   UNL     1       4.494   4.337   3.860  0.00  0.00    +0.000 NA
ATOM      7  C   UNL     1       4.610   3.007   3.622  0.00  0.00    +0.000 A 
ATOM      8  C   UNL     1       3.868   2.442   2.589  0.00  0.00    +0.000 A 
ATOM      9  N   UNL     1       3.666   1.140   2.147  0.00  0.00    +0.000 N 
ENDROOT
BRANCH   5  10
ATOM     10  C   UNL     1       3.518   6.530   3.420  0.00  0.00    +0.000 C 
ATOM     11  N   UNL     1       4.208   6.948   4.527  0.00  0.00    +0.000 N 
ATOM     12  O   UNL     1       2.808   7.299   2.785  0.00  0.00    +0.000 OA
ATOM     13  H   UNL     1       4.769   6.285   5.051  0.00  0.00    +0.000 HD
ATOM     14  H   UNL     1       4.112   7.901   4.837  0.00  0.00    +0.000 HD
ENDBRANCH   5  10
BRANCH   1  16
ATOM     15  C   UNL     1       1.577   0.623  -1.053  0.00  0.00    +0.000 C 
ATOM     16  C   UNL     1       2.497   0.052   0.058  0.00  0.00    +0.000 C 
ATOM     17  C   UNL     1       1.703  -1.060   0.759  0.00  0.00    +0.000 C 
ATOM     18  C   UNL     1       3.733  -0.536  -0.643  0.00  0.00    +0.000 C 
ENDBRANCH   1  16
BRANCH   9  19
ATOM     19  C   UNL     1       4.207  -0.036   2.819  0.00  0.00    +0.000 C 
BRANCH  19  20
ATOM     20  C   UNL     1       3.300  -0.629   3.873  0.00  0.00    +0.000 A 
ATOM     21  C   UNL     1       2.421   0.127   4.662  0.00  0.00    +0.000 A 
ATOM     22  C   UNL     1       1.696  -0.472   5.697  0.00  0.00    +0.000 A 
ATOM     23  C   UNL     1       1.832  -1.835   5.957  0.00  0.00    +0.000 A 
ATOM     24  C   UNL     1       2.680  -2.605   5.169  0.00  0.00    +0.000 A 
ATOM     25  C   UNL     1       3.405  -2.000   4.145  0.00  0.00    +0.000 A 
ATOM     26  F   UNL     1       4.224  -2.761   3.404  0.00  0.00    +0.000 F 
ENDBRANCH  19  20
ENDBRANCH   9  19
TORSDOF 4
