REMARK  Name = 
REMARK  4 active torsions:
REMARK  status: ('A' for Active; 'I' for Inactive)
REMARK    1  A    between atoms: C_2  and  C_3
REMARK    2  A    between atoms: N_7  and  C_8
REMARK    3  A    between atoms: C_8  and  C_9
REMARK    4  A    between atoms: C_13  and  C_14
REMARK                            x       y       z     vdW  Elec       q    Type
REMARK                         _______ _______ _______ _____ _____    ______ ____
ROOT
ATOM      1  C   UNL     1      -4.427   1.135  -0.113  0.00  0.00    +0.000 C 
ATOM      2  C   UNL     1      -4.609   2.305  -1.075  0.00  0.00    +0.000 C 
ATOM      3  C   UNL     1      -4.534   2.552   0.396  0.00  0.00    +0.000 C 
ENDROOT
BRANCH   1   8
ATOM      4  C   UNL     1      -0.282  -1.203   2.123  0.00  0.00    +0.000 A 
ATOM      5  C   UNL     1      -1.242  -0.396   2.728  0.00  0.00    +0.000 A 
ATOM      6  C   UNL     1      -2.277   0.146   1.955  0.00  0.00    +0.000 A 
ATOM      7  C   UNL     1      -2.315  -0.141   0.598  0.00  0.00    +0.000 A 
ATOM      8  N   UNL     1      -3.151   0.449  -0.335  0.00  0.00    +0.000 N 
ATOM      9  N   UNL     1      -1.416  -0.969   0.017  0.00  0.00    +0.000 NA
ATOM     10  C   UNL     1      -0.422  -1.473   0.776  0.00  0.00    +0.000 A 
ATOM     11  H   UNL     1      -3.081  -0.134  -1.165  0.00  0.00    +0.000 HD
BRANCH   4  13
ATOM     12  N   UNL     1       1.753  -2.147   3.414  0.00  0.00    +0.000 NA
ATOM     13  C   UNL     1       0.826  -1.724   2.843  0.00  0.00    +0.000 C 
ENDBRANCH   4  13
ENDBRANCH   1   8
BRANCH   1  14
ATOM     14  C   UNL     1      -5.556   0.133   0.120  0.00  0.00    +0.000 A 
ATOM     15  C   UNL     1      -6.230  -0.406  -0.977  0.00  0.00    +0.000 A 
ATOM     16  C   UNL     1      -6.765  -1.682  -0.880  0.00  0.00    +0.000 A 
ATOM     17  C   UNL     1      -6.660  -2.367   0.323  0.00  0.00    +0.000 A 
ATOM     18  C   UNL     1      -6.113  -1.721   1.429  0.00  0.00    +0.000 A 
ATOM     19  N   UNL     1      -5.601  -0.471   1.338  0.00  0.00    +0.000 NA
BRANCH  18  20
ATOM     20  C   UNL     1      -6.003  -2.359   2.747  0.00  0.00    +0.000 A 
ATOM     21  C   UNL     1      -5.757  -3.730   2.911  0.00  0.00    +0.000 A 
ATOM     22  C   UNL     1      -5.727  -4.298   4.184  0.00  0.00    +0.000 A 
ATOM     23  C   UNL     1      -5.930  -3.472   5.275  0.00  0.00    +0.000 A 
ATOM     24  N   UNL     1      -6.128  -2.142   5.177  0.00  0.00    +0.000 NA
ATOM     25  C   UNL     1      -6.151  -1.622   3.923  0.00  0.00    +0.000 A 
ENDBRANCH  18  20
ENDBRANCH   1  14
TORSDOF 4
