REMARK  Name = 
REMARK  8 active torsions:
REMARK  status: ('A' for Active; 'I' for Inactive)
REMARK    1  A    between atoms: C_1  and  O_2
REMARK    2  A    between atoms: O_2  and  C_3
REMARK    3  A    between atoms: C_7  and  C_8
REMARK    4  A    between atoms: N_10  and  C_11
REMARK    5  A    between atoms: C_11  and  C_12
REMARK    6  A    between atoms: C_15  and  C_16
REMARK    7  A    between atoms: C_16  and  N_17
REMARK    8  A    between atoms: C_18  and  C_20
REMARK                            x       y       z     vdW  Elec       q    Type
REMARK                         _______ _______ _______ _____ _____    ______ ____
ROOT
ATOM      1  C   UNL     1       8.094  -5.948  -2.218  0.00  0.00    +0.000 A 
ATOM      2  C   UNL     1       8.940  -5.442  -3.214  0.00  0.00    +0.000 A 
ATOM      3  C   UNL     1       9.388  -6.261  -4.258  0.00  0.00    +0.000 A 
ATOM      4  C   UNL     1       8.983  -7.600  -4.340  0.00  0.00    +0.000 A 
ATOM      5  C   UNL     1       8.178  -8.119  -3.316  0.00  0.00    +0.000 A 
ATOM      6  C   UNL     1       7.727  -7.299  -2.275  0.00  0.00    +0.000 A 
ENDROOT
BRANCH   1   7
ATOM      7  C   UNL     1       7.580  -5.056  -1.117  0.00  0.00    +0.000 C 
BRANCH   7  10
ATOM      8  C   UNL     1       5.713  -3.538  -0.596  0.00  0.00    +0.000 C 
ATOM      9  O   UNL     1       6.148  -3.267   0.518  0.00  0.00    +0.000 OA
ATOM     10  N   UNL     1       6.346  -4.397  -1.471  0.00  0.00    +0.000 N 
ATOM     11  H   UNL     1       5.900  -4.569  -2.368  0.00  0.00    +0.000 HD
BRANCH   8  16
ATOM     12  C   UNL     1       2.887  -2.805  -2.798  0.00  0.00    +0.000 A 
ATOM     13  C   UNL     1       2.088  -1.936  -2.068  0.00  0.00    +0.000 A 
ATOM     14  C   UNL     1       2.503  -1.566  -0.793  0.00  0.00    +0.000 A 
ATOM     15  C   UNL     1       3.697  -2.079  -0.293  0.00  0.00    +0.000 A 
ATOM     16  C   UNL     1       4.429  -2.947  -1.098  0.00  0.00    +0.000 A 
ATOM     17  N   UNL     1       4.049  -3.322  -2.348  0.00  0.00    +0.000 NA
BRANCH  12  19
ATOM     18  C   UNL     1       3.327  -4.008  -4.751  0.00  0.00    +0.000 C 
ATOM     19  O   UNL     1       2.428  -3.152  -4.053  0.00  0.00    +0.000 OA
ENDBRANCH  12  19
ENDBRANCH   8  16
ENDBRANCH   7  10
ENDBRANCH   1   7
BRANCH   4  20
ATOM     20  C   UNL     1       9.404  -8.471  -5.498  0.00  0.00    +0.000 C 
BRANCH  20  21
ATOM     21  N   UNL     1      10.664  -9.119  -5.246  0.00  0.00    +0.000 N 
ATOM     22  C   UNL     1      11.247  -9.943  -6.177  0.00  0.00    +0.000 C 
ATOM     23  O   UNL     1      10.775 -10.103  -7.300  0.00  0.00    +0.000 OA
ATOM     24  H   UNL     1      10.940  -9.201  -4.274  0.00  0.00    +0.000 HD
BRANCH  22  25
ATOM     25  C   UNL     1      12.509 -10.577  -5.775  0.00  0.00    +0.000 A 
ATOM     26  C   UNL     1      13.428 -10.979  -6.735  0.00  0.00    +0.000 A 
ATOM     27  S   UNL     1      14.868 -11.617  -6.076  0.00  0.00    +0.000 S 
ATOM     28  C   UNL     1      14.290 -11.428  -4.486  0.00  0.00    +0.000 A 
ATOM     29  N   UNL     1      15.046 -11.795  -3.417  0.00  0.00    +0.000 NA
ATOM     30  C   UNL     1      14.469 -11.620  -2.271  0.00  0.00    +0.000 A 
ATOM     31  N   UNL     1      13.206 -11.116  -2.102  0.00  0.00    +0.000 N 
ATOM     32  C   UNL     1      12.414 -10.722  -3.152  0.00  0.00    +0.000 A 
ATOM     33  O   UNL     1      11.293 -10.261  -2.964  0.00  0.00    +0.000 OA
ATOM     34  C   UNL     1      13.018 -10.886  -4.459  0.00  0.00    +0.000 A 
ATOM     35  H   UNL     1      12.811 -11.004  -1.180  0.00  0.00    +0.000 HD
ENDBRANCH  22  25
ENDBRANCH  20  21
ENDBRANCH   4  20
TORSDOF 7
