REMARK  Name = 
REMARK  11 active torsions:
REMARK  status: ('A' for Active; 'I' for Inactive)
REMARK    1  A    between atoms: N_1  and  C_2
REMARK    2  A    between atoms: C_2  and  C_3
REMARK    3  A    between atoms: C_3  and  N_4
REMARK    4  A    between atoms: N_4  and  C_5
REMARK    5  A    between atoms: C_5  and  C_6
REMARK    6  A    between atoms: C_9  and  C_10
REMARK    7  A    between atoms: C_10  and  N_11
REMARK    8  A    between atoms: C_12  and  C_14
REMARK    9  A    between atoms: C_25  and  C_26
REMARK   10  A    between atoms: C_26  and  N_27
REMARK   11  A    between atoms: N_27  and  C_28
REMARK                            x       y       z     vdW  Elec       q    Type
REMARK                         _______ _______ _______ _____ _____    ______ ____
ROOT
ATOM      1  C   UNL     1       6.458  -2.375  -1.659  0.00  0.00    +0.000 A 
ATOM      2  C   UNL     1       7.186  -2.252  -2.861  0.00  0.00    +0.000 A 
ATOM      3  C   UNL     1       8.580  -2.204  -2.866  0.00  0.00    +0.000 A 
ATOM      4  C   UNL     1       9.290  -2.274  -1.667  0.00  0.00    +0.000 A 
ATOM      5  C   UNL     1       8.567  -2.440  -0.473  0.00  0.00    +0.000 A 
ATOM      6  C   UNL     1       7.160  -2.506  -0.442  0.00  0.00    +0.000 A 
ENDROOT
BRANCH   1   7
ATOM      7  C   UNL     1       4.950  -2.259  -1.745  0.00  0.00    +0.000 C 
BRANCH   7   8
ATOM      8  N   UNL     1       4.403  -1.106  -1.021  0.00  0.00    +0.000 NA
ATOM      9  H   UNL     1       3.400  -1.073  -1.206  0.00  0.00    +0.000 HD
BRANCH   8  10
ATOM     10  C   UNL     1       4.973   0.175  -1.472  0.00  0.00    +0.000 C 
BRANCH  10  11
ATOM     11  C   UNL     1       4.397   1.344  -0.654  0.00  0.00    +0.000 C 
BRANCH  11  12
ATOM     12  N   UNL     1       2.936   1.424  -0.756  0.00  0.00    +0.000 NA
ATOM     13  H   UNL     1       2.615   2.198  -0.175  0.00  0.00    +0.000 HD
ATOM     14  H   UNL     1       2.547   0.586  -0.326  0.00  0.00    +0.000 HD
ENDBRANCH  11  12
ENDBRANCH  10  11
ENDBRANCH   8  10
ENDBRANCH   7   8
ENDBRANCH   1   7
BRANCH   4  15
ATOM     15  C   UNL     1      10.790  -2.103  -1.652  0.00  0.00    +0.000 C 
BRANCH  15  16
ATOM     16  N   UNL     1      11.478  -3.262  -1.131  0.00  0.00    +0.000 N 
ATOM     17  C   UNL     1      11.749  -3.438   0.196  0.00  0.00    +0.000 C 
ATOM     18  O   UNL     1      11.453  -2.608   1.052  0.00  0.00    +0.000 OA
ATOM     19  H   UNL     1      11.884  -3.892  -1.816  0.00  0.00    +0.000 HD
BRANCH  17  20
ATOM     20  C   UNL     1      12.366  -4.714   0.567  0.00  0.00    +0.000 A 
ATOM     21  C   UNL     1      12.170  -5.233   1.839  0.00  0.00    +0.000 A 
ATOM     22  S   UNL     1      12.952  -6.726   2.095  0.00  0.00    +0.000 S 
ATOM     23  C   UNL     1      13.608  -6.713   0.524  0.00  0.00    +0.000 A 
ATOM     24  N   UNL     1      14.423  -7.713   0.097  0.00  0.00    +0.000 NA
ATOM     25  C   UNL     1      14.872  -7.558  -1.105  0.00  0.00    +0.000 A 
ATOM     26  N   UNL     1      14.571  -6.500  -1.922  0.00  0.00    +0.000 N 
ATOM     27  C   UNL     1      13.714  -5.490  -1.550  0.00  0.00    +0.000 A 
ATOM     28  O   UNL     1      13.396  -4.605  -2.337  0.00  0.00    +0.000 OA
ATOM     29  C   UNL     1      13.211  -5.599  -0.196  0.00  0.00    +0.000 A 
ATOM     30  H   UNL     1      14.938  -6.451  -2.860  0.00  0.00    +0.000 HD
ENDBRANCH  17  20
ENDBRANCH  15  16
ENDBRANCH   4  15
BRANCH   6  31
ATOM     31  C   UNL     1       6.491  -2.703   0.912  0.00  0.00    +0.000 C 
BRANCH  31  32
ATOM     32  N   UNL     1       6.413  -4.116   1.235  0.00  0.00    +0.000 N 
ATOM     33  H   UNL     1       7.185  -4.648   0.838  0.00  0.00    +0.000 HD
BRANCH  32  34
ATOM     34  C   UNL     1       5.916  -4.631   2.427  0.00  0.00    +0.000 C 
ATOM     35  N   UNL     1       6.411  -5.814   2.835  0.00  0.00    +0.000 NA
ATOM     36  C   UNL     1       5.802  -6.133   3.982  0.00  0.00    +0.000 C 
ATOM     37  C   UNL     1       4.898  -5.173   4.335  0.00  0.00    +0.000 C 
ATOM     38 CL   UNL     1       3.901  -5.216   5.720  0.00  0.00    +0.000 Cl
ATOM     39  C   UNL     1       4.970  -4.206   3.358  0.00  0.00    +0.000 C 
ATOM     40 CL   UNL     1       4.029  -2.773   3.306  0.00  0.00    +0.000 Cl
ENDBRANCH  32  34
ENDBRANCH  31  32
ENDBRANCH   6  31
TORSDOF 11
