REMARK  Name = 
REMARK  7 active torsions:
REMARK  status: ('A' for Active; 'I' for Inactive)
REMARK    1  A    between atoms: C_2  and  C_19
REMARK    2  A    between atoms: N_3  and  C_4
REMARK    3  A    between atoms: C_4  and  C_5
REMARK    4  A    between atoms: C_8  and  O_9
REMARK    5  A    between atoms: O_9  and  C_10
REMARK    6  A    between atoms: C_10  and  C_11
REMARK    7  A    between atoms: C_11  and  N_12
REMARK                            x       y       z     vdW  Elec       q    Type
REMARK                         _______ _______ _______ _____ _____    ______ ____
ROOT
ATOM      1  O   UNL     1       0.839   3.078  -1.501  0.00  0.00    +0.000 OA
ATOM      2  C   UNL     1       1.773   2.296  -1.657  0.00  0.00    +0.000 C 
ATOM      3  N   UNL     1       2.545   1.849  -0.612  0.00  0.00    +0.000 N 
ATOM      4  H   UNL     1       3.409   1.359  -0.808  0.00  0.00    +0.000 HD
ENDROOT
BRANCH   2   5
ATOM      5  C   UNL     1       2.086   1.734  -2.979  0.00  0.00    +0.000 A 
ATOM      6  C   UNL     1       1.118   1.741  -3.974  0.00  0.00    +0.000 A 
ATOM      7  S   UNL     1       1.633   1.033  -5.438  0.00  0.00    +0.000 S 
ATOM      8  C   UNL     1       3.186   0.737  -4.810  0.00  0.00    +0.000 A 
ATOM      9  N   UNL     1       4.152   0.166  -5.579  0.00  0.00    +0.000 NA
ATOM     10  C   UNL     1       5.294   0.034  -4.991  0.00  0.00    +0.000 A 
ATOM     11  N   UNL     1       5.554   0.409  -3.698  0.00  0.00    +0.000 N 
ATOM     12  C   UNL     1       4.590   0.919  -2.861  0.00  0.00    +0.000 A 
ATOM     13  O   UNL     1       4.824   1.123  -1.675  0.00  0.00    +0.000 OA
ATOM     14  C   UNL     1       3.300   1.138  -3.490  0.00  0.00    +0.000 A 
ATOM     15  H   UNL     1       6.462   0.252  -3.287  0.00  0.00    +0.000 HD
ENDBRANCH   2   5
BRANCH   3  16
ATOM     16  C   UNL     1       2.362   2.299   0.742  0.00  0.00    +0.000 C 
BRANCH  16  17
ATOM     17  C   UNL     1       3.300   3.426   1.082  0.00  0.00    +0.000 A 
ATOM     18  C   UNL     1       2.925   4.741   0.800  0.00  0.00    +0.000 A 
ATOM     19  C   UNL     1       3.765   5.803   1.127  0.00  0.00    +0.000 A 
ATOM     20  C   UNL     1       5.010   5.577   1.727  0.00  0.00    +0.000 A 
ATOM     21  C   UNL     1       5.400   4.263   1.988  0.00  0.00    +0.000 A 
ATOM     22  C   UNL     1       4.555   3.193   1.663  0.00  0.00    +0.000 A 
BRANCH  20  23
ATOM     23  O   UNL     1       5.910   6.559   2.085  0.00  0.00    +0.000 OA
BRANCH  23  24
ATOM     24  C   UNL     1       5.481   7.881   1.747  0.00  0.00    +0.000 C 
BRANCH  24  25
ATOM     25  C   UNL     1       6.549   8.950   2.032  0.00  0.00    +0.000 C 
BRANCH  25  26
ATOM     26  N   UNL     1       6.004  10.294   1.773  0.00  0.00    +0.000 NA
ATOM     27  C   UNL     1       6.922  11.371   2.133  0.00  0.00    +0.000 C 
ATOM     28  C   UNL     1       7.591  11.786   0.838  0.00  0.00    +0.000 C 
ATOM     29  O   UNL     1       6.740  11.356  -0.220  0.00  0.00    +0.000 OA
ATOM     30  C   UNL     1       5.718  10.552   0.363  0.00  0.00    +0.000 C 
ENDBRANCH  25  26
ENDBRANCH  24  25
ENDBRANCH  23  24
ENDBRANCH  20  23
ENDBRANCH  16  17
ENDBRANCH   3  16
TORSDOF 7
