REMARK  Name = 
REMARK  7 active torsions:
REMARK  status: ('A' for Active; 'I' for Inactive)
REMARK    1  A    between atoms: N_1  and  C_2
REMARK    2  A    between atoms: C_2  and  C_3
REMARK    3  A    between atoms: C_6  and  C_7
REMARK    4  A    between atoms: C_7  and  N_8
REMARK    5  A    between atoms: N_8  and  C_9
REMARK    6  A    between atoms: CA_12  and  C_13
REMARK    7  A    between atoms: C_13  and  OXT_15
REMARK                            x       y       z     vdW  Elec       q    Type
REMARK                         _______ _______ _______ _____ _____    ______ ____
ROOT
ATOM      1  N   UNL     1       4.885  -3.133  -5.235  0.00  0.00    +0.000 N 
ATOM      2  H   UNL     1       5.648  -2.555  -4.890  0.00  0.00    +0.000 HD
ENDROOT
BRANCH   1   3
ATOM      3  C   UNL     1       5.270  -3.971  -6.293  0.00  0.00    +0.000 A 
ATOM      4  C   UNL     1       4.525  -5.085  -6.698  0.00  0.00    +0.000 A 
ATOM      5  C   UNL     1       4.915  -5.850  -7.798  0.00  0.00    +0.000 A 
ATOM      6  CA  UNL     1       6.044  -5.457  -8.493  0.00  0.00    +0.000 A 
ATOM      7  N   UNL     1       6.790  -4.359  -8.185  0.00  0.00    +0.000 NA
ATOM      8  C   UNL     1       6.363  -3.644  -7.109  0.00  0.00    +0.000 A 
BRANCH   6   9
ATOM      9  C   UNL     1       6.510  -6.251  -9.670  0.00  0.00    +0.000 C 
ATOM     10  O   UNL     1       5.971  -7.257 -10.093  0.00  0.00    +0.000 OA
BRANCH   9  11
ATOM     11  OXT UNL     1       7.629  -5.698 -10.199  0.00  0.00    +0.000 OA
ATOM     12  HXT UNL     1       7.857  -4.893  -9.676  0.00  0.00    +0.000 HD
ENDBRANCH   9  11
ENDBRANCH   6   9
ENDBRANCH   1   3
BRANCH   1  13
ATOM     13  C   UNL     1       4.133  -3.738  -4.136  0.00  0.00    +0.000 C 
BRANCH  13  17
ATOM     14  C   UNL     1       3.094  -1.026  -0.916  0.00  0.00    +0.000 A 
ATOM     15  C   UNL     1       2.656  -0.782  -2.226  0.00  0.00    +0.000 A 
ATOM     16  C   UNL     1       3.028  -1.628  -3.275  0.00  0.00    +0.000 A 
ATOM     17  C   UNL     1       3.848  -2.739  -3.038  0.00  0.00    +0.000 A 
ATOM     18  C   UNL     1       4.315  -2.964  -1.735  0.00  0.00    +0.000 A 
ATOM     19  C   UNL     1       3.941  -2.117  -0.686  0.00  0.00    +0.000 A 
BRANCH  14  20
ATOM     20  C   UNL     1       2.660  -0.134   0.220  0.00  0.00    +0.000 C 
BRANCH  20  21
ATOM     21  N   UNL     1       1.211  -0.145   0.390  0.00  0.00    +0.000 NA
ATOM     22  H   UNL     1       0.967   0.395   1.217  0.00  0.00    +0.000 HD
ATOM     23  H   UNL     1       0.908  -1.101   0.569  0.00  0.00    +0.000 HD
ENDBRANCH  20  21
ENDBRANCH  14  20
ENDBRANCH  13  17
ENDBRANCH   1  13
TORSDOF 7
