REMARK  Name = 
REMARK  10 active torsions:
REMARK  status: ('A' for Active; 'I' for Inactive)
REMARK    1  A    between atoms: C_1  and  O_2
REMARK    2  A    between atoms: O_2  and  C_3
REMARK    3  A    between atoms: C_5  and  C_6
REMARK    4  A    between atoms: C_11  and  O_12
REMARK    5  A    between atoms: O_12  and  C_13
REMARK    6  A    between atoms: C_13  and  C_14
REMARK    7  A    between atoms: C_17  and  C_18
REMARK    8  A    between atoms: C_19  and  C_20
REMARK    9  A    between atoms: C_25  and  O_26
REMARK   10  A    between atoms: O_26  and  C_27
REMARK                            x       y       z     vdW  Elec       q    Type
REMARK                         _______ _______ _______ _____ _____    ______ ____
ROOT
ATOM      1  C   UNL     1       3.852   1.703  -1.403  0.00  0.00    +0.000 C 
ENDROOT
BRANCH   1   2
ATOM      2  C   UNL     1       4.422   2.633  -2.446  0.00  0.00    +0.000 A 
ATOM      3  C   UNL     1       3.919   3.921  -2.582  0.00  0.00    +0.000 A 
ATOM      4  C   UNL     1       4.318   4.700  -3.662  0.00  0.00    +0.000 A 
ATOM      5  C   UNL     1       5.213   4.205  -4.637  0.00  0.00    +0.000 A 
ATOM      6  C   UNL     1       5.418   5.110  -5.830  0.00  0.00    +0.000 C 
ATOM      7  C   UNL     1       5.821   2.922  -4.477  0.00  0.00    +0.000 A 
ATOM      8  C   UNL     1       5.392   2.172  -3.358  0.00  0.00    +0.000 A 
BRANCH   7   9
ATOM      9  C   UNL     1       6.869   2.351  -5.403  0.00  0.00    +0.000 A 
ATOM     10  C   UNL     1       7.845   3.215  -5.950  0.00  0.00    +0.000 A 
ATOM     11  C   UNL     1       8.808   2.796  -6.873  0.00  0.00    +0.000 A 
ATOM     12  C   UNL     1       8.878   1.464  -7.235  0.00  0.00    +0.000 A 
ATOM     13  C   UNL     1       7.996   0.556  -6.660  0.00  0.00    +0.000 A 
ATOM     14  C   UNL     1       7.010   0.977  -5.742  0.00  0.00    +0.000 A 
BRANCH  14  15
ATOM     15  O   UNL     1       6.149   0.052  -5.191  0.00  0.00    +0.000 OA
ATOM     16  C   UNL     1       6.708  -1.244  -4.961  0.00  0.00    +0.000 C 
ENDBRANCH  14  15
ENDBRANCH   7   9
ENDBRANCH   1   2
BRANCH   1  17
ATOM     17  O   UNL     1       4.889   1.206  -0.560  0.00  0.00    +0.000 OA
BRANCH  17  23
ATOM     18  C   UNL     1       3.261  -0.132   0.788  0.00  0.00    +0.000 A 
ATOM     19  C   UNL     1       3.119  -0.960   1.912  0.00  0.00    +0.000 A 
ATOM     20  C   UNL     1       4.217  -1.282   2.728  0.00  0.00    +0.000 A 
ATOM     21  C   UNL     1       5.472  -0.765   2.412  0.00  0.00    +0.000 A 
ATOM     22  C   UNL     1       5.622   0.063   1.293  0.00  0.00    +0.000 A 
ATOM     23  C   UNL     1       4.532   0.386   0.477  0.00  0.00    +0.000 A 
BRANCH  20  24
ATOM     24  C   UNL     1       3.963  -2.174   3.899  0.00  0.00    +0.000 C 
ATOM     25  N   UNL     1       5.017  -2.539   4.686  0.00  0.00    +0.000 N 
ATOM     26  O   UNL     1       2.834  -2.574   4.161  0.00  0.00    +0.000 OA
ATOM     27  H   UNL     1       5.976  -2.282   4.538  0.00  0.00    +0.000 HD
ATOM     28  H   UNL     1       4.804  -3.156   5.460  0.00  0.00    +0.000 HD
ENDBRANCH  20  24
BRANCH  18  30
ATOM     29  C   UNL     1       0.895   0.033   0.464  0.00  0.00    +0.000 C 
ATOM     30  O   UNL     1       2.216   0.130  -0.056  0.00  0.00    +0.000 OA
ENDBRANCH  18  30
ENDBRANCH  17  23
ENDBRANCH   1  17
TORSDOF 7
