REMARK  Name = 
REMARK  6 active torsions:
REMARK  status: ('A' for Active; 'I' for Inactive)
REMARK    1  A    between atoms: C_1  and  C_2
REMARK    2  A    between atoms: C_2  and  C_3
REMARK    3  A    between atoms: C_2  and  C_15
REMARK    4  A    between atoms: C_3  and  N_4
REMARK    5  A    between atoms: C_8  and  C_9
REMARK    6  A    between atoms: C_12  and  N_13
REMARK                            x       y       z     vdW  Elec       q    Type
REMARK                         _______ _______ _______ _____ _____    ______ ____
ROOT
ATOM      1  N   UNL     1       2.650   2.484  -0.193  0.00  0.00    +0.000 N 
ATOM      2  C   UNL     1       3.144   3.701   0.252  0.00  0.00    +0.000 A 
ATOM      3  N   UNL     1       4.331   3.769   0.870  0.00  0.00    +0.000 NA
ATOM      4  C   UNL     1       4.787   5.002   1.181  0.00  0.00    +0.000 A 
ATOM      5  C   UNL     1       4.096   6.161   0.919  0.00  0.00    +0.000 A 
ATOM      6  C   UNL     1       2.863   5.987   0.313  0.00  0.00    +0.000 A 
ATOM      7  N   UNL     1       2.382   4.770  -0.011  0.00  0.00    +0.000 NA
ATOM      8  H   UNL     1       1.651   2.607  -0.327  0.00  0.00    +0.000 HD
ENDROOT
BRANCH   5   9
ATOM      9  C   UNL     1       4.681   7.498   1.144  0.00  0.00    +0.000 C 
ATOM     10  N   UNL     1       5.637   7.638   2.113  0.00  0.00    +0.000 N 
ATOM     11  O   UNL     1       4.344   8.465   0.468  0.00  0.00    +0.000 OA
ATOM     12  H   UNL     1       5.833   6.948   2.823  0.00  0.00    +0.000 HD
ATOM     13  H   UNL     1       5.979   8.578   2.271  0.00  0.00    +0.000 HD
ENDBRANCH   5   9
BRANCH   6  14
ATOM     14  N   UNL     1       1.982   7.048   0.097  0.00  0.00    +0.000 N 
ATOM     15  H   UNL     1       2.463   7.874  -0.262  0.00  0.00    +0.000 HD
ATOM     16  H   UNL     1       1.206   6.736  -0.477  0.00  0.00    +0.000 HD
ENDBRANCH   6  14
BRANCH   1  17
ATOM     17  C   UNL     1       3.037   1.322   0.592  0.00  0.00    +0.000 C 
BRANCH  17  19
ATOM     18  C   UNL     1       3.214  -0.233  -1.421  0.00  0.00    +0.000 C 
ATOM     19  C   UNL     1       2.557  -0.001  -0.053  0.00  0.00    +0.000 C 
BRANCH  19  20
ATOM     20  C   UNL     1       1.039  -0.155  -0.066  0.00  0.00    +0.000 A 
ATOM     21  C   UNL     1       0.389  -0.641   1.082  0.00  0.00    +0.000 A 
ATOM     22  C   UNL     1      -0.990  -0.867   1.085  0.00  0.00    +0.000 A 
ATOM     23  C   UNL     1      -1.737  -0.604  -0.060  0.00  0.00    +0.000 A 
ATOM     24 CL   UNL     1      -3.427  -0.923  -0.074  0.00  0.00    +0.000 Cl
ATOM     25  C   UNL     1      -1.119  -0.093  -1.197  0.00  0.00    +0.000 A 
ATOM     26  C   UNL     1       0.259   0.139  -1.197  0.00  0.00    +0.000 A 
ENDBRANCH  19  20
ENDBRANCH  17  19
ENDBRANCH   1  17
TORSDOF 5
