REMARK  Name = 
REMARK  6 active torsions:
REMARK  status: ('A' for Active; 'I' for Inactive)
REMARK    1  A    between atoms: C_2  and  C_3
REMARK    2  A    between atoms: C_6  and  N_7
REMARK    3  A    between atoms: N_7  and  C_8
REMARK    4  A    between atoms: C_8  and  C_9
REMARK    5  A    between atoms: C_9  and  C_12
REMARK    6  A    between atoms: C_14  and  C_15
REMARK                            x       y       z     vdW  Elec       q    Type
REMARK                         _______ _______ _______ _____ _____    ______ ____
ROOT
ATOM      1  C   UNL     1       6.027  -1.039   0.341  0.00  0.00    +0.000 C 
ATOM      2  F   UNL     1       6.459  -0.275  -0.707  0.00  0.00    +0.000 F 
ATOM      3  F   UNL     1       6.247  -0.264   1.453  0.00  0.00    +0.000 F 
ENDROOT
BRANCH   1   4
ATOM      4  C   UNL     1       6.769  -2.369   0.414  0.00  0.00    +0.000 A 
ATOM      5  C   UNL     1       7.971  -2.433   1.118  0.00  0.00    +0.000 A 
ATOM      6  C   UNL     1       8.697  -3.633   1.172  0.00  0.00    +0.000 A 
ATOM      7  C   UNL     1       8.161  -4.729   0.487  0.00  0.00    +0.000 A 
ATOM      8  C   UNL     1       6.960  -4.597  -0.182  0.00  0.00    +0.000 A 
ATOM      9  N   UNL     1       6.259  -3.449  -0.236  0.00  0.00    +0.000 NA
BRANCH   6  10
ATOM     10  C   UNL     1       9.969  -3.732   1.921  0.00  0.00    +0.000 A 
ATOM     11  C   UNL     1      10.820  -2.616   2.057  0.00  0.00    +0.000 A 
ATOM     12  C   UNL     1      12.016  -2.703   2.776  0.00  0.00    +0.000 A 
ATOM     13  C   UNL     1      12.379  -3.909   3.360  0.00  0.00    +0.000 A 
ATOM     14  F   UNL     1      13.524  -3.989   4.049  0.00  0.00    +0.000 F 
ATOM     15  C   UNL     1      11.577  -5.029   3.242  0.00  0.00    +0.000 A 
ATOM     16  C   UNL     1      10.384  -4.931   2.532  0.00  0.00    +0.000 A 
ATOM     17  F   UNL     1       9.624  -6.035   2.463  0.00  0.00    +0.000 F 
ENDBRANCH   6  10
ENDBRANCH   1   4
BRANCH   1  18
ATOM     18  C   UNL     1       4.506  -1.266   0.213  0.00  0.00    +0.000 C 
BRANCH  18  19
ATOM     19  N   UNL     1       3.718  -0.021   0.178  0.00  0.00    +0.000 N 
ATOM     20  H   UNL     1       4.161   0.808   0.564  0.00  0.00    +0.000 HD
BRANCH  19  24
ATOM     21  C   UNL     1      -0.480   0.006  -0.132  0.00  0.00    +0.000 A 
ATOM     22  C   UNL     1       0.199  -1.210  -0.113  0.00  0.00    +0.000 A 
ATOM     23  C   UNL     1       1.592  -1.229   0.008  0.00  0.00    +0.000 A 
ATOM     24  C   UNL     1       2.332  -0.046   0.133  0.00  0.00    +0.000 A 
ATOM     25  C   UNL     1       1.633   1.167   0.079  0.00  0.00    +0.000 A 
ATOM     26  C   UNL     1       0.239   1.199  -0.047  0.00  0.00    +0.000 A 
BRANCH  21  28
ATOM     27  N   UNL     1      -3.067   0.033  -0.301  0.00  0.00    +0.000 NA
ATOM     28  C   UNL     1      -1.905   0.029  -0.233  0.00  0.00    +0.000 C 
ENDBRANCH  21  28
ENDBRANCH  19  24
ENDBRANCH  18  19
ENDBRANCH   1  18
TORSDOF 6
