REMARK  Name = 
REMARK  4 active torsions:
REMARK  status: ('A' for Active; 'I' for Inactive)
REMARK    1  A    between atoms: C_2  and  C_3
REMARK    2  A    between atoms: C_7  and  C_8
REMARK    3  A    between atoms: C_8  and  N_9
REMARK    4  A    between atoms: C_13  and  C_14
REMARK                            x       y       z     vdW  Elec       q    Type
REMARK                         _______ _______ _______ _____ _____    ______ ____
ROOT
ATOM      1  N   UNL     1       3.865   2.264   0.270  0.00  0.00    +0.000 N 
ATOM      2  C   UNL     1       4.618   3.443   0.144  0.00  0.00    +0.000 A 
ATOM      3  C   UNL     1       5.996   3.380   0.332  0.00  0.00    +0.000 A 
ATOM      4  C   UNL     1       6.762   4.544   0.212  0.00  0.00    +0.000 A 
ATOM      5  C   UNL     1       6.139   5.754  -0.091  0.00  0.00    +0.000 A 
ATOM      6  C   UNL     1       4.763   5.729  -0.240  0.00  0.00    +0.000 A 
ATOM      7  N   UNL     1       4.002   4.612  -0.124  0.00  0.00    +0.000 NA
ATOM      8  H   UNL     1       4.247   1.558  -0.352  0.00  0.00    +0.000 HD
ENDROOT
BRANCH   5   9
ATOM      9  C   UNL     1       6.958   6.981  -0.244  0.00  0.00    +0.000 C 
ATOM     10  N   UNL     1       6.338   8.160  -0.558  0.00  0.00    +0.000 N 
ATOM     11  O   UNL     1       8.174   6.949  -0.105  0.00  0.00    +0.000 OA
ATOM     12  H   UNL     1       5.351   8.299  -0.696  0.00  0.00    +0.000 HD
ATOM     13  H   UNL     1       6.939   8.969  -0.661  0.00  0.00    +0.000 HD
ENDBRANCH   5   9
BRANCH   1  14
ATOM     14  C   UNL     1       2.439   2.468   0.043  0.00  0.00    +0.000 C 
BRANCH  14  19
ATOM     15  C   UNL     1       1.027  -0.782   1.472  0.00  0.00    +0.000 A 
ATOM     16  C   UNL     1       0.260  -1.245   0.399  0.00  0.00    +0.000 A 
ATOM     17  C   UNL     1       0.213  -0.519  -0.791  0.00  0.00    +0.000 A 
ATOM     18  C   UNL     1       0.930   0.672  -0.911  0.00  0.00    +0.000 A 
ATOM     19  C   UNL     1       1.703   1.151   0.157  0.00  0.00    +0.000 A 
ATOM     20  C   UNL     1       1.744   0.413   1.351  0.00  0.00    +0.000 A 
BRANCH  15  22
ATOM     21  N   UNL     1       1.107  -2.135   3.684  0.00  0.00    +0.000 NA
ATOM     22  C   UNL     1       1.073  -1.527   2.695  0.00  0.00    +0.000 C 
ENDBRANCH  15  22
ENDBRANCH  14  19
ENDBRANCH   1  14
TORSDOF 4
