REMARK  Name = 
REMARK  8 active torsions:
REMARK  status: ('A' for Active; 'I' for Inactive)
REMARK    1  A    between atoms: C_1  and  C_2
REMARK    2  A    between atoms: C_2  and  C_3
REMARK    3  A    between atoms: C_2  and  C_4
REMARK    4  A    between atoms: C_2  and  C_5
REMARK    5  A    between atoms: C_9  and  C_10
REMARK    6  A    between atoms: C_10  and  O_12
REMARK    7  A    between atoms: N_16  and  C_17
REMARK    8  A    between atoms: C_17  and  C_18
REMARK                            x       y       z     vdW  Elec       q    Type
REMARK                         _______ _______ _______ _____ _____    ______ ____
ROOT
ATOM      1  C   UNL     1       2.829  -1.329   0.596  0.00  0.00    +0.000 A 
ATOM      2  N   UNL     1       3.647  -1.489   1.626  0.00  0.00    +0.000 NA
ATOM      3  C   UNL     1       3.808  -2.834   1.810  0.00  0.00    +0.000 A 
ATOM      4  C   UNL     1       4.547  -3.516   2.791  0.00  0.00    +0.000 A 
ATOM      5  C   UNL     1       4.559  -4.921   2.762  0.00  0.00    +0.000 A 
ATOM      6  C   UNL     1       3.850  -5.619   1.776  0.00  0.00    +0.000 A 
ATOM      7  C   UNL     1       3.107  -4.946   0.801  0.00  0.00    +0.000 A 
ATOM      8  C   UNL     1       3.094  -3.545   0.859  0.00  0.00    +0.000 A 
ATOM      9  N   UNL     1       2.410  -2.574   0.144  0.00  0.00    +0.000 N 
ENDROOT
BRANCH   1  11
ATOM     10  C   UNL     1       3.102   1.155   0.890  0.00  0.00    +0.000 C 
ATOM     11  C   UNL     1       2.446   0.043   0.033  0.00  0.00    +0.000 C 
ATOM     12  C   UNL     1       0.930   0.286   0.091  0.00  0.00    +0.000 C 
ATOM     13  C   UNL     1       2.973   0.225  -1.401  0.00  0.00    +0.000 C 
ENDBRANCH   1  11
BRANCH   5  14
ATOM     14  C   UNL     1       5.256  -5.717   3.801  0.00  0.00    +0.000 C 
ATOM     15  O   UNL     1       4.858  -6.813   4.166  0.00  0.00    +0.000 OA
BRANCH  14  16
ATOM     16  O   UNL     1       6.384  -5.149   4.274  0.00  0.00    +0.000 OA
ATOM     17  H   UNL     1       6.683  -4.354   3.795  0.00  0.00    +0.000 HD
ENDBRANCH  14  16
ENDBRANCH   5  14
BRANCH   9  18
ATOM     18  C   UNL     1       1.421  -2.888  -0.881  0.00  0.00    +0.000 C 
BRANCH  18  19
ATOM     19  C   UNL     1       0.008  -3.006  -0.369  0.00  0.00    +0.000 A 
ATOM     20  C   UNL     1      -0.335  -3.472   0.905  0.00  0.00    +0.000 A 
ATOM     21  C   UNL     1      -1.674  -3.612   1.256  0.00  0.00    +0.000 A 
ATOM     22  C   UNL     1      -2.640  -3.288   0.321  0.00  0.00    +0.000 A 
ATOM     23  N   UNL     1      -2.355  -2.830  -0.916  0.00  0.00    +0.000 NA
ATOM     24  C   UNL     1      -1.048  -2.707  -1.231  0.00  0.00    +0.000 A 
ENDBRANCH  18  19
ENDBRANCH   9  18
TORSDOF 5
