REMARK  Name = 
REMARK  5 active torsions:
REMARK  status: ('A' for Active; 'I' for Inactive)
REMARK    1  A    between atoms: C_2  and  C_3
REMARK    2  A    between atoms: C_6  and  C_7
REMARK    3  A    between atoms: C_11  and  C_12
REMARK    4  A    between atoms: C_12  and  N_13
REMARK    5  A    between atoms: C_17  and  C_18
REMARK                            x       y       z     vdW  Elec       q    Type
REMARK                         _______ _______ _______ _____ _____    ______ ____
ROOT
ATOM      1  C   UNL     1       6.519   1.700   2.094  0.00  0.00    +0.000 C 
ATOM      2  C   UNL     1       7.199   2.975   1.611  0.00  0.00    +0.000 C 
ATOM      3  C   UNL     1       8.028   1.865   2.159  0.00  0.00    +0.000 C 
ENDROOT
BRANCH   1   4
ATOM      4  N   UNL     1       5.710   1.764   3.326  0.00  0.00    +0.000 N 
ATOM      5  C   UNL     1       5.764   0.805   4.348  0.00  0.00    +0.000 A 
ATOM      6  C   UNL     1       6.932   0.177   4.763  0.00  0.00    +0.000 A 
ATOM      7  C   UNL     1       6.903  -0.697   5.856  0.00  0.00    +0.000 A 
ATOM      8  C   UNL     1       5.702  -0.935   6.520  0.00  0.00    +0.000 A 
ATOM      9  C   UNL     1       4.587  -0.270   6.043  0.00  0.00    +0.000 A 
ATOM     10  N   UNL     1       4.594   0.586   4.986  0.00  0.00    +0.000 NA
ATOM     11  H   UNL     1       4.719   1.950   3.192  0.00  0.00    +0.000 HD
BRANCH   8  12
ATOM     12  C   UNL     1       5.684  -1.864   7.677  0.00  0.00    +0.000 C 
ATOM     13  N   UNL     1       4.500  -2.107   8.316  0.00  0.00    +0.000 N 
ATOM     14  O   UNL     1       6.708  -2.416   8.060  0.00  0.00    +0.000 OA
ATOM     15  H   UNL     1       3.602  -1.714   8.079  0.00  0.00    +0.000 HD
ATOM     16  H   UNL     1       4.532  -2.757   9.092  0.00  0.00    +0.000 HD
ENDBRANCH   8  12
ENDBRANCH   1   4
BRANCH   1  21
ATOM     17  C   UNL     1       5.766  -1.413  -0.049  0.00  0.00    +0.000 A 
ATOM     18  C   UNL     1       4.813  -0.901  -0.941  0.00  0.00    +0.000 A 
ATOM     19  C   UNL     1       4.397   0.431  -0.862  0.00  0.00    +0.000 A 
ATOM     20  C   UNL     1       4.942   1.275   0.105  0.00  0.00    +0.000 A 
ATOM     21  C   UNL     1       5.909   0.815   1.014  0.00  0.00    +0.000 A 
ATOM     22  C   UNL     1       6.287  -0.533   0.916  0.00  0.00    +0.000 A 
BRANCH  17  26
ATOM     23  C   UNL     1       7.051  -5.518  -0.072  0.00  0.00    +0.000 A 
ATOM     24  C   UNL     1       7.943  -4.511   0.293  0.00  0.00    +0.000 A 
ATOM     25  C   UNL     1       7.525  -3.179   0.275  0.00  0.00    +0.000 A 
ATOM     26  C   UNL     1       6.210  -2.822  -0.085  0.00  0.00    +0.000 A 
ATOM     27  C   UNL     1       5.332  -3.858  -0.446  0.00  0.00    +0.000 A 
ATOM     28  C   UNL     1       5.748  -5.192  -0.447  0.00  0.00    +0.000 A 
BRANCH  23  30
ATOM     29  N   UNL     1       7.812  -7.990  -0.054  0.00  0.00    +0.000 NA
ATOM     30  C   UNL     1       7.470  -6.886  -0.060  0.00  0.00    +0.000 C 
ENDBRANCH  23  30
ENDBRANCH  17  26
ENDBRANCH   1  21
TORSDOF 5
