REMARK  Name = 
REMARK  5 active torsions:
REMARK  status: ('A' for Active; 'I' for Inactive)
REMARK    1  A    between atoms: C_1  and  O_2
REMARK    2  A    between atoms: O_2  and  C_3
REMARK    3  A    between atoms: C_5  and  C_6
REMARK    4  A    between atoms: C_6  and  N_7
REMARK    5  A    between atoms: C_11  and  C_12
REMARK                            x       y       z     vdW  Elec       q    Type
REMARK                         _______ _______ _______ _____ _____    ______ ____
ROOT
ATOM      1  N   UNL     1       5.618   0.373  -3.578  0.00  0.00    +0.000 N 
ATOM      2  C   UNL     1       6.042  -0.808  -2.977  0.00  0.00    +0.000 A 
ATOM      3  C   UNL     1       6.291  -0.932  -1.615  0.00  0.00    +0.000 A 
ATOM      4  C   UNL     1       6.695  -2.165  -1.096  0.00  0.00    +0.000 A 
ATOM      5  C   UNL     1       6.838  -3.251  -1.956  0.00  0.00    +0.000 A 
ATOM      6  C   UNL     1       6.572  -3.044  -3.301  0.00  0.00    +0.000 A 
ATOM      7  N   UNL     1       6.172  -1.856  -3.818  0.00  0.00    +0.000 NA
ATOM      8  H   UNL     1       5.597   0.231  -4.583  0.00  0.00    +0.000 HD
ENDROOT
BRANCH   5   9
ATOM      9  C   UNL     1       7.281  -4.589  -1.514  0.00  0.00    +0.000 C 
ATOM     10  N   UNL     1       7.095  -4.916  -0.199  0.00  0.00    +0.000 N 
ATOM     11  O   UNL     1       7.777  -5.388  -2.298  0.00  0.00    +0.000 OA
ATOM     12  H   UNL     1       6.488  -4.395   0.417  0.00  0.00    +0.000 HD
ATOM     13  H   UNL     1       7.323  -5.868   0.062  0.00  0.00    +0.000 HD
ENDBRANCH   5   9
BRANCH   1  14
ATOM     14  C   UNL     1       5.792   1.723  -3.029  0.00  0.00    +0.000 C 
ATOM     15  C   UNL     1       7.172   2.341  -2.941  0.00  0.00    +0.000 C 
ATOM     16  C   UNL     1       6.247   2.784  -4.027  0.00  0.00    +0.000 C 
BRANCH  14  19
ATOM     17  C   UNL     1       2.278   2.463  -1.653  0.00  0.00    +0.000 A 
ATOM     18  C   UNL     1       3.343   2.124  -2.496  0.00  0.00    +0.000 A 
ATOM     19  C   UNL     1       4.684   2.148  -2.065  0.00  0.00    +0.000 A 
ATOM     20  C   UNL     1       4.924   2.553  -0.741  0.00  0.00    +0.000 A 
ATOM     21  C   UNL     1       3.877   2.931   0.105  0.00  0.00    +0.000 A 
ATOM     22  C   UNL     1       2.559   2.891  -0.351  0.00  0.00    +0.000 A 
ATOM     23 CL   UNL     1       1.302   3.354   0.741  0.00  0.00    +0.000 Cl
BRANCH  17  25
ATOM     24  C   UNL     1       0.660   1.465  -3.058  0.00  0.00    +0.000 C 
ATOM     25  O   UNL     1       0.966   2.427  -2.052  0.00  0.00    +0.000 OA
ENDBRANCH  17  25
ENDBRANCH  14  19
ENDBRANCH   1  14
TORSDOF 4
