REMARK  Name = 
REMARK  10 active torsions:
REMARK  status: ('A' for Active; 'I' for Inactive)
REMARK    1  A    between atoms: C_1  and  O_2
REMARK    2  A    between atoms: O_2  and  C_3
REMARK    3  A    between atoms: C_5  and  C_6
REMARK    4  A    between atoms: C_6  and  N_7
REMARK    5  A    between atoms: N_7  and  C_8
REMARK    6  A    between atoms: C_8  and  C_9
REMARK    7  A    between atoms: C_12  and  C_13
REMARK    8  A    between atoms: C_13  and  N_14
REMARK    9  A    between atoms: C_15  and  C_17
REMARK   10  A    between atoms: N_29  and  C_30
REMARK                            x       y       z     vdW  Elec       q    Type
REMARK                         _______ _______ _______ _____ _____    ______ ____
ROOT
ATOM      1  C   UNL     1       6.123   0.676  -7.521  0.00  0.00    +0.000 A 
ATOM      2  C   UNL     1       7.182   1.488  -7.953  0.00  0.00    +0.000 A 
ATOM      3  C   UNL     1       8.275   0.940  -8.632  0.00  0.00    +0.000 A 
ATOM      4  C   UNL     1       8.336  -0.435  -8.888  0.00  0.00    +0.000 A 
ATOM      5  C   UNL     1       7.311  -1.257  -8.401  0.00  0.00    +0.000 A 
ATOM      6  C   UNL     1       6.213  -0.707  -7.732  0.00  0.00    +0.000 A 
ENDROOT
BRANCH   1   7
ATOM      7  C   UNL     1       4.915   1.276  -6.836  0.00  0.00    +0.000 C 
BRANCH   7   8
ATOM      8  N   UNL     1       4.208   2.207  -7.720  0.00  0.00    +0.000 NA
ATOM      9  H   UNL     1       4.840   2.966  -7.969  0.00  0.00    +0.000 HD
BRANCH   8  10
ATOM     10  C   UNL     1       3.038   2.774  -7.064  0.00  0.00    +0.000 C 
BRANCH  10  13
ATOM     11  C   UNL     1       1.521   5.613  -8.839  0.00  0.00    +0.000 A 
ATOM     12  C   UNL     1       2.209   5.154  -7.709  0.00  0.00    +0.000 A 
ATOM     13  C   UNL     1       2.405   3.802  -7.932  0.00  0.00    +0.000 A 
ATOM     14  N   UNL     1       1.844   3.559  -9.166  0.00  0.00    +0.000 N 
ATOM     15  C   UNL     1       1.787   2.328  -9.918  0.00  0.00    +0.000 C 
ATOM     16  N   UNL     1       1.292   4.652  -9.730  0.00  0.00    +0.000 NA
BRANCH  11  18
ATOM     17  C   UNL     1       0.402   7.046 -10.289  0.00  0.00    +0.000 C 
ATOM     18  O   UNL     1       1.098   6.878  -9.058  0.00  0.00    +0.000 OA
ENDBRANCH  11  18
ENDBRANCH  10  13
ENDBRANCH   8  10
ENDBRANCH   7   8
ENDBRANCH   1   7
BRANCH   4  19
ATOM     19  C   UNL     1       9.502  -1.032  -9.632  0.00  0.00    +0.000 C 
BRANCH  19  20
ATOM     20  N   UNL     1      10.551  -1.406  -8.721  0.00  0.00    +0.000 N 
ATOM     21  C   UNL     1      11.749  -1.898  -9.166  0.00  0.00    +0.000 C 
ATOM     22  O   UNL     1      12.010  -2.000 -10.363  0.00  0.00    +0.000 OA
ATOM     23  H   UNL     1      10.279  -1.556  -7.756  0.00  0.00    +0.000 HD
BRANCH  21  24
ATOM     24  C   UNL     1      12.734  -2.239  -8.132  0.00  0.00    +0.000 A 
ATOM     25  C   UNL     1      14.084  -2.276  -8.451  0.00  0.00    +0.000 A 
ATOM     26  S   UNL     1      15.092  -2.610  -7.116  0.00  0.00    +0.000 S 
ATOM     27  C   UNL     1      13.755  -2.774  -6.076  0.00  0.00    +0.000 A 
ATOM     28  N   UNL     1      13.924  -3.081  -4.761  0.00  0.00    +0.000 NA
ATOM     29  C   UNL     1      12.824  -3.204  -4.096  0.00  0.00    +0.000 A 
ATOM     30  N   UNL     1      11.570  -3.048  -4.627  0.00  0.00    +0.000 N 
ATOM     31  C   UNL     1      11.352  -2.719  -5.943  0.00  0.00    +0.000 A 
ATOM     32  O   UNL     1      10.215  -2.564  -6.379  0.00  0.00    +0.000 OA
ATOM     33  C   UNL     1      12.557  -2.568  -6.736  0.00  0.00    +0.000 A 
ATOM     34  H   UNL     1      10.747  -3.158  -4.053  0.00  0.00    +0.000 HD
ENDBRANCH  21  24
ENDBRANCH  19  20
ENDBRANCH   4  19
TORSDOF 8
