REMARK  Name = 
REMARK  9 active torsions:
REMARK  status: ('A' for Active; 'I' for Inactive)
REMARK    1  A    between atoms: C_1  and  O_2
REMARK    2  A    between atoms: O_2  and  C_3
REMARK    3  A    between atoms: C_10  and  C_11
REMARK    4  A    between atoms: N_13  and  C_14
REMARK    5  A    between atoms: C_14  and  C_15
REMARK    6  A    between atoms: C_18  and  N_19
REMARK    7  A    between atoms: N_19  and  C_20
REMARK    8  A    between atoms: C_20  and  C_21
REMARK    9  A    between atoms: C_20  and  C_22
REMARK                            x       y       z     vdW  Elec       q    Type
REMARK                         _______ _______ _______ _____ _____    ______ ____
ROOT
ATOM      1  C   UNL     1       2.956  -1.050  -3.209  0.00  0.00    +0.000 C 
ENDROOT
BRANCH   1   2
ATOM      2  C   UNL     1       1.778  -1.897  -2.808  0.00  0.00    +0.000 A 
ATOM      3  C   UNL     1       1.862  -3.294  -2.828  0.00  0.00    +0.000 A 
ATOM      4  C   UNL     1       0.814  -4.079  -2.332  0.00  0.00    +0.000 A 
ATOM      5  C   UNL     1      -0.330  -3.492  -1.784  0.00  0.00    +0.000 A 
ATOM      6  C   UNL     1      -0.465  -2.104  -1.895  0.00  0.00    +0.000 A 
ATOM      7  C   UNL     1       0.579  -1.310  -2.388  0.00  0.00    +0.000 A 
BRANCH   5   8
ATOM      8  N   UNL     1      -1.395  -4.220  -1.227  0.00  0.00    +0.000 N 
ATOM      9  H   UNL     1      -2.037  -4.512  -1.970  0.00  0.00    +0.000 HD
BRANCH   8  10
ATOM     10  C   UNL     1      -1.053  -5.417  -0.428  0.00  0.00    +0.000 C 
ATOM     11  C   UNL     1      -2.064  -5.536   0.715  0.00  0.00    +0.000 C 
BRANCH  10  12
ATOM     12  C   UNL     1      -1.093  -6.702  -1.254  0.00  0.00    +0.000 A 
ATOM     13  C   UNL     1      -0.274  -7.774  -0.895  0.00  0.00    +0.000 A 
ATOM     14  C   UNL     1      -0.355  -8.960  -1.619  0.00  0.00    +0.000 A 
ATOM     15  C   UNL     1      -1.249  -9.050  -2.677  0.00  0.00    +0.000 A 
ATOM     16  C   UNL     1      -2.027  -7.943  -2.972  0.00  0.00    +0.000 A 
ATOM     17  N   UNL     1      -1.974  -6.777  -2.289  0.00  0.00    +0.000 NA
ENDBRANCH  10  12
ENDBRANCH   8  10
ENDBRANCH   5   8
ENDBRANCH   1   2
BRANCH   1  20
ATOM     18  C   UNL     1       4.014  -0.073  -5.186  0.00  0.00    +0.000 C 
ATOM     19  O   UNL     1       4.937   0.361  -4.499  0.00  0.00    +0.000 OA
ATOM     20  N   UNL     1       2.987  -0.783  -4.623  0.00  0.00    +0.000 N 
ATOM     21  H   UNL     1       2.202  -1.087  -5.182  0.00  0.00    +0.000 HD
BRANCH  18  29
ATOM     22  C   UNL     1       1.829  -1.003  -7.681  0.00  0.00    +0.000 A 
ATOM     23  N   UNL     1       1.207  -1.296  -8.845  0.00  0.00    +0.000 NA
ATOM     24  C   UNL     1       1.764  -0.872  -9.982  0.00  0.00    +0.000 A 
ATOM     25  N   UNL     1       2.884  -0.166 -10.109  0.00  0.00    +0.000 NA
ATOM     26  C   UNL     1       3.479   0.091  -8.933  0.00  0.00    +0.000 A 
ATOM     27  S   UNL     1       4.916   0.993  -8.907  0.00  0.00    +0.000 S 
ATOM     28  C   UNL     1       5.022   0.866  -7.218  0.00  0.00    +0.000 A 
ATOM     29  C   UNL     1       3.985   0.141  -6.640  0.00  0.00    +0.000 A 
ATOM     30  C   UNL     1       3.043  -0.294  -7.668  0.00  0.00    +0.000 A 
BRANCH  22  32
ATOM     31  C   UNL     1      -0.022  -2.054  -6.676  0.00  0.00    +0.000 C 
ATOM     32  O   UNL     1       1.231  -1.398  -6.502  0.00  0.00    +0.000 OA
ENDBRANCH  22  32
ENDBRANCH  18  29
ENDBRANCH   1  20
TORSDOF 7
