REMARK  Name = 
REMARK  7 active torsions:
REMARK  status: ('A' for Active; 'I' for Inactive)
REMARK    1  A    between atoms: N_1  and  C_2
REMARK    2  A    between atoms: C_2  and  C_3
REMARK    3  A    between atoms: C_3  and  C_4
REMARK    4  A    between atoms: C_7  and  O_8
REMARK    5  A    between atoms: O_8  and  C_9
REMARK    6  A    between atoms: C_9  and  C_10
REMARK    7  A    between atoms: C_14  and  C_15
REMARK                            x       y       z     vdW  Elec       q    Type
REMARK                         _______ _______ _______ _____ _____    ______ ____
ROOT
ATOM      1  O   UNL     1       8.660   0.895  -1.508  0.00  0.00    +0.000 OA
ENDROOT
BRANCH   1   5
ATOM      2  C   UNL     1       4.504   0.559  -1.370  0.00  0.00    +0.000 A 
ATOM      3  C   UNL     1       5.200   0.632  -2.583  0.00  0.00    +0.000 A 
ATOM      4  C   UNL     1       6.594   0.718  -2.591  0.00  0.00    +0.000 A 
ATOM      5  C   UNL     1       7.306   0.739  -1.391  0.00  0.00    +0.000 A 
ATOM      6  C   UNL     1       6.623   0.599  -0.184  0.00  0.00    +0.000 A 
ATOM      7  C   UNL     1       5.229   0.518  -0.175  0.00  0.00    +0.000 A 
BRANCH   2   8
ATOM      8  C   UNL     1       2.997   0.535  -1.340  0.00  0.00    +0.000 C 
BRANCH   8   9
ATOM      9  C   UNL     1       2.430  -0.885  -1.396  0.00  0.00    +0.000 C 
BRANCH   9  10
ATOM     10  N   UNL     1       0.968  -0.857  -1.363  0.00  0.00    +0.000 NA
ATOM     11  H   UNL     1       0.613  -1.809  -1.434  0.00  0.00    +0.000 HD
ATOM     12  H   UNL     1       0.618  -0.360  -2.181  0.00  0.00    +0.000 HD
ENDBRANCH   9  10
ENDBRANCH   8   9
ENDBRANCH   2   8
ENDBRANCH   1   5
BRANCH   1  13
ATOM     13  C   UNL     1       9.308   1.451  -0.364  0.00  0.00    +0.000 C 
BRANCH  13  14
ATOM     14  C   UNL     1      10.608   2.064  -0.816  0.00  0.00    +0.000 A 
ATOM     15  C   UNL     1      11.812   1.361  -0.704  0.00  0.00    +0.000 A 
ATOM     16  C   UNL     1      13.003   1.929  -1.155  0.00  0.00    +0.000 A 
ATOM     17  C   UNL     1      12.999   3.198  -1.737  0.00  0.00    +0.000 A 
ATOM     18  C   UNL     1      11.802   3.913  -1.875  0.00  0.00    +0.000 A 
ATOM     19  C   UNL     1      10.612   3.339  -1.402  0.00  0.00    +0.000 A 
BRANCH  18  20
ATOM     20  C   UNL     1      11.765   5.269  -2.533  0.00  0.00    +0.000 C 
ATOM     21  F   UNL     1      12.974   5.680  -3.008  0.00  0.00    +0.000 F 
ATOM     22  F   UNL     1      10.915   5.309  -3.597  0.00  0.00    +0.000 F 
ATOM     23  F   UNL     1      11.346   6.250  -1.686  0.00  0.00    +0.000 F 
ENDBRANCH  18  20
ENDBRANCH  13  14
ENDBRANCH   1  13
TORSDOF 7
