REMARK  Name = 
REMARK  7 active torsions:
REMARK  status: ('A' for Active; 'I' for Inactive)
REMARK    1  A    between atoms: N_1  and  C_2
REMARK    2  A    between atoms: C_2  and  C_3
REMARK    3  A    between atoms: C_7  and  O_8
REMARK    4  A    between atoms: O_8  and  C_9
REMARK    5  A    between atoms: C_9  and  C_10
REMARK    6  A    between atoms: C_10  and  O_11
REMARK    7  A    between atoms: C_10  and  C_12
REMARK                            x       y       z     vdW  Elec       q    Type
REMARK                         _______ _______ _______ _____ _____    ______ ____
ROOT
ATOM      1  O   UNL     1       2.610  -4.670   0.898  0.00  0.00    +0.000 OA
ENDROOT
BRANCH   1   6
ATOM      2  C   UNL     1       3.563  -1.162   0.685  0.00  0.00    +0.000 A 
ATOM      3  C   UNL     1       4.024  -0.908   1.984  0.00  0.00    +0.000 A 
ATOM      4  C   UNL     1       4.046  -1.924   2.938  0.00  0.00    +0.000 A 
ATOM      5  C   UNL     1       3.592  -3.204   2.614  0.00  0.00    +0.000 A 
ATOM      6  C   UNL     1       3.116  -3.474   1.330  0.00  0.00    +0.000 A 
ATOM      7  C   UNL     1       3.116  -2.455   0.371  0.00  0.00    +0.000 A 
BRANCH   2   8
ATOM      8  C   UNL     1       3.490  -0.054  -0.335  0.00  0.00    +0.000 C 
BRANCH   8   9
ATOM      9  N   UNL     1       4.772   0.621  -0.505  0.00  0.00    +0.000 NA
ATOM     10  H   UNL     1       4.694   1.292  -1.266  0.00  0.00    +0.000 HD
ATOM     11  H   UNL     1       5.465  -0.066  -0.797  0.00  0.00    +0.000 HD
ENDBRANCH   8   9
ENDBRANCH   2   8
ENDBRANCH   1   6
BRANCH   1  12
ATOM     12  C   UNL     1       2.570  -5.737   1.857  0.00  0.00    +0.000 C 
BRANCH  12  13
ATOM     13  C   UNL     1       1.939  -6.985   1.212  0.00  0.00    +0.000 C 
BRANCH  13  14
ATOM     14  C   UNL     1       2.774  -7.564   0.089  0.00  0.00    +0.000 A 
ATOM     15  C   UNL     1       3.788  -8.490   0.380  0.00  0.00    +0.000 A 
ATOM     16  C   UNL     1       4.581  -9.025  -0.638  0.00  0.00    +0.000 A 
ATOM     17  C   UNL     1       4.373  -8.637  -1.961  0.00  0.00    +0.000 A 
ATOM     18  C   UNL     1       3.380  -7.712  -2.265  0.00  0.00    +0.000 A 
ATOM     19  C   UNL     1       2.591  -7.175  -1.248  0.00  0.00    +0.000 A 
ENDBRANCH  13  14
BRANCH  13  20
ATOM     20  O   UNL     1       0.614  -6.693   0.759  0.00  0.00    +0.000 OA
ATOM     21  H   UNL     1       0.659  -5.802   0.367  0.00  0.00    +0.000 HD
ENDBRANCH  13  20
ENDBRANCH  12  13
ENDBRANCH   1  12
TORSDOF 7
