REMARK  Name = 
REMARK  8 active torsions:
REMARK  status: ('A' for Active; 'I' for Inactive)
REMARK    1  A    between atoms: C_1  and  C_2
REMARK    2  A    between atoms: C_2  and  C_3
REMARK    3  A    between atoms: C_5  and  O_6
REMARK    4  A    between atoms: O_6  and  C_7
REMARK    5  A    between atoms: C_11  and  C_12
REMARK    6  A    between atoms: C_13  and  N_14
REMARK    7  A    between atoms: N_14  and  C_15
REMARK    8  A    between atoms: C_18  and  C_19
REMARK                            x       y       z     vdW  Elec       q    Type
REMARK                         _______ _______ _______ _____ _____    ______ ____
ROOT
ATOM      1  C   UNL     1      -1.624   2.373  -1.251  0.00  0.00    +0.000 A 
ATOM      2  C   UNL     1      -0.835   2.969  -0.272  0.00  0.00    +0.000 A 
ATOM      3  C   UNL     1      -0.367   4.271  -0.458  0.00  0.00    +0.000 A 
ATOM      4  C   UNL     1      -0.714   4.991  -1.607  0.00  0.00    +0.000 A 
ATOM      5  C   UNL     1      -1.539   4.421  -2.586  0.00  0.00    +0.000 A 
ATOM      6  C   UNL     1      -1.966   3.092  -2.405  0.00  0.00    +0.000 A 
ENDROOT
BRANCH   5   7
ATOM      7  C   UNL     1      -1.919   5.243  -3.754  0.00  0.00    +0.000 C 
ATOM      8  C   UNL     1      -3.099   5.128  -4.381  0.00  0.00    +0.000 C 
BRANCH   8   9
ATOM      9  N   UNL     1      -3.561   5.836  -5.464  0.00  0.00    +0.000 N 
ATOM     10  H   UNL     1      -2.909   6.475  -5.906  0.00  0.00    +0.000 HD
BRANCH   9  11
ATOM     11  C   UNL     1      -4.814   5.688  -6.088  0.00  0.00    +0.000 A 
ATOM     12  C   UNL     1      -5.939   5.207  -5.398  0.00  0.00    +0.000 A 
ATOM     13  C   UNL     1      -7.149   4.962  -6.060  0.00  0.00    +0.000 A 
ATOM     14  C   UNL     1      -7.247   5.178  -7.435  0.00  0.00    +0.000 A 
ATOM     15  C   UNL     1      -6.139   5.659  -8.134  0.00  0.00    +0.000 A 
ATOM     16  C   UNL     1      -4.934   5.909  -7.463  0.00  0.00    +0.000 A 
BRANCH  14  17
ATOM     17  C   UNL     1      -8.479   4.902  -8.120  0.00  0.00    +0.000 C 
ATOM     18  N   UNL     1      -9.475   4.672  -8.675  0.00  0.00    +0.000 NA
ENDBRANCH  14  17
ENDBRANCH   9  11
ENDBRANCH   8   9
ENDBRANCH   5   7
BRANCH   1  19
ATOM     19  O   UNL     1      -2.184   1.128  -1.084  0.00  0.00    +0.000 OA
BRANCH  19  24
ATOM     20  C   UNL     1      -0.512  -1.256   1.497  0.00  0.00    +0.000 C 
ATOM     21  C   UNL     1      -1.643  -0.660   0.691  0.00  0.00    +0.000 C 
ATOM     22  C   UNL     1      -2.829  -0.226   1.516  0.00  0.00    +0.000 C 
ATOM     23  C   UNL     1      -1.905  -1.276  -0.662  0.00  0.00    +0.000 C 
ATOM     24  C   UNL     1      -1.291   0.099  -0.590  0.00  0.00    +0.000 C 
ENDBRANCH  19  24
ENDBRANCH   1  19
TORSDOF 6
