REMARK  Name = 
REMARK  5 active torsions:
REMARK  status: ('A' for Active; 'I' for Inactive)
REMARK    1  A    between atoms: N_1  and  C_2
REMARK    2  A    between atoms: C_2  and  C_3
REMARK    3  A    between atoms: C_3  and  C_4
REMARK    4  A    between atoms: C_7  and  C_8
REMARK    5  A    between atoms: C_8  and  N_9
REMARK                            x       y       z     vdW  Elec       q    Type
REMARK                         _______ _______ _______ _____ _____    ______ ____
ROOT
ATOM      1  C   UNL     1       4.362  -0.903   1.030  0.00  0.00    +0.000 A 
ATOM      2  C   UNL     1       5.016  -1.446   2.142  0.00  0.00    +0.000 A 
ATOM      3  C   UNL     1       6.411  -1.546   2.171  0.00  0.00    +0.000 A 
ATOM      4  C   UNL     1       7.184  -1.097   1.091  0.00  0.00    +0.000 A 
ATOM      5  C   UNL     1       6.527  -0.526  -0.008  0.00  0.00    +0.000 A 
ATOM      6  C   UNL     1       5.132  -0.424  -0.036  0.00  0.00    +0.000 A 
ENDROOT
BRANCH   1   7
ATOM      7  C   UNL     1       2.853  -0.870   0.970  0.00  0.00    +0.000 C 
BRANCH   7   8
ATOM      8  C   UNL     1       2.246   0.393   1.588  0.00  0.00    +0.000 C 
BRANCH   8   9
ATOM      9  N   UNL     1       0.782   0.340   1.538  0.00  0.00    +0.000 NA
ATOM     10  H   UNL     1       0.397   1.171   1.985  0.00  0.00    +0.000 HD
ATOM     11  H   UNL     1       0.450  -0.454   2.082  0.00  0.00    +0.000 HD
ENDBRANCH   8   9
ENDBRANCH   7   8
ENDBRANCH   1   7
BRANCH   4  12
ATOM     12  C   UNL     1       8.687  -1.211   1.110  0.00  0.00    +0.000 C 
BRANCH  12  13
ATOM     13  N   UNL     1       9.177  -2.464   0.533  0.00  0.00    +0.000 N 
ATOM     14  C   UNL     1       9.452  -2.642  -0.803  0.00  0.00    +0.000 A 
ATOM     15  C   UNL     1      10.080  -3.858  -0.954  0.00  0.00    +0.000 A 
ATOM     16  C   UNL     1      10.195  -4.448   0.334  0.00  0.00    +0.000 A 
ATOM     17  C   UNL     1      10.758  -5.640   0.810  0.00  0.00    +0.000 A 
ATOM     18  N   UNL     1      10.722  -5.945   2.130  0.00  0.00    +0.000 NA
ATOM     19  C   UNL     1      10.122  -5.083   2.977  0.00  0.00    +0.000 A 
ATOM     20  C   UNL     1       9.536  -3.880   2.608  0.00  0.00    +0.000 A 
ATOM     21  C   UNL     1       9.598  -3.571   1.246  0.00  0.00    +0.000 A 
ENDBRANCH  12  13
ENDBRANCH   4  12
TORSDOF 5
