REMARK  Name = 
REMARK  5 active torsions:
REMARK  status: ('A' for Active; 'I' for Inactive)
REMARK    1  A    between atoms: C_2  and  C_4
REMARK    2  A    between atoms: C_7  and  O_8
REMARK    3  A    between atoms: O_8  and  C_9
REMARK    4  A    between atoms: C_9  and  C_10
REMARK    5  A    between atoms: C_14  and  C_15
REMARK                            x       y       z     vdW  Elec       q    Type
REMARK                         _______ _______ _______ _____ _____    ______ ____
ROOT
ATOM      1  C   UNL     1       1.351 -10.067  -4.738  0.00  0.00    +0.000 C 
ENDROOT
BRANCH   1   2
ATOM      2  C   UNL     1       2.486  -9.202  -4.248  0.00  0.00    +0.000 A 
ATOM      3  C   UNL     1       2.384  -8.496  -3.046  0.00  0.00    +0.000 A 
ATOM      4  C   UNL     1       3.449  -7.719  -2.600  0.00  0.00    +0.000 A 
ATOM      5  C   UNL     1       4.638  -7.677  -3.331  0.00  0.00    +0.000 A 
ATOM      6  C   UNL     1       4.792  -8.426  -4.511  0.00  0.00    +0.000 A 
ATOM      7  C   UNL     1       3.684  -9.149  -4.976  0.00  0.00    +0.000 A 
BRANCH   6   8
ATOM      8  C   UNL     1       6.164  -8.471  -5.176  0.00  0.00    +0.000 C 
ATOM      9  C   UNL     1       7.208  -9.117  -4.261  0.00  0.00    +0.000 C 
ATOM     10  C   UNL     1       6.956 -10.605  -4.451  0.00  0.00    +0.000 C 
ATOM     11  C   UNL     1       6.462 -10.715  -5.887  0.00  0.00    +0.000 C 
ATOM     12  N   UNL     1       6.287  -9.339  -6.357  0.00  0.00    +0.000 NA
ATOM     13  H   UNL     1       5.505  -9.234  -6.995  0.00  0.00    +0.000 HD
ENDBRANCH   6   8
ENDBRANCH   1   2
BRANCH   1  14
ATOM     14  O   UNL     1       1.580 -11.404  -4.286  0.00  0.00    +0.000 OA
BRANCH  14  18
ATOM     15  C   UNL     1      -1.353 -14.037  -5.466  0.00  0.00    +0.000 A 
ATOM     16  C   UNL     1      -0.293 -14.493  -4.682  0.00  0.00    +0.000 A 
ATOM     17  C   UNL     1       0.700 -13.592  -4.291  0.00  0.00    +0.000 A 
ATOM     18  C   UNL     1       0.593 -12.271  -4.703  0.00  0.00    +0.000 A 
ATOM     19  N   UNL     1      -0.413 -11.808  -5.475  0.00  0.00    +0.000 NA
ATOM     20  C   UNL     1      -1.358 -12.702  -5.849  0.00  0.00    +0.000 A 
BRANCH  15  22
ATOM     21  N   UNL     1      -2.787 -15.970  -5.141  0.00  0.00    +0.000 N 
ATOM     22  C   UNL     1      -2.465 -14.898  -5.921  0.00  0.00    +0.000 C 
ATOM     23  O   UNL     1      -3.102 -14.632  -6.931  0.00  0.00    +0.000 OA
ATOM     24  H   UNL     1      -3.630 -16.468  -5.401  0.00  0.00    +0.000 HD
ATOM     25  H   UNL     1      -2.468 -16.063  -4.187  0.00  0.00    +0.000 HD
ENDBRANCH  15  22
ENDBRANCH  14  18
ENDBRANCH   1  14
TORSDOF 5
