REMARK  Name = 
REMARK  7 active torsions:
REMARK  status: ('A' for Active; 'I' for Inactive)
REMARK    1  A    between atoms: C_1  and  O_2
REMARK    2  A    between atoms: O_2  and  C_3
REMARK    3  A    between atoms: C_7  and  C_8
REMARK    4  A    between atoms: N_14  and  C_15
REMARK    5  A    between atoms: C_15  and  C_16
REMARK    6  A    between atoms: C_19  and  O_20
REMARK    7  A    between atoms: O_20  and  C_21
REMARK                            x       y       z     vdW  Elec       q    Type
REMARK                         _______ _______ _______ _____ _____    ______ ____
ROOT
ATOM      1  C   UNL     1       3.124   1.145   0.466  0.00  0.00    +0.000 A 
ATOM      2  N   UNL     1       4.056   1.737  -0.251  0.00  0.00    +0.000 NA
ATOM      3  C   UNL     1       4.499   2.765   0.538  0.00  0.00    +0.000 A 
ATOM      4  C   UNL     1       5.496   3.721   0.307  0.00  0.00    +0.000 A 
ATOM      5  C   UNL     1       5.734   4.653   1.323  0.00  0.00    +0.000 A 
ATOM      6  C   UNL     1       4.975   4.575   2.496  0.00  0.00    +0.000 A 
ATOM      7  N   UNL     1       3.988   3.673   2.762  0.00  0.00    +0.000 NA
ATOM      8  C   UNL     1       3.810   2.807   1.744  0.00  0.00    +0.000 A 
ATOM      9  N   UNL     1       2.915   1.774   1.665  0.00  0.00    +0.000 N 
ENDROOT
BRANCH   5  10
ATOM     10  C   UNL     1       6.750   5.728   1.217  0.00  0.00    +0.000 C 
ATOM     11  N   UNL     1       7.489   5.830   0.076  0.00  0.00    +0.000 N 
ATOM     12  O   UNL     1       6.925   6.525   2.138  0.00  0.00    +0.000 OA
ATOM     13  H   UNL     1       7.417   5.226  -0.729  0.00  0.00    +0.000 HD
ATOM     14  H   UNL     1       8.169   6.580   0.037  0.00  0.00    +0.000 HD
ENDBRANCH   5  10
BRANCH   1  16
ATOM     15  C   UNL     1       2.887  -0.539  -1.110  0.00  0.00    +0.000 C 
ATOM     16  O   UNL     1       2.460   0.045   0.116  0.00  0.00    +0.000 OA
ENDBRANCH   1  16
BRANCH   9  17
ATOM     17  C   UNL     1       1.930   1.416   2.665  0.00  0.00    +0.000 C 
BRANCH  17  18
ATOM     18  C   UNL     1       2.487   0.395   3.624  0.00  0.00    +0.000 A 
ATOM     19  C   UNL     1       3.153   0.806   4.787  0.00  0.00    +0.000 A 
ATOM     20  C   UNL     1       3.767  -0.127   5.630  0.00  0.00    +0.000 A 
ATOM     21  C   UNL     1       3.693  -1.487   5.341  0.00  0.00    +0.000 A 
ATOM     22  C   UNL     1       3.034  -1.899   4.179  0.00  0.00    +0.000 A 
ATOM     23  C   UNL     1       2.428  -0.972   3.331  0.00  0.00    +0.000 A 
BRANCH  21  24
ATOM     24  O   UNL     1       4.241  -2.503   6.060  0.00  0.00    +0.000 OA
BRANCH  24  25
ATOM     25  C   UNL     1       4.524  -2.326   7.438  0.00  0.00    +0.000 C 
ATOM     26  F   UNL     1       3.861  -1.299   8.009  0.00  0.00    +0.000 F 
ATOM     27  F   UNL     1       4.160  -3.456   8.089  0.00  0.00    +0.000 F 
ATOM     28  F   UNL     1       5.850  -2.150   7.614  0.00  0.00    +0.000 F 
ENDBRANCH  24  25
ENDBRANCH  21  24
ENDBRANCH  17  18
ENDBRANCH   9  17
TORSDOF 6
