REMARK  Name = 
REMARK  7 active torsions:
REMARK  status: ('A' for Active; 'I' for Inactive)
REMARK    1  A    between atoms: C_1  and  C_2
REMARK    2  A    between atoms: C_5  and  C_6
REMARK    3  A    between atoms: C_10  and  N_11
REMARK    4  A    between atoms: N_11  and  C_12
REMARK    5  A    between atoms: C_12  and  C_13
REMARK    6  A    between atoms: C_16  and  O_17
REMARK    7  A    between atoms: O_17  and  C_18
REMARK                            x       y       z     vdW  Elec       q    Type
REMARK                         _______ _______ _______ _____ _____    ______ ____
ROOT
ATOM      1  N   UNL     1      -1.043   1.957   0.318  0.00  0.00    +0.000 N 
ATOM      2  H   UNL     1      -0.480   2.565   0.917  0.00  0.00    +0.000 HD
ENDROOT
BRANCH   1   9
ATOM      3  C   UNL     1      -1.685  -0.050  -1.952  0.00  0.00    +0.000 C 
ATOM      4  C   UNL     1      -0.343   0.423  -1.513  0.00  0.00    +0.000 A 
ATOM      5  C   UNL     1       0.779  -0.172  -2.079  0.00  0.00    +0.000 A 
ATOM      6  N   UNL     1       2.047   0.130  -1.767  0.00  0.00    +0.000 NA
ATOM      7  C   UNL     1       2.174   1.082  -0.824  0.00  0.00    +0.000 A 
ATOM      8  N   UNL     1       1.163   1.702  -0.184  0.00  0.00    +0.000 NA
ATOM      9  C   UNL     1      -0.095   1.367  -0.526  0.00  0.00    +0.000 A 
BRANCH   7  10
ATOM     10  C   UNL     1       3.586   1.466  -0.452  0.00  0.00    +0.000 C 
ATOM     11  N   UNL     1       4.582   0.764  -1.098  0.00  0.00    +0.000 N 
ATOM     12  O   UNL     1       3.871   2.335   0.360  0.00  0.00    +0.000 OA
ATOM     13  H   UNL     1       4.345   0.040  -1.766  0.00  0.00    +0.000 HD
ATOM     14  H   UNL     1       5.545   0.971  -0.880  0.00  0.00    +0.000 HD
ENDBRANCH   7  10
ENDBRANCH   1   9
BRANCH   1  15
ATOM     15  C   UNL     1      -2.352   2.552  -0.015  0.00  0.00    +0.000 C 
ATOM     16  C   UNL     1      -3.373   2.384   1.125  0.00  0.00    +0.000 C 
ATOM     17  C   UNL     1      -3.642   1.771  -0.200  0.00  0.00    +0.000 C 
BRANCH  15  18
ATOM     18  C   UNL     1      -2.292   3.947  -0.652  0.00  0.00    +0.000 A 
ATOM     19  C   UNL     1      -2.264   4.125  -2.045  0.00  0.00    +0.000 A 
ATOM     20  C   UNL     1      -2.338   5.400  -2.633  0.00  0.00    +0.000 A 
ATOM     21  C   UNL     1      -2.473   6.531  -1.834  0.00  0.00    +0.000 A 
ATOM     22  C   UNL     1      -2.424   6.383  -0.448  0.00  0.00    +0.000 A 
ATOM     23  C   UNL     1      -2.328   5.114   0.131  0.00  0.00    +0.000 A 
BRANCH  21  24
ATOM     24  O   UNL     1      -2.619   7.814  -2.260  0.00  0.00    +0.000 OA
BRANCH  24  25
ATOM     25  C   UNL     1      -3.237   8.074  -3.512  0.00  0.00    +0.000 C 
ATOM     26  F   UNL     1      -3.900   7.019  -4.030  0.00  0.00    +0.000 F 
ATOM     27  F   UNL     1      -4.133   9.075  -3.345  0.00  0.00    +0.000 F 
ATOM     28  F   UNL     1      -2.306   8.487  -4.397  0.00  0.00    +0.000 F 
ENDBRANCH  24  25
ENDBRANCH  21  24
ENDBRANCH  15  18
ENDBRANCH   1  15
TORSDOF 6
