REMARK  Name = 
REMARK  10 active torsions:
REMARK  status: ('A' for Active; 'I' for Inactive)
REMARK    1  A    between atoms: C_1  and  C_2
REMARK    2  A    between atoms: C_2  and  C_3
REMARK    3  A    between atoms: C_3  and  N_4
REMARK    4  A    between atoms: N_4  and  C_5
REMARK    5  A    between atoms: C_5  and  C_6
REMARK    6  A    between atoms: C_9  and  C_10
REMARK    7  A    between atoms: C_10  and  C_11
REMARK    8  A    between atoms: C_11  and  N_12
REMARK    9  A    between atoms: N_12  and  C_13
REMARK   10  A    between atoms: C_20  and  C_22
REMARK                            x       y       z     vdW  Elec       q    Type
REMARK                         _______ _______ _______ _____ _____    ______ ____
ROOT
ATOM      1  N   UNL     1       6.663  -0.724   0.354  0.00  0.00    +0.000 N 
ATOM      2  C   UNL     1       7.217  -0.791   1.658  0.00  0.00    +0.000 C 
ATOM      3  O   UNL     1       8.385  -1.132   1.836  0.00  0.00    +0.000 OA
ENDROOT
BRANCH   2   4
ATOM      4  C   UNL     1       6.379  -0.511   2.839  0.00  0.00    +0.000 A 
ATOM      5  C   UNL     1       5.114  -1.035   3.047  0.00  0.00    +0.000 A 
ATOM      6  S   UNL     1       4.424  -0.592   4.546  0.00  0.00    +0.000 S 
ATOM      7  C   UNL     1       5.872   0.138   5.049  0.00  0.00    +0.000 A 
ATOM      8  N   UNL     1       6.020   0.602   6.324  0.00  0.00    +0.000 NA
ATOM      9  C   UNL     1       7.199   1.056   6.583  0.00  0.00    +0.000 A 
ATOM     10  N   UNL     1       8.228   1.142   5.679  0.00  0.00    +0.000 N 
ATOM     11  C   UNL     1       8.075   0.821   4.342  0.00  0.00    +0.000 A 
ATOM     12  O   UNL     1       8.922   1.141   3.515  0.00  0.00    +0.000 OA
ATOM     13  C   UNL     1       6.815   0.171   4.038  0.00  0.00    +0.000 A 
ATOM     14  H   UNL     1       9.104   1.573   5.928  0.00  0.00    +0.000 HD
ENDBRANCH   2   4
BRANCH   1  15
ATOM     15  C   UNL     1       7.584  -1.000  -0.761  0.00  0.00    +0.000 C 
BRANCH  15  17
ATOM     16  C   UNL     1       8.845   1.240  -0.721  0.00  0.00    +0.000 C 
ATOM     17  C   UNL     1       8.080   0.219  -1.547  0.00  0.00    +0.000 C 
ENDBRANCH  15  17
ENDBRANCH   1  15
BRANCH   1  18
ATOM     18  C   UNL     1       5.415  -0.001   0.082  0.00  0.00    +0.000 C 
BRANCH  18  19
ATOM     19  C   UNL     1       4.656  -0.270  -1.197  0.00  0.00    +0.000 A 
ATOM     20  C   UNL     1       4.328  -1.568  -1.599  0.00  0.00    +0.000 A 
ATOM     21  C   UNL     1       3.384  -1.779  -2.607  0.00  0.00    +0.000 A 
ATOM     22  C   UNL     1       2.700  -0.705  -3.198  0.00  0.00    +0.000 A 
ATOM     23  C   UNL     1       3.095   0.595  -2.861  0.00  0.00    +0.000 A 
ATOM     24  C   UNL     1       4.061   0.808  -1.872  0.00  0.00    +0.000 A 
BRANCH  22  25
ATOM     25  C   UNL     1       1.527  -0.918  -4.142  0.00  0.00    +0.000 C 
BRANCH  25  26
ATOM     26  C   UNL     1       0.691  -2.155  -3.758  0.00  0.00    +0.000 C 
BRANCH  26  27
ATOM     27  N   UNL     1      -0.511  -2.343  -4.576  0.00  0.00    +0.000 NA
ATOM     28  H   UNL     1      -0.244  -2.364  -5.560  0.00  0.00    +0.000 HD
BRANCH  27  29
ATOM     29  C   UNL     1      -1.182  -3.619  -4.236  0.00  0.00    +0.000 C 
ATOM     30  C   UNL     1      -2.380  -3.846  -5.149  0.00  0.00    +0.000 C 
ATOM     31  C   UNL     1      -3.510  -3.165  -4.404  0.00  0.00    +0.000 C 
ATOM     32  N   UNL     1      -3.296  -3.529  -3.000  0.00  0.00    +0.000 NA
ATOM     33  C   UNL     1      -1.836  -3.662  -2.834  0.00  0.00    +0.000 C 
ATOM     34  H   UNL     1      -3.731  -4.432  -2.818  0.00  0.00    +0.000 HD
ENDBRANCH  27  29
ENDBRANCH  26  27
ENDBRANCH  25  26
ENDBRANCH  22  25
ENDBRANCH  18  19
ENDBRANCH   1  18
TORSDOF 9
