REMARK  Name = 
REMARK  9 active torsions:
REMARK  status: ('A' for Active; 'I' for Inactive)
REMARK    1  A    between atoms: C_1  and  O_2
REMARK    2  A    between atoms: O_2  and  C_3
REMARK    3  A    between atoms: C_10  and  C_11
REMARK    4  A    between atoms: N_13  and  C_14
REMARK    5  A    between atoms: C_14  and  C_15
REMARK    6  A    between atoms: C_18  and  C_19
REMARK    7  A    between atoms: C_19  and  O_20
REMARK    8  A    between atoms: O_20  and  C_21
REMARK    9  A    between atoms: C_21  and  C_22
REMARK                            x       y       z     vdW  Elec       q    Type
REMARK                         _______ _______ _______ _____ _____    ______ ____
ROOT
ATOM      1  C   UNL     1       2.917   1.469  -3.086  0.00  0.00    +0.000 C 
ENDROOT
BRANCH   1   2
ATOM      2  C   UNL     1       1.761   0.508  -3.225  0.00  0.00    +0.000 A 
ATOM      3  C   UNL     1       1.978  -0.876  -3.277  0.00  0.00    +0.000 A 
ATOM      4  C   UNL     1       0.902  -1.762  -3.415  0.00  0.00    +0.000 A 
ATOM      5  C   UNL     1      -0.412  -1.285  -3.517  0.00  0.00    +0.000 A 
ATOM      6  C   UNL     1      -0.624   0.101  -3.488  0.00  0.00    +0.000 A 
ATOM      7  C   UNL     1       0.450   0.986  -3.349  0.00  0.00    +0.000 A 
BRANCH   5   8
ATOM      8  C   UNL     1      -1.570  -2.238  -3.684  0.00  0.00    +0.000 C 
BRANCH   8   9
ATOM      9  O   UNL     1      -1.616  -3.132  -2.575  0.00  0.00    +0.000 OA
BRANCH   9  10
ATOM     10  C   UNL     1      -2.729  -4.022  -2.656  0.00  0.00    +0.000 C 
BRANCH  10  11
ATOM     11  C   UNL     1      -2.759  -4.915  -1.446  0.00  0.00    +0.000 A 
ATOM     12  C   UNL     1      -3.269  -6.208  -1.527  0.00  0.00    +0.000 A 
ATOM     13  N   UNL     1      -3.357  -7.060  -0.479  0.00  0.00    +0.000 NA
ATOM     14  C   UNL     1      -2.920  -6.598   0.717  0.00  0.00    +0.000 A 
ATOM     15  C   UNL     1      -2.412  -5.323   0.909  0.00  0.00    +0.000 A 
ATOM     16 CL   UNL     1      -1.889  -4.805   2.459  0.00  0.00    +0.000 Cl
ATOM     17  C   UNL     1      -2.340  -4.469  -0.185  0.00  0.00    +0.000 A 
ENDBRANCH  10  11
ENDBRANCH   9  10
ENDBRANCH   8   9
ENDBRANCH   5   8
ENDBRANCH   1   2
BRANCH   1  20
ATOM     18  C   UNL     1       4.543   2.632  -4.529  0.00  0.00    +0.000 C 
ATOM     19  O   UNL     1       5.118   3.115  -3.558  0.00  0.00    +0.000 OA
ATOM     20  N   UNL     1       3.451   1.822  -4.377  0.00  0.00    +0.000 N 
ATOM     21  H   UNL     1       2.948   1.497  -5.190  0.00  0.00    +0.000 HD
BRANCH  18  29
ATOM     22  C   UNL     1       3.512   1.522  -7.620  0.00  0.00    +0.000 A 
ATOM     23  N   UNL     1       3.339   1.230  -8.924  0.00  0.00    +0.000 NA
ATOM     24  C   UNL     1       4.172   1.787  -9.806  0.00  0.00    +0.000 A 
ATOM     25  N   UNL     1       5.177   2.619  -9.546  0.00  0.00    +0.000 NA
ATOM     26  C   UNL     1       5.311   2.888  -8.236  0.00  0.00    +0.000 A 
ATOM     27  S   UNL     1       6.541   3.936  -7.718  0.00  0.00    +0.000 S 
ATOM     28  C   UNL     1       6.084   3.749  -6.091  0.00  0.00    +0.000 A 
ATOM     29  C   UNL     1       5.002   2.895  -5.905  0.00  0.00    +0.000 A 
ATOM     30  C   UNL     1       4.534   2.390  -7.195  0.00  0.00    +0.000 A 
BRANCH  22  32
ATOM     31  C   UNL     1       2.008  -0.214  -7.170  0.00  0.00    +0.000 C 
ATOM     32  O   UNL     1       2.618   0.991  -6.715  0.00  0.00    +0.000 OA
ENDBRANCH  22  32
ENDBRANCH  18  29
ENDBRANCH   1  20
TORSDOF 8
