REMARK  Name = 
REMARK  5 active torsions:
REMARK  status: ('A' for Active; 'I' for Inactive)
REMARK    1  A    between atoms: C_2  and  C_4
REMARK    2  A    between atoms: N_8  and  C_9
REMARK    3  A    between atoms: C_9  and  C_10
REMARK    4  A    between atoms: C_10  and  C_11
REMARK    5  A    between atoms: C_15  and  C_16
REMARK                            x       y       z     vdW  Elec       q    Type
REMARK                         _______ _______ _______ _____ _____    ______ ____
ROOT
ATOM      1  C   UNL     1       5.045   0.693   5.972  0.00  0.00    +0.000 C 
ENDROOT
BRANCH   1   6
ATOM      2  C   UNL     1       2.932   0.558   1.363  0.00  0.00    +0.000 A 
ATOM      3  C   UNL     1       2.330   0.474   2.612  0.00  0.00    +0.000 A 
ATOM      4  C   UNL     1       3.094   0.728   3.752  0.00  0.00    +0.000 A 
ATOM      5  C   UNL     1       4.446   1.037   3.626  0.00  0.00    +0.000 A 
ATOM      6  N   UNL     1       5.247   1.382   4.705  0.00  0.00    +0.000 N 
ATOM      7  N   UNL     1       5.047   1.089   2.421  0.00  0.00    +0.000 NA
ATOM      8  C   UNL     1       4.287   0.843   1.319  0.00  0.00    +0.000 A 
ATOM      9  H   UNL     1       6.205   1.407   4.360  0.00  0.00    +0.000 HD
BRANCH   2  11
ATOM     10  N   UNL     1       0.849   0.637   0.118  0.00  0.00    +0.000 N 
ATOM     11  C   UNL     1       2.189   0.359   0.103  0.00  0.00    +0.000 C 
ATOM     12  O   UNL     1       2.751  -0.003  -0.924  0.00  0.00    +0.000 OA
ATOM     13  H   UNL     1       0.372   0.606  -0.775  0.00  0.00    +0.000 HD
ATOM     14  H   UNL     1       0.416   1.175   0.856  0.00  0.00    +0.000 HD
ENDBRANCH   2  11
ENDBRANCH   1   6
BRANCH   1  15
ATOM     15  C   UNL     1       6.074   1.149   7.012  0.00  0.00    +0.000 C 
BRANCH  15  16
ATOM     16  C   UNL     1       5.779   0.528   8.357  0.00  0.00    +0.000 A 
ATOM     17  C   UNL     1       4.975   1.193   9.289  0.00  0.00    +0.000 A 
ATOM     18  C   UNL     1       4.642   0.576  10.491  0.00  0.00    +0.000 A 
ATOM     19  C   UNL     1       5.092  -0.719  10.765  0.00  0.00    +0.000 A 
ATOM     20  C   UNL     1       5.890  -1.428   9.848  0.00  0.00    +0.000 A 
ATOM     21  C   UNL     1       6.237  -0.766   8.653  0.00  0.00    +0.000 A 
BRANCH  20  22
ATOM     22  C   UNL     1       6.306  -2.824  10.099  0.00  0.00    +0.000 A 
ATOM     23  N   UNL     1       5.813  -3.446  11.190  0.00  0.00    +0.000 NA
ATOM     24  C   UNL     1       6.136  -4.744  11.341  0.00  0.00    +0.000 A 
ATOM     25  C   UNL     1       6.927  -5.438  10.458  0.00  0.00    +0.000 A 
ATOM     26  C   UNL     1       7.390  -4.716   9.386  0.00  0.00    +0.000 A 
ATOM     27  N   UNL     1       7.097  -3.419   9.182  0.00  0.00    +0.000 NA
ENDBRANCH  20  22
ENDBRANCH  15  16
ENDBRANCH   1  15
TORSDOF 5
