REMARK  Name = 
REMARK  7 active torsions:
REMARK  status: ('A' for Active; 'I' for Inactive)
REMARK    1  A    between atoms: C_1  and  O_2
REMARK    2  A    between atoms: O_2  and  C_3
REMARK    3  A    between atoms: C_6  and  C_7
REMARK    4  A    between atoms: C_7  and  C_8
REMARK    5  A    between atoms: C_7  and  N_9
REMARK    6  A    between atoms: N_9  and  C_10
REMARK    7  A    between atoms: C_13  and  C_14
REMARK                            x       y       z     vdW  Elec       q    Type
REMARK                         _______ _______ _______ _____ _____    ______ ____
ROOT
ATOM      1  N   UNL     1       5.018  -5.096   3.041  0.00  0.00    +0.000 N 
ATOM      2  H   UNL     1       4.295  -5.214   2.332  0.00  0.00    +0.000 HD
ENDROOT
BRANCH   1   3
ATOM      3  C   UNL     1       5.762  -6.265   3.207  0.00  0.00    +0.000 A 
ATOM      4  C   UNL     1       7.015  -6.326   3.816  0.00  0.00    +0.000 A 
ATOM      5  C   UNL     1       7.645  -7.554   4.043  0.00  0.00    +0.000 A 
ATOM      6  C   UNL     1       6.992  -8.715   3.658  0.00  0.00    +0.000 A 
ATOM      7  N   UNL     1       5.765  -8.727   3.077  0.00  0.00    +0.000 NA
ATOM      8  C   UNL     1       5.190  -7.509   2.892  0.00  0.00    +0.000 A 
BRANCH   6   9
ATOM      9  C   UNL     1       7.643 -10.045   3.899  0.00  0.00    +0.000 C 
ATOM     10  N   UNL     1       6.923 -11.136   3.490  0.00  0.00    +0.000 N 
ATOM     11  O   UNL     1       8.741 -10.158   4.426  0.00  0.00    +0.000 OA
ATOM     12  H   UNL     1       6.010 -11.004   3.070  0.00  0.00    +0.000 HD
ATOM     13  H   UNL     1       7.293 -12.062   3.639  0.00  0.00    +0.000 HD
ENDBRANCH   6   9
ENDBRANCH   1   3
BRANCH   1  14
ATOM     14  C   UNL     1       5.631  -3.762   2.953  0.00  0.00    +0.000 C 
ATOM     15  C   UNL     1       5.855  -3.148   4.339  0.00  0.00    +0.000 C 
BRANCH  14  19
ATOM     16  C   UNL     1       2.972  -1.219   0.617  0.00  0.00    +0.000 A 
ATOM     17  C   UNL     1       4.256  -1.510   0.158  0.00  0.00    +0.000 A 
ATOM     18  C   UNL     1       5.111  -2.326   0.913  0.00  0.00    +0.000 A 
ATOM     19  C   UNL     1       4.697  -2.863   2.141  0.00  0.00    +0.000 A 
ATOM     20  C   UNL     1       3.402  -2.561   2.593  0.00  0.00    +0.000 A 
ATOM     21  C   UNL     1       2.554  -1.747   1.839  0.00  0.00    +0.000 A 
BRANCH  16  23
ATOM     22  C   UNL     1       2.405   0.105  -1.277  0.00  0.00    +0.000 C 
ATOM     23  O   UNL     1       2.041  -0.445  -0.018  0.00  0.00    +0.000 OA
ENDBRANCH  16  23
ENDBRANCH  14  19
ENDBRANCH   1  14
TORSDOF 5
