REMARK  Name = 
REMARK  3 active torsions:
REMARK  status: ('A' for Active; 'I' for Inactive)
REMARK    1  A    between atoms: C_2  and  C_4
REMARK    2  A    between atoms: C_7  and  C_8
REMARK    3  A    between atoms: C_8  and  N_9
REMARK                            x       y       z     vdW  Elec       q    Type
REMARK                         _______ _______ _______ _____ _____    ______ ____
ROOT
ATOM      1  C   UNL     1       3.126  -0.408  -1.233  0.00  0.00    +0.000 A 
ATOM      2  C   UNL     1       2.749  -1.623  -1.815  0.00  0.00    +0.000 A 
ATOM      3  C   UNL     1       3.483  -2.142  -2.889  0.00  0.00    +0.000 A 
ATOM      4  C   UNL     1       4.593  -1.452  -3.399  0.00  0.00    +0.000 A 
ATOM      5  C   UNL     1       4.951  -0.226  -2.817  0.00  0.00    +0.000 A 
ATOM      6  C   UNL     1       4.221   0.294  -1.745  0.00  0.00    +0.000 A 
ENDROOT
BRANCH   1   8
ATOM      7  N   UNL     1       1.746  -0.691   0.753  0.00  0.00    +0.000 N 
ATOM      8  C   UNL     1       2.378   0.179  -0.091  0.00  0.00    +0.000 C 
ATOM      9  O   UNL     1       2.362   1.385   0.118  0.00  0.00    +0.000 OA
ATOM     10  H   UNL     1       1.336  -0.287   1.586  0.00  0.00    +0.000 HD
ATOM     11  H   UNL     1       1.947  -1.680   0.761  0.00  0.00    +0.000 HD
ENDBRANCH   1   8
BRANCH   4  12
ATOM     12  C   UNL     1       5.393  -2.007  -4.552  0.00  0.00    +0.000 C 
BRANCH  12  13
ATOM     13  N   UNL     1       4.900  -1.553  -5.848  0.00  0.00    +0.000 N 
ATOM     14  C   UNL     1       5.336  -0.413  -6.486  0.00  0.00    +0.000 A 
ATOM     15  C   UNL     1       4.765  -0.379  -7.739  0.00  0.00    +0.000 A 
ATOM     16  C   UNL     1       3.973  -1.542  -7.875  0.00  0.00    +0.000 A 
ATOM     17  N   UNL     1       3.253  -1.952  -8.948  0.00  0.00    +0.000 NA
ATOM     18  C   UNL     1       2.614  -3.128  -8.783  0.00  0.00    +0.000 A 
ATOM     19  C   UNL     1       2.637  -3.904  -7.633  0.00  0.00    +0.000 A 
ATOM     20  C   UNL     1       3.373  -3.473  -6.535  0.00  0.00    +0.000 A 
ATOM     21  C   UNL     1       4.059  -2.262  -6.683  0.00  0.00    +0.000 A 
ENDBRANCH  12  13
ENDBRANCH   4  12
TORSDOF 3
