REMARK  Name = 
REMARK  5 active torsions:
REMARK  status: ('A' for Active; 'I' for Inactive)
REMARK    1  A    between atoms: C_2  and  C_3
REMARK    2  A    between atoms: C_6  and  N_7
REMARK    3  A    between atoms: N_7  and  C_8
REMARK    4  A    between atoms: C_8  and  C_9
REMARK    5  A    between atoms: C_13  and  C_14
REMARK                            x       y       z     vdW  Elec       q    Type
REMARK                         _______ _______ _______ _____ _____    ______ ____
ROOT
ATOM      1  C   UNL     1       8.708  -0.892  -0.681  0.00  0.00    +0.000 C 
ATOM      2  C   UNL     1       7.890  -1.182   0.579  0.00  0.00    +0.000 C 
ATOM      3  C   UNL     1       7.251  -0.480  -0.568  0.00  0.00    +0.000 C 
ENDROOT
BRANCH   1   4
ATOM      4  C   UNL     1       9.735   0.235  -0.575  0.00  0.00    +0.000 A 
ATOM      5  C   UNL     1       9.782   1.271  -1.514  0.00  0.00    +0.000 A 
ATOM      6  C   UNL     1      10.583   2.392  -1.302  0.00  0.00    +0.000 A 
ATOM      7  C   UNL     1      11.391   2.476  -0.164  0.00  0.00    +0.000 A 
ATOM      8  C   UNL     1      11.451   1.427   0.765  0.00  0.00    +0.000 A 
ATOM      9  C   UNL     1      10.610   0.321   0.528  0.00  0.00    +0.000 A 
BRANCH   8  10
ATOM     10  C   UNL     1      12.343   1.460   1.950  0.00  0.00    +0.000 A 
ATOM     11  C   UNL     1      12.969   0.282   2.407  0.00  0.00    +0.000 A 
ATOM     12  C   UNL     1      13.801   0.276   3.531  0.00  0.00    +0.000 A 
ATOM     13  C   UNL     1      14.046   1.457   4.223  0.00  0.00    +0.000 A 
ATOM     14  C   UNL     1      13.453   2.639   3.790  0.00  0.00    +0.000 A 
ATOM     15  C   UNL     1      12.611   2.634   2.675  0.00  0.00    +0.000 A 
ATOM     16  F   UNL     1      12.048   3.800   2.323  0.00  0.00    +0.000 F 
ENDBRANCH   8  10
ENDBRANCH   1   4
BRANCH   1  17
ATOM     17  N   UNL     1       9.197  -2.079  -1.378  0.00  0.00    +0.000 N 
ATOM     18  H   UNL     1      10.068  -2.502  -1.071  0.00  0.00    +0.000 HD
BRANCH  17  22
ATOM     19  C   UNL     1       8.285  -3.732  -5.027  0.00  0.00    +0.000 A 
ATOM     20  C   UNL     1       9.379  -4.123  -4.276  0.00  0.00    +0.000 A 
ATOM     21  N   UNL     1       9.691  -3.550  -3.085  0.00  0.00    +0.000 NA
ATOM     22  C   UNL     1       8.883  -2.556  -2.644  0.00  0.00    +0.000 A 
ATOM     23  C   UNL     1       7.805  -2.155  -3.428  0.00  0.00    +0.000 A 
ATOM     24  N   UNL     1       7.475  -2.726  -4.623  0.00  0.00    +0.000 NA
BRANCH  19  26
ATOM     25  N   UNL     1       7.727  -4.986  -7.229  0.00  0.00    +0.000 NA
ATOM     26  C   UNL     1       7.958  -4.403  -6.252  0.00  0.00    +0.000 C 
ENDBRANCH  19  26
ENDBRANCH  17  22
ENDBRANCH   1  17
TORSDOF 5
