REMARK  Name = 
REMARK  3 active torsions:
REMARK  status: ('A' for Active; 'I' for Inactive)
REMARK    1  A    between atoms: C_2  and  C_4
REMARK    2  A    between atoms: N_8  and  C_9
REMARK    3  A    between atoms: C_9  and  C_10
REMARK                            x       y       z     vdW  Elec       q    Type
REMARK                         _______ _______ _______ _____ _____    ______ ____
ROOT
ATOM      1  C   UNL     1       3.294   4.205   0.123  0.00  0.00    +0.000 A 
ATOM      2  C   UNL     1       4.416   3.391   0.003  0.00  0.00    +0.000 A 
ATOM      3  C   UNL     1       5.066   2.961   1.161  0.00  0.00    +0.000 A 
ATOM      4  C   UNL     1       4.600   3.358   2.416  0.00  0.00    +0.000 A 
ATOM      5  N   UNL     1       5.232   2.833   3.554  0.00  0.00    +0.000 N 
ATOM      6  N   UNL     1       3.528   4.171   2.534  0.00  0.00    +0.000 NA
ATOM      7  C   UNL     1       2.906   4.582   1.399  0.00  0.00    +0.000 A 
ATOM      8  H   UNL     1       6.143   2.433   3.379  0.00  0.00    +0.000 HD
ENDROOT
BRANCH   1  10
ATOM      9  N   UNL     1       2.583   3.942  -2.189  0.00  0.00    +0.000 N 
ATOM     10  C   UNL     1       2.512   4.682  -1.039  0.00  0.00    +0.000 C 
ATOM     11  O   UNL     1       1.807   5.677  -0.969  0.00  0.00    +0.000 OA
ATOM     12  H   UNL     1       1.964   4.223  -2.938  0.00  0.00    +0.000 HD
ATOM     13  H   UNL     1       2.943   2.999  -2.212  0.00  0.00    +0.000 HD
ENDBRANCH   1  10
BRANCH   5  14
ATOM     14  C   UNL     1       4.863   3.194   4.933  0.00  0.00    +0.000 C 
ATOM     15  C   UNL     1       4.517   1.994   5.806  0.00  0.00    +0.000 C 
ATOM     16  C   UNL     1       3.442   2.952   5.408  0.00  0.00    +0.000 C 
BRANCH  14  17
ATOM     17  C   UNL     1       5.646   4.329   5.629  0.00  0.00    +0.000 C 
ATOM     18  C   UNL     1       5.372   5.731   5.068  0.00  0.00    +0.000 C 
ATOM     19  C   UNL     1       6.241   6.110   3.868  0.00  0.00    +0.000 C 
ATOM     20  N   UNL     1       7.669   5.850   4.079  0.00  0.00    +0.000 NA
ATOM     21  C   UNL     1       7.902   4.455   4.441  0.00  0.00    +0.000 C 
ATOM     22  C   UNL     1       7.156   4.070   5.715  0.00  0.00    +0.000 C 
ATOM     23  H   UNL     1       8.006   6.452   4.830  0.00  0.00    +0.000 HD
ENDBRANCH  14  17
ENDBRANCH   5  14
TORSDOF 3
