REMARK  Name = 
REMARK  6 active torsions:
REMARK  status: ('A' for Active; 'I' for Inactive)
REMARK    1  A    between atoms: C_2  and  C_25
REMARK    2  A    between atoms: N_3  and  C_4
REMARK    3  A    between atoms: C_4  and  C_5
REMARK    4  A    between atoms: C_8  and  C_9
REMARK    5  A    between atoms: C_9  and  N_10
REMARK    6  A    between atoms: C_11  and  C_13
REMARK                            x       y       z     vdW  Elec       q    Type
REMARK                         _______ _______ _______ _____ _____    ______ ____
ROOT
ATOM      1  C   UNL     1       3.237   3.431  -0.898  0.00  0.00    +0.000 A 
ATOM      2  C   UNL     1       2.742   4.742  -0.879  0.00  0.00    +0.000 A 
ATOM      3  C   UNL     1       3.597   5.835  -1.073  0.00  0.00    +0.000 A 
ATOM      4  C   UNL     1       4.964   5.640  -1.308  0.00  0.00    +0.000 A 
ATOM      5  C   UNL     1       5.461   4.329  -1.315  0.00  0.00    +0.000 A 
ATOM      6  C   UNL     1       4.606   3.237  -1.126  0.00  0.00    +0.000 A 
ENDROOT
BRANCH   1   7
ATOM      7  C   UNL     1       2.317   2.261  -0.661  0.00  0.00    +0.000 C 
BRANCH   7  10
ATOM      8  O   UNL     1       0.434   0.145  -0.824  0.00  0.00    +0.000 OA
ATOM      9  C   UNL     1       0.828   0.711  -1.833  0.00  0.00    +0.000 C 
ATOM     10  N   UNL     1       1.718   1.761  -1.870  0.00  0.00    +0.000 N 
ATOM     11  H   UNL     1       1.977   2.132  -2.780  0.00  0.00    +0.000 HD
BRANCH   9  12
ATOM     12  C   UNL     1       0.342   0.259  -3.184  0.00  0.00    +0.000 C 
ATOM     13  C   UNL     1      -0.622  -0.841  -3.358  0.00  0.00    +0.000 C 
ATOM     14  C   UNL     1      -0.786  -0.908  -4.776  0.00  0.00    +0.000 C 
ATOM     15  C   UNL     1       0.002   0.056  -5.275  0.00  0.00    +0.000 C 
ATOM     16  N   UNL     1       0.709   0.786  -4.330  0.00  0.00    +0.000 NA
ENDBRANCH   9  12
ENDBRANCH   7  10
ENDBRANCH   1   7
BRANCH   4  17
ATOM     17  C   UNL     1       5.894   6.807  -1.536  0.00  0.00    +0.000 C 
BRANCH  17  18
ATOM     18  N   UNL     1       6.465   7.287  -0.302  0.00  0.00    +0.000 N 
ATOM     19  C   UNL     1       7.301   8.379  -0.280  0.00  0.00    +0.000 C 
ATOM     20  O   UNL     1       7.562   9.021  -1.291  0.00  0.00    +0.000 OA
ATOM     21  H   UNL     1       6.464   6.645   0.484  0.00  0.00    +0.000 HD
BRANCH  19  22
ATOM     22  C   UNL     1       7.823   8.772   1.038  0.00  0.00    +0.000 A 
ATOM     23  C   UNL     1       8.227  10.082   1.258  0.00  0.00    +0.000 A 
ATOM     24  S   UNL     1       8.757  10.376   2.854  0.00  0.00    +0.000 S 
ATOM     25  C   UNL     1       8.524   8.748   3.289  0.00  0.00    +0.000 A 
ATOM     26  N   UNL     1       8.825   8.308   4.541  0.00  0.00    +0.000 NA
ATOM     27  C   UNL     1       8.632   7.044   4.722  0.00  0.00    +0.000 A 
ATOM     28  N   UNL     1       8.157   6.182   3.769  0.00  0.00    +0.000 N 
ATOM     29  C   UNL     1       7.805   6.589   2.504  0.00  0.00    +0.000 A 
ATOM     30  O   UNL     1       7.329   5.801   1.693  0.00  0.00    +0.000 OA
ATOM     31  C   UNL     1       8.023   7.998   2.239  0.00  0.00    +0.000 A 
ATOM     32  H   UNL     1       8.013   5.205   3.978  0.00  0.00    +0.000 HD
ENDBRANCH  19  22
ENDBRANCH  17  18
ENDBRANCH   4  17
TORSDOF 6
