REMARK  Name = 
REMARK  8 active torsions:
REMARK  status: ('A' for Active; 'I' for Inactive)
REMARK    1  A    between atoms: N_1  and  C_2
REMARK    2  A    between atoms: C_2  and  C_3
REMARK    3  A    between atoms: C_3  and  N_4
REMARK    4  A    between atoms: C_3  and  C_17
REMARK    5  A    between atoms: C_5  and  C_7
REMARK    6  A    between atoms: C_20  and  O_21
REMARK    7  A    between atoms: O_21  and  C_22
REMARK    8  A    between atoms: C_22  and  C_23
REMARK                            x       y       z     vdW  Elec       q    Type
REMARK                         _______ _______ _______ _____ _____    ______ ____
ROOT
ATOM      1  C   UNL     1       2.886   0.200  -1.274  0.00  0.00    +0.000 C 
ENDROOT
BRANCH   1   2
ATOM      2  C   UNL     1       4.408   0.305  -1.346  0.00  0.00    +0.000 A 
ATOM      3  C   UNL     1       5.174  -0.611  -2.080  0.00  0.00    +0.000 A 
ATOM      4  C   UNL     1       6.565  -0.465  -2.157  0.00  0.00    +0.000 A 
ATOM      5  C   UNL     1       7.200   0.604  -1.516  0.00  0.00    +0.000 A 
ATOM      6  C   UNL     1       6.448   1.484  -0.741  0.00  0.00    +0.000 A 
ATOM      7  C   UNL     1       5.066   1.347  -0.673  0.00  0.00    +0.000 A 
BRANCH   5   8
ATOM      8  O   UNL     1       8.551   0.713  -1.715  0.00  0.00    +0.000 OA
BRANCH   8   9
ATOM      9  C   UNL     1       9.064   2.041  -1.527  0.00  0.00    +0.000 C 
BRANCH   9  10
ATOM     10  C   UNL     1      10.380   2.242  -2.240  0.00  0.00    +0.000 A 
ATOM     11  C   UNL     1      11.315   1.216  -2.331  0.00  0.00    +0.000 A 
ATOM     12  C   UNL     1      12.519   1.464  -2.983  0.00  0.00    +0.000 A 
ATOM     13  C   UNL     1      12.764   2.726  -3.511  0.00  0.00    +0.000 A 
ATOM     14  C   UNL     1      11.791   3.699  -3.358  0.00  0.00    +0.000 A 
ATOM     15  N   UNL     1      10.614   3.487  -2.733  0.00  0.00    +0.000 NA
ENDBRANCH   9  10
ENDBRANCH   8   9
ENDBRANCH   5   8
ENDBRANCH   1   2
BRANCH   1  16
ATOM     16  N   UNL     1       2.337   1.421  -1.851  0.00  0.00    +0.000 N 
ATOM     17  C   UNL     1       0.999   1.675  -1.994  0.00  0.00    +0.000 C 
ATOM     18  O   UNL     1       0.128   0.930  -1.559  0.00  0.00    +0.000 OA
ATOM     19  H   UNL     1       2.976   1.931  -2.454  0.00  0.00    +0.000 HD
BRANCH  17  20
ATOM     20  C   UNL     1       0.660   2.943  -2.649  0.00  0.00    +0.000 A 
ATOM     21  C   UNL     1      -0.531   3.587  -2.346  0.00  0.00    +0.000 A 
ATOM     22  S   UNL     1      -0.751   5.048  -3.200  0.00  0.00    +0.000 S 
ATOM     23  C   UNL     1       0.717   4.846  -4.036  0.00  0.00    +0.000 A 
ATOM     24  N   UNL     1       1.120   5.743  -4.977  0.00  0.00    +0.000 NA
ATOM     25  C   UNL     1       2.238   5.444  -5.553  0.00  0.00    +0.000 A 
ATOM     26  N   UNL     1       2.999   4.341  -5.265  0.00  0.00    +0.000 N 
ATOM     27  C   UNL     1       2.653   3.435  -4.291  0.00  0.00    +0.000 A 
ATOM     28  O   UNL     1       3.392   2.504  -3.998  0.00  0.00    +0.000 OA
ATOM     29  C   UNL     1       1.384   3.702  -3.641  0.00  0.00    +0.000 A 
ATOM     30  H   UNL     1       3.878   4.178  -5.730  0.00  0.00    +0.000 HD
ENDBRANCH  17  20
ENDBRANCH   1  16
BRANCH   1  31
ATOM     31  C   UNL     1       2.430  -0.029   0.199  0.00  0.00    +0.000 C 
BRANCH  31  32
ATOM     32  N   UNL     1       2.997  -1.231   0.830  0.00  0.00    +0.000 NA
ATOM     33  H   UNL     1       2.881  -1.153   1.839  0.00  0.00    +0.000 HD
ATOM     34  H   UNL     1       4.004  -1.260   0.664  0.00  0.00    +0.000 HD
ENDBRANCH  31  32
ENDBRANCH   1  31
TORSDOF 8
