REMARK  Name = 
REMARK  8 active torsions:
REMARK  status: ('A' for Active; 'I' for Inactive)
REMARK    1  A    between atoms: C_1  and  O_2
REMARK    2  A    between atoms: O_2  and  C_3
REMARK    3  A    between atoms: C_10  and  C_11
REMARK    4  A    between atoms: N_13  and  C_14
REMARK    5  A    between atoms: C_14  and  C_15
REMARK    6  A    between atoms: C_18  and  N_19
REMARK    7  A    between atoms: N_19  and  C_20
REMARK    8  A    between atoms: C_20  and  C_21
REMARK                            x       y       z     vdW  Elec       q    Type
REMARK                         _______ _______ _______ _____ _____    ______ ____
ROOT
ATOM      1  C   UNL     1       2.714   1.913   2.788  0.00  0.00    +0.000 C 
ENDROOT
BRANCH   1   2
ATOM      2  C   UNL     1       1.591   2.648   2.109  0.00  0.00    +0.000 A 
ATOM      3  C   UNL     1       0.423   1.975   1.738  0.00  0.00    +0.000 A 
ATOM      4  C   UNL     1      -0.609   2.646   1.067  0.00  0.00    +0.000 A 
ATOM      5  C   UNL     1      -0.493   3.994   0.717  0.00  0.00    +0.000 A 
ATOM      6  C   UNL     1       0.676   4.662   1.109  0.00  0.00    +0.000 A 
ATOM      7  C   UNL     1       1.710   4.002   1.787  0.00  0.00    +0.000 A 
BRANCH   5   8
ATOM      8  N   UNL     1      -1.511   4.741   0.128  0.00  0.00    +0.000 N 
ATOM      9  H   UNL     1      -1.150   5.447  -0.512  0.00  0.00    +0.000 HD
BRANCH   8  10
ATOM     10  C   UNL     1      -2.776   4.149  -0.293  0.00  0.00    +0.000 C 
BRANCH  10  11
ATOM     11  C   UNL     1      -3.841   5.253  -0.453  0.00  0.00    +0.000 C 
ATOM     12  C   UNL     1      -4.155   5.967   0.876  0.00  0.00    +0.000 C 
ATOM     13  C   UNL     1      -5.012   5.121   1.818  0.00  0.00    +0.000 C 
ATOM     14  N   UNL     1      -6.246   4.668   1.173  0.00  0.00    +0.000 NA
ATOM     15  C   UNL     1      -5.963   3.891  -0.032  0.00  0.00    +0.000 C 
ATOM     16  C   UNL     1      -5.143   4.689  -1.048  0.00  0.00    +0.000 C 
ATOM     17  H   UNL     1      -6.807   5.483   0.923  0.00  0.00    +0.000 HD
ENDBRANCH  10  11
ENDBRANCH   8  10
ENDBRANCH   5   8
ENDBRANCH   1   2
BRANCH   1  20
ATOM     18  C   UNL     1       4.683   0.577   2.188  0.00  0.00    +0.000 C 
ATOM     19  O   UNL     1       4.928   0.363   3.372  0.00  0.00    +0.000 OA
ATOM     20  N   UNL     1       3.612   1.339   1.815  0.00  0.00    +0.000 N 
ATOM     21  H   UNL     1       3.427   1.522   0.837  0.00  0.00    +0.000 HD
BRANCH  18  29
ATOM     22  C   UNL     1       4.555   0.672  -1.267  0.00  0.00    +0.000 A 
ATOM     23  N   UNL     1       4.737   0.514  -2.595  0.00  0.00    +0.000 NA
ATOM     24  C   UNL     1       5.780  -0.210  -3.009  0.00  0.00    +0.000 A 
ATOM     25  N   UNL     1       6.688  -0.811  -2.247  0.00  0.00    +0.000 NA
ATOM     26  C   UNL     1       6.469  -0.637  -0.933  0.00  0.00    +0.000 A 
ATOM     27  S   UNL     1       7.537  -1.337   0.185  0.00  0.00    +0.000 S 
ATOM     28  C   UNL     1       6.645  -0.722   1.492  0.00  0.00    +0.000 A 
ATOM     29  C   UNL     1       5.531   0.019   1.119  0.00  0.00    +0.000 A 
ATOM     30  C   UNL     1       5.432   0.079  -0.339  0.00  0.00    +0.000 A 
BRANCH  22  32
ATOM     31  C   UNL     1       2.715   1.986  -1.906  0.00  0.00    +0.000 C 
ATOM     32  O   UNL     1       3.494   1.445  -0.839  0.00  0.00    +0.000 OA
ENDBRANCH  22  32
ENDBRANCH  18  29
ENDBRANCH   1  20
TORSDOF 7
