REMARK  Name = 
REMARK  8 active torsions:
REMARK  status: ('A' for Active; 'I' for Inactive)
REMARK    1  A    between atoms: C_1  and  C_2
REMARK    2  A    between atoms: C_2  and  N_3
REMARK    3  A    between atoms: C_2  and  C_25
REMARK    4  A    between atoms: N_3  and  C_4
REMARK    5  A    between atoms: C_4  and  C_5
REMARK    6  A    between atoms: C_8  and  C_9
REMARK    7  A    between atoms: C_9  and  N_10
REMARK    8  A    between atoms: C_11  and  C_13
REMARK                            x       y       z     vdW  Elec       q    Type
REMARK                         _______ _______ _______ _____ _____    ______ ____
ROOT
ATOM      1  C   UNL     1      -0.958  -1.101  -0.721  0.00  0.00    +0.000 A 
ATOM      2  C   UNL     1      -1.599  -2.091  -1.479  0.00  0.00    +0.000 A 
ATOM      3  C   UNL     1      -2.967  -2.336  -1.327  0.00  0.00    +0.000 A 
ATOM      4  C   UNL     1      -3.724  -1.591  -0.415  0.00  0.00    +0.000 A 
ATOM      5  C   UNL     1      -3.079  -0.629   0.372  0.00  0.00    +0.000 A 
ATOM      6  C   UNL     1      -1.711  -0.383   0.217  0.00  0.00    +0.000 A 
ENDROOT
BRANCH   1   7
ATOM      7  C   UNL     1       0.535  -0.887  -0.832  0.00  0.00    +0.000 C 
BRANCH   7   8
ATOM      8  N   UNL     1       0.968  -0.672  -2.219  0.00  0.00    +0.000 NA
ATOM      9  H   UNL     1       0.535   0.198  -2.536  0.00  0.00    +0.000 HD
BRANCH   8  11
ATOM     10  C   UNL     1       3.179  -1.824  -1.960  0.00  0.00    +0.000 C 
ATOM     11  C   UNL     1       2.439  -0.531  -2.331  0.00  0.00    +0.000 C 
BRANCH  11  12
ATOM     12  C   UNL     1       2.895  -0.095  -3.720  0.00  0.00    +0.000 A 
ATOM     13  C   UNL     1       2.248  -0.515  -4.881  0.00  0.00    +0.000 A 
ATOM     14  N   UNL     1       2.636  -0.137  -6.125  0.00  0.00    +0.000 NA
ATOM     15  C   UNL     1       3.718   0.670  -6.173  0.00  0.00    +0.000 A 
ATOM     16  C   UNL     1       4.389   1.072  -5.033  0.00  0.00    +0.000 A 
ATOM     17  N   UNL     1       3.996   0.706  -3.791  0.00  0.00    +0.000 NA
ENDBRANCH  11  12
ENDBRANCH   8  11
ENDBRANCH   7   8
ENDBRANCH   1   7
BRANCH   4  18
ATOM     18  C   UNL     1      -5.201  -1.839  -0.256  0.00  0.00    +0.000 C 
BRANCH  18  19
ATOM     19  N   UNL     1      -5.467  -2.845   0.740  0.00  0.00    +0.000 N 
ATOM     20  C   UNL     1      -6.747  -3.282   0.970  0.00  0.00    +0.000 C 
ATOM     21  O   UNL     1      -7.700  -2.878   0.306  0.00  0.00    +0.000 OA
ATOM     22  H   UNL     1      -4.742  -3.023   1.428  0.00  0.00    +0.000 HD
BRANCH  20  23
ATOM     23  C   UNL     1      -6.920  -4.305   2.008  0.00  0.00    +0.000 A 
ATOM     24  C   UNL     1      -8.044  -5.121   1.984  0.00  0.00    +0.000 A 
ATOM     25  S   UNL     1      -8.073  -6.284   3.230  0.00  0.00    +0.000 S 
ATOM     26  C   UNL     1      -6.609  -5.706   3.877  0.00  0.00    +0.000 A 
ATOM     27  N   UNL     1      -6.072  -6.264   4.995  0.00  0.00    +0.000 NA
ATOM     28  C   UNL     1      -4.976  -5.710   5.393  0.00  0.00    +0.000 A 
ATOM     29  N   UNL     1      -4.367  -4.650   4.773  0.00  0.00    +0.000 N 
ATOM     30  C   UNL     1      -4.859  -4.070   3.628  0.00  0.00    +0.000 A 
ATOM     31  O   UNL     1      -4.270  -3.146   3.078  0.00  0.00    +0.000 OA
ATOM     32  C   UNL     1      -6.097  -4.651   3.142  0.00  0.00    +0.000 A 
ATOM     33  H   UNL     1      -3.506  -4.266   5.133  0.00  0.00    +0.000 HD
ENDBRANCH  20  23
ENDBRANCH  18  19
ENDBRANCH   4  18
TORSDOF 7
