REMARK  Name = 
REMARK  7 active torsions:
REMARK  status: ('A' for Active; 'I' for Inactive)
REMARK    1  A    between atoms: N_1  and  C_2
REMARK    2  A    between atoms: C_2  and  C_3
REMARK    3  A    between atoms: C_6  and  C_7
REMARK    4  A    between atoms: C_7  and  N_8
REMARK    5  A    between atoms: N_8  and  C_9
REMARK    6  A    between atoms: CA_12  and  C_13
REMARK    7  A    between atoms: C_13  and  OXT_15
REMARK                            x       y       z     vdW  Elec       q    Type
REMARK                         _______ _______ _______ _____ _____    ______ ____
ROOT
ATOM      1  N   UNL     1       4.360   0.107   6.218  0.00  0.00    +0.000 N 
ATOM      2  H   UNL     1       3.697   0.865   6.068  0.00  0.00    +0.000 HD
ENDROOT
BRANCH   1   3
ATOM      3  C   UNL     1       4.769  -0.014   7.551  0.00  0.00    +0.000 A 
ATOM      4  C   UNL     1       5.381  -1.162   8.067  0.00  0.00    +0.000 A 
ATOM      5  C   UNL     1       5.852  -1.194   9.381  0.00  0.00    +0.000 A 
ATOM      6  CA  UNL     1       5.715  -0.052  10.150  0.00  0.00    +0.000 A 
ATOM      7  N   UNL     1       5.159   1.109   9.702  0.00  0.00    +0.000 NA
ATOM      8  C   UNL     1       4.725   1.090   8.414  0.00  0.00    +0.000 A 
BRANCH   6   9
ATOM      9  C   UNL     1       6.208  -0.034  11.559  0.00  0.00    +0.000 C 
ATOM     10  O   UNL     1       6.744  -0.969  12.126  0.00  0.00    +0.000 OA
BRANCH   9  11
ATOM     11  OXT UNL     1       5.972   1.173  12.126  0.00  0.00    +0.000 OA
ATOM     12  HXT UNL     1       5.535   1.753  11.457  0.00  0.00    +0.000 HD
ENDBRANCH   9  11
ENDBRANCH   6   9
ENDBRANCH   1   3
BRANCH   1  13
ATOM     13  C   UNL     1       3.979  -1.097   5.483  0.00  0.00    +0.000 C 
BRANCH  13  17
ATOM     14  C   UNL     1       2.721  -0.182   1.431  0.00  0.00    +0.000 A 
ATOM     15  C   UNL     1       4.026   0.100   1.857  0.00  0.00    +0.000 A 
ATOM     16  C   UNL     1       4.427  -0.178   3.167  0.00  0.00    +0.000 A 
ATOM     17  C   UNL     1       3.529  -0.744   4.083  0.00  0.00    +0.000 A 
ATOM     18  C   UNL     1       2.222  -1.020   3.660  0.00  0.00    +0.000 A 
ATOM     19  C   UNL     1       1.823  -0.742   2.348  0.00  0.00    +0.000 A 
BRANCH  14  20
ATOM     20  C   UNL     1       2.285   0.133   0.021  0.00  0.00    +0.000 C 
BRANCH  20  21
ATOM     21  N   UNL     1       3.106  -0.556  -0.969  0.00  0.00    +0.000 NA
ATOM     22  H   UNL     1       2.703  -0.413  -1.893  0.00  0.00    +0.000 HD
ATOM     23  H   UNL     1       3.064  -1.559  -0.789  0.00  0.00    +0.000 HD
ENDBRANCH  20  21
ENDBRANCH  14  20
ENDBRANCH  13  17
ENDBRANCH   1  13
TORSDOF 7
