REMARK  Name = 
REMARK  5 active torsions:
REMARK  status: ('A' for Active; 'I' for Inactive)
REMARK    1  A    between atoms: C_2  and  C_4
REMARK    2  A    between atoms: C_7  and  O_8
REMARK    3  A    between atoms: O_8  and  C_9
REMARK    4  A    between atoms: C_9  and  C_10
REMARK    5  A    between atoms: C_14  and  C_15
REMARK                            x       y       z     vdW  Elec       q    Type
REMARK                         _______ _______ _______ _____ _____    ______ ____
ROOT
ATOM      1  C   UNL     1       5.163  -5.765  -0.968  0.00  0.00    +0.000 C 
ENDROOT
BRANCH   1   2
ATOM      2  C   UNL     1       6.123  -6.911  -0.733  0.00  0.00    +0.000 A 
ATOM      3  C   UNL     1       7.449  -6.645  -0.375  0.00  0.00    +0.000 A 
ATOM      4  C   UNL     1       8.326  -7.691  -0.101  0.00  0.00    +0.000 A 
ATOM      5  C   UNL     1       7.881  -9.014  -0.164  0.00  0.00    +0.000 A 
ATOM      6  C   UNL     1       6.547  -9.321  -0.484  0.00  0.00    +0.000 A 
ATOM      7  C   UNL     1       5.686  -8.246  -0.770  0.00  0.00    +0.000 A 
BRANCH   6   8
ATOM      8  C   UNL     1       6.047 -10.711  -0.479  0.00  0.00    +0.000 A 
ATOM      9  C   UNL     1       6.472 -11.646   0.475  0.00  0.00    +0.000 A 
ATOM     10  N   UNL     1       6.034 -12.929   0.564  0.00  0.00    +0.000 NA
ATOM     11  C   UNL     1       5.109 -13.310  -0.343  0.00  0.00    +0.000 A 
ATOM     12  C   UNL     1       4.619 -12.471  -1.326  0.00  0.00    +0.000 A 
ATOM     13  F   UNL     1       3.692 -12.901  -2.190  0.00  0.00    +0.000 F 
ATOM     14  C   UNL     1       5.094 -11.167  -1.402  0.00  0.00    +0.000 A 
ENDBRANCH   6   8
ENDBRANCH   1   2
BRANCH   1  15
ATOM     15  O   UNL     1       4.183  -6.127  -1.947  0.00  0.00    +0.000 OA
BRANCH  15  19
ATOM     16  C   UNL     1       1.395  -3.179  -2.639  0.00  0.00    +0.000 A 
ATOM     17  C   UNL     1       1.299  -4.395  -3.318  0.00  0.00    +0.000 A 
ATOM     18  C   UNL     1       2.252  -5.385  -3.073  0.00  0.00    +0.000 A 
ATOM     19  C   UNL     1       3.262  -5.123  -2.159  0.00  0.00    +0.000 A 
ATOM     20  N   UNL     1       3.381  -3.956  -1.492  0.00  0.00    +0.000 NA
ATOM     21  C   UNL     1       2.451  -3.005  -1.754  0.00  0.00    +0.000 A 
BRANCH  16  23
ATOM     22  N   UNL     1      -0.819  -2.370  -3.232  0.00  0.00    +0.000 N 
ATOM     23  C   UNL     1       0.450  -2.061  -2.830  0.00  0.00    +0.000 C 
ATOM     24  O   UNL     1       0.778  -0.904  -2.602  0.00  0.00    +0.000 OA
ATOM     25  H   UNL     1      -1.480  -1.603  -3.250  0.00  0.00    +0.000 HD
ATOM     26  H   UNL     1      -1.195  -3.307  -3.185  0.00  0.00    +0.000 HD
ENDBRANCH  16  23
ENDBRANCH  15  19
ENDBRANCH   1  15
TORSDOF 5
