REMARK  Name = 
REMARK  13 active torsions:
REMARK  status: ('A' for Active; 'I' for Inactive)
REMARK    1  A    between atoms: C_1  and  N_2
REMARK    2  A    between atoms: N_2  and  C_3
REMARK    3  A    between atoms: N_2  and  C_4
REMARK    4  A    between atoms: C_4  and  C_5
REMARK    5  A    between atoms: C_5  and  O_6
REMARK    6  A    between atoms: O_6  and  C_7
REMARK    7  A    between atoms: C_10  and  C_11
REMARK    8  A    between atoms: C_11  and  C_12
REMARK    9  A    between atoms: C_11  and  C_13
REMARK   10  A    between atoms: C_11  and  C_14
REMARK   11  A    between atoms: C_14  and  N_15
REMARK   12  A    between atoms: N_15  and  C_16
REMARK   13  A    between atoms: C_19  and  C_20
REMARK                            x       y       z     vdW  Elec       q    Type
REMARK                         _______ _______ _______ _____ _____    ______ ____
ROOT
ATOM      1  C   UNL     1      10.459  -2.736   2.860  0.00  0.00    +0.000 C 
ATOM      2  C   UNL     1      10.697  -3.501   4.183  0.00  0.00    +0.000 C 
ATOM      3  C   UNL     1      11.037  -3.578   1.697  0.00  0.00    +0.000 C 
ENDROOT
BRANCH   1   7
ATOM      4  C   UNL     1       6.172  -2.236   2.094  0.00  0.00    +0.000 A 
ATOM      5  C   UNL     1       7.008  -1.127   2.179  0.00  0.00    +0.000 A 
ATOM      6  C   UNL     1       8.374  -1.283   2.418  0.00  0.00    +0.000 A 
ATOM      7  C   UNL     1       8.948  -2.547   2.612  0.00  0.00    +0.000 A 
ATOM      8  C   UNL     1       8.085  -3.658   2.536  0.00  0.00    +0.000 A 
ATOM      9  C   UNL     1       6.718  -3.504   2.272  0.00  0.00    +0.000 A 
BRANCH   4  10
ATOM     10  O   UNL     1       4.827  -2.195   1.832  0.00  0.00    +0.000 OA
BRANCH  10  11
ATOM     11  C   UNL     1       4.274  -0.878   1.734  0.00  0.00    +0.000 C 
BRANCH  11  12
ATOM     12  C   UNL     1       2.764  -0.963   1.490  0.00  0.00    +0.000 C 
BRANCH  12  14
ATOM     13  C   UNL     1       0.690   0.170   1.049  0.00  0.00    +0.000 C 
ATOM     14  N   UNL     1       2.113   0.355   1.338  0.00  0.00    +0.000 NA
ATOM     15  C   UNL     1       2.270   1.198   2.526  0.00  0.00    +0.000 C 
ENDBRANCH  12  14
ENDBRANCH  11  12
ENDBRANCH  10  11
ENDBRANCH   4  10
ENDBRANCH   1   7
BRANCH   1  16
ATOM     16  C   UNL     1      11.279  -1.400   2.900  0.00  0.00    +0.000 C 
BRANCH  16  17
ATOM     17  N   UNL     1      10.936  -0.573   4.059  0.00  0.00    +0.000 N 
ATOM     18  H   UNL     1      10.005  -0.732   4.437  0.00  0.00    +0.000 HD
BRANCH  17  19
ATOM     19  C   UNL     1      11.369   0.743   4.180  0.00  0.00    +0.000 A 
ATOM     20  C   UNL     1      12.375   1.305   3.389  0.00  0.00    +0.000 A 
ATOM     21  C   UNL     1      12.870   2.588   3.650  0.00  0.00    +0.000 A 
ATOM     22  C   UNL     1      12.373   3.333   4.723  0.00  0.00    +0.000 A 
ATOM     23  C   UNL     1      11.371   2.787   5.527  0.00  0.00    +0.000 A 
ATOM     24  C   UNL     1      10.882   1.503   5.254  0.00  0.00    +0.000 A 
BRANCH  22  25
ATOM     25  C   UNL     1      12.982   4.659   5.006  0.00  0.00    +0.000 C 
ATOM     26  N   UNL     1      12.235   5.563   5.706  0.00  0.00    +0.000 N 
ATOM     27  O   UNL     1      14.104   4.950   4.605  0.00  0.00    +0.000 OA
ATOM     28  H   UNL     1      11.241   5.455   5.855  0.00  0.00    +0.000 HD
ATOM     29  H   UNL     1      12.634   6.487   5.811  0.00  0.00    +0.000 HD
ENDBRANCH  22  25
ENDBRANCH  17  19
ENDBRANCH  16  17
ENDBRANCH   1  16
TORSDOF 9
