REMARK  Name = 
REMARK  8 active torsions:
REMARK  status: ('A' for Active; 'I' for Inactive)
REMARK    1  A    between atoms: C_1  and  C_2
REMARK    2  A    between atoms: C_2  and  O_3
REMARK    3  A    between atoms: O_3  and  C_4
REMARK    4  A    between atoms: C_8  and  C_9
REMARK    5  A    between atoms: C_9  and  C_10
REMARK    6  A    between atoms: C_10  and  N_11
REMARK    7  A    between atoms: N_11  and  C_12
REMARK    8  A    between atoms: C_15  and  C_16
REMARK                            x       y       z     vdW  Elec       q    Type
REMARK                         _______ _______ _______ _____ _____    ______ ____
ROOT
ATOM      1  C   UNL     1       6.814   2.886  -4.068  0.00  0.00    +0.000 C 
ENDROOT
BRANCH   1   2
ATOM      2  N   UNL     1       7.135   3.795  -5.179  0.00  0.00    +0.000 N 
ATOM      3  H   UNL     1       6.323   3.994  -5.761  0.00  0.00    +0.000 HD
BRANCH   2   4
ATOM      4  C   UNL     1       7.848   4.966  -4.883  0.00  0.00    +0.000 A 
ATOM      5  C   UNL     1       8.777   5.048  -3.841  0.00  0.00    +0.000 A 
ATOM      6  C   UNL     1       9.511   6.216  -3.610  0.00  0.00    +0.000 A 
ATOM      7  C   UNL     1       9.363   7.326  -4.446  0.00  0.00    +0.000 A 
ATOM      8  C   UNL     1       8.468   7.250  -5.520  0.00  0.00    +0.000 A 
ATOM      9  C   UNL     1       7.734   6.074  -5.740  0.00  0.00    +0.000 A 
BRANCH   7  10
ATOM     10  C   UNL     1      10.169   8.534  -4.149  0.00  0.00    +0.000 C 
ATOM     11  N   UNL     1      10.438   9.387  -5.182  0.00  0.00    +0.000 N 
ATOM     12  O   UNL     1      10.620   8.747  -3.030  0.00  0.00    +0.000 OA
ATOM     13  H   UNL     1      10.312   9.124  -6.148  0.00  0.00    +0.000 HD
ATOM     14  H   UNL     1      11.097  10.127  -4.978  0.00  0.00    +0.000 HD
ENDBRANCH   7  10
ENDBRANCH   2   4
ENDBRANCH   1   2
BRANCH   1  15
ATOM     15  C   UNL     1       6.030   1.671  -4.580  0.00  0.00    +0.000 C 
BRANCH  15  20
ATOM     16  C   UNL     1       4.083  -0.191  -1.862  0.00  0.00    +0.000 A 
ATOM     17  C   UNL     1       4.973  -1.216  -1.552  0.00  0.00    +0.000 A 
ATOM     18  C   UNL     1       6.222  -1.269  -2.170  0.00  0.00    +0.000 A 
ATOM     19  C   UNL     1       6.576  -0.317  -3.126  0.00  0.00    +0.000 A 
ATOM     20  C   UNL     1       5.676   0.692  -3.486  0.00  0.00    +0.000 A 
ATOM     21  C   UNL     1       4.437   0.759  -2.828  0.00  0.00    +0.000 A 
BRANCH  16  22
ATOM     22  O   UNL     1       2.836  -0.026  -1.306  0.00  0.00    +0.000 OA
BRANCH  22  24
ATOM     23  C   UNL     1       1.891  -2.162  -0.551  0.00  0.00    +0.000 C 
ATOM     24  C   UNL     1       2.427  -0.793  -0.139  0.00  0.00    +0.000 C 
ATOM     25  C   UNL     1       3.302  -0.727   1.137  0.00  0.00    +0.000 C 
ATOM     26  O   UNL     1       2.392   0.194   1.779  0.00  0.00    +0.000 OA
ATOM     27  C   UNL     1       1.401  -0.049   0.754  0.00  0.00    +0.000 C 
ENDBRANCH  22  24
ENDBRANCH  16  22
ENDBRANCH  15  20
ENDBRANCH   1  15
TORSDOF 7
