REMARK  Name = 
REMARK  5 active torsions:
REMARK  status: ('A' for Active; 'I' for Inactive)
REMARK    1  A    between atoms: C_2  and  C_4
REMARK    2  A    between atoms: N_8  and  C_9
REMARK    3  A    between atoms: C_9  and  C_10
REMARK    4  A    between atoms: C_10  and  C_11
REMARK    5  A    between atoms: C_15  and  C_16
REMARK                            x       y       z     vdW  Elec       q    Type
REMARK                         _______ _______ _______ _____ _____    ______ ____
ROOT
ATOM      1  C   UNL     1       4.909   4.672   3.887  0.00  0.00    +0.000 C 
ENDROOT
BRANCH   1   6
ATOM      2  C   UNL     1       2.870   1.434   0.562  0.00  0.00    +0.000 A 
ATOM      3  C   UNL     1       2.256   2.246   1.508  0.00  0.00    +0.000 A 
ATOM      4  C   UNL     1       3.017   3.196   2.189  0.00  0.00    +0.000 A 
ATOM      5  C   UNL     1       4.382   3.304   1.935  0.00  0.00    +0.000 A 
ATOM      6  N   UNL     1       5.180   4.283   2.511  0.00  0.00    +0.000 N 
ATOM      7  N   UNL     1       4.997   2.498   1.048  0.00  0.00    +0.000 NA
ATOM      8  C   UNL     1       4.240   1.583   0.385  0.00  0.00    +0.000 A 
ATOM      9  H   UNL     1       6.145   4.044   2.292  0.00  0.00    +0.000 HD
BRANCH   2  11
ATOM     10  N   UNL     1       0.798   0.691  -0.454  0.00  0.00    +0.000 N 
ATOM     11  C   UNL     1       2.127   0.446  -0.241  0.00  0.00    +0.000 C 
ATOM     12  O   UNL     1       2.681  -0.532  -0.729  0.00  0.00    +0.000 OA
ATOM     13  H   UNL     1       0.323   0.064  -1.093  0.00  0.00    +0.000 HD
ATOM     14  H   UNL     1       0.375   1.593  -0.288  0.00  0.00    +0.000 HD
ENDBRANCH   2  11
ENDBRANCH   1   6
BRANCH   1  15
ATOM     15  C   UNL     1       5.918   5.717   4.374  0.00  0.00    +0.000 C 
BRANCH  15  16
ATOM     16  C   UNL     1       5.560   6.174   5.769  0.00  0.00    +0.000 A 
ATOM     17  C   UNL     1       4.772   7.311   5.970  0.00  0.00    +0.000 A 
ATOM     18  C   UNL     1       4.389   7.675   7.258  0.00  0.00    +0.000 A 
ATOM     19  C   UNL     1       4.760   6.886   8.350  0.00  0.00    +0.000 A 
ATOM     20  C   UNL     1       5.501   5.703   8.182  0.00  0.00    +0.000 A 
ATOM     21  C   UNL     1       5.922   5.389   6.876  0.00  0.00    +0.000 A 
BRANCH  20  22
ATOM     22  C   UNL     1       5.729   4.757   9.301  0.00  0.00    +0.000 A 
ATOM     23  C   UNL     1       4.741   4.560  10.284  0.00  0.00    +0.000 A 
ATOM     24  C   UNL     1       4.876   3.583  11.274  0.00  0.00    +0.000 A 
ATOM     25  C   UNL     1       6.005   2.773  11.301  0.00  0.00    +0.000 A 
ATOM     26  C   UNL     1       7.011   2.961  10.358  0.00  0.00    +0.000 A 
ATOM     27  C   UNL     1       6.879   3.950   9.377  0.00  0.00    +0.000 A 
ENDBRANCH  20  22
ENDBRANCH  15  16
ENDBRANCH   1  15
TORSDOF 5
