REMARK  Name = 
REMARK  3 active torsions:
REMARK  status: ('A' for Active; 'I' for Inactive)
REMARK    1  A    between atoms: C_2  and  C_3
REMARK    2  A    between atoms: N_7  and  C_8
REMARK    3  A    between atoms: C_8  and  C_9
REMARK                            x       y       z     vdW  Elec       q    Type
REMARK                         _______ _______ _______ _____ _____    ______ ____
ROOT
ATOM      1  C   UNL     1      -0.858  -1.194  -3.262  0.00  0.00    +0.000 A 
ATOM      2  C   UNL     1      -2.101  -0.684  -3.612  0.00  0.00    +0.000 A 
ATOM      3  C   UNL     1      -2.933  -0.163  -2.614  0.00  0.00    +0.000 A 
ATOM      4  C   UNL     1      -2.498  -0.146  -1.292  0.00  0.00    +0.000 A 
ATOM      5  N   UNL     1      -3.243   0.350  -0.228  0.00  0.00    +0.000 N 
ATOM      6  N   UNL     1      -1.288  -0.638  -0.949  0.00  0.00    +0.000 NA
ATOM      7  C   UNL     1      -0.499  -1.148  -1.926  0.00  0.00    +0.000 A 
ATOM      8  H   UNL     1      -2.700   0.279   0.627  0.00  0.00    +0.000 HD
ENDROOT
BRANCH   5   9
ATOM      9  C   UNL     1      -4.459   1.164  -0.276  0.00  0.00    +0.000 C 
ATOM     10  C   UNL     1      -4.556   2.342  -1.231  0.00  0.00    +0.000 C 
ATOM     11  C   UNL     1      -4.366   2.611   0.220  0.00  0.00    +0.000 C 
BRANCH   9  12
ATOM     12  C   UNL     1      -5.705   0.468   0.245  0.00  0.00    +0.000 A 
ATOM     13  C   UNL     1      -5.883   0.175   1.592  0.00  0.00    +0.000 A 
ATOM     14  N   UNL     1      -7.031  -0.267   2.149  0.00  0.00    +0.000 NA
ATOM     15  C   UNL     1      -8.050  -0.442   1.299  0.00  0.00    +0.000 A 
ATOM     16  N   UNL     1      -8.001  -0.267  -0.029  0.00  0.00    +0.000 NA
ATOM     17  C   UNL     1      -6.821   0.175  -0.519  0.00  0.00    +0.000 A 
ENDBRANCH   9  12
ENDBRANCH   5   9
BRANCH   1  19
ATOM     18  N   UNL     1       0.760  -2.203  -5.019  0.00  0.00    +0.000 NA
ATOM     19  C   UNL     1       0.035  -1.753  -4.233  0.00  0.00    +0.000 C 
ENDBRANCH   1  19
TORSDOF 3
