REMARK  Name = 
REMARK  10 active torsions:
REMARK  status: ('A' for Active; 'I' for Inactive)
REMARK    1  A    between atoms: N_1  and  C_2
REMARK    2  A    between atoms: C_2  and  C_3
REMARK    3  A    between atoms: C_3  and  N_4
REMARK    4  A    between atoms: C_3  and  C_20
REMARK    5  A    between atoms: N_4  and  C_5
REMARK    6  A    between atoms: C_5  and  C_6
REMARK    7  A    between atoms: C_9  and  C_10
REMARK    8  A    between atoms: C_10  and  N_11
REMARK    9  A    between atoms: N_11  and  C_12
REMARK   10  A    between atoms: C_12  and  C_13
REMARK                            x       y       z     vdW  Elec       q    Type
REMARK                         _______ _______ _______ _____ _____    ______ ____
ROOT
ATOM      1  N   UNL     1       2.631  -0.032   0.053  0.00  0.00    +0.000 NA
ATOM      2  H   UNL     1       2.983  -0.401  -0.832  0.00  0.00    +0.000 HD
ENDROOT
BRANCH   1   3
ATOM      3  C   UNL     1       2.962  -0.993   1.126  0.00  0.00    +0.000 C 
BRANCH   3   4
ATOM      4  C   UNL     1       2.368  -2.341   0.728  0.00  0.00    +0.000 A 
ATOM      5  C   UNL     1       1.179  -2.513   0.031  0.00  0.00    +0.000 A 
ATOM      6  S   UNL     1       0.754  -4.150  -0.193  0.00  0.00    +0.000 S 
ATOM      7  C   UNL     1       2.135  -4.685   0.645  0.00  0.00    +0.000 A 
ATOM      8  N   UNL     1       2.373  -6.012   0.835  0.00  0.00    +0.000 NA
ATOM      9  C   UNL     1       3.446  -6.266   1.504  0.00  0.00    +0.000 A 
ATOM     10  N   UNL     1       4.310  -5.317   1.994  0.00  0.00    +0.000 N 
ATOM     11  C   UNL     1       4.125  -3.965   1.814  0.00  0.00    +0.000 A 
ATOM     12  O   UNL     1       4.941  -3.148   2.230  0.00  0.00    +0.000 OA
ATOM     13  C   UNL     1       2.919  -3.631   1.075  0.00  0.00    +0.000 A 
ATOM     14  H   UNL     1       5.140  -5.589   2.499  0.00  0.00    +0.000 HD
ENDBRANCH   3   4
BRANCH   3  15
ATOM     15  C   UNL     1       2.416  -0.546   2.523  0.00  0.00    +0.000 C 
BRANCH  15  16
ATOM     16  N   UNL     1       2.719  -1.454   3.638  0.00  0.00    +0.000 NA
ATOM     17  H   UNL     1       2.367  -1.048   4.503  0.00  0.00    +0.000 HD
ATOM     18  H   UNL     1       3.733  -1.535   3.737  0.00  0.00    +0.000 HD
ENDBRANCH  15  16
ENDBRANCH   3  15
ENDBRANCH   1   3
BRANCH   1  19
ATOM     19  C   UNL     1       3.217   1.292   0.254  0.00  0.00    +0.000 C 
BRANCH  19  20
ATOM     20  C   UNL     1       2.845   2.239  -0.864  0.00  0.00    +0.000 A 
ATOM     21  C   UNL     1       1.501   2.530  -1.140  0.00  0.00    +0.000 A 
ATOM     22  C   UNL     1       1.161   3.439  -2.147  0.00  0.00    +0.000 A 
ATOM     23  C   UNL     1       2.157   4.092  -2.886  0.00  0.00    +0.000 A 
ATOM     24  C   UNL     1       3.499   3.804  -2.606  0.00  0.00    +0.000 A 
ATOM     25  C   UNL     1       3.839   2.887  -1.607  0.00  0.00    +0.000 A 
BRANCH  23  26
ATOM     26  C   UNL     1       1.792   5.075  -3.976  0.00  0.00    +0.000 C 
BRANCH  26  27
ATOM     27  N   UNL     1       1.008   6.187  -3.449  0.00  0.00    +0.000 NA
ATOM     28  H   UNL     1       1.550   6.673  -2.732  0.00  0.00    +0.000 HD
BRANCH  27  29
ATOM     29  C   UNL     1       0.692   7.154  -4.500  0.00  0.00    +0.000 C 
BRANCH  29  30
ATOM     30  C   UNL     1      -0.111   8.258  -3.893  0.00  0.00    +0.000 A 
ATOM     31  C   UNL     1      -1.482   8.346  -3.746  0.00  0.00    +0.000 A 
ATOM     32  N   UNL     1      -1.703   9.536  -3.116  0.00  0.00    +0.000 N 
ATOM     33  C   UNL     1      -0.489  10.127  -2.908  0.00  0.00    +0.000 A 
ATOM     34  N   UNL     1       0.492   9.384  -3.368  0.00  0.00    +0.000 NA
ATOM     35  H   UNL     1      -2.601   9.916  -2.841  0.00  0.00    +0.000 HD
ENDBRANCH  29  30
ENDBRANCH  27  29
ENDBRANCH  26  27
ENDBRANCH  23  26
ENDBRANCH  19  20
ENDBRANCH   1  19
TORSDOF 10
