REMARK  Name = 
REMARK  9 active torsions:
REMARK  status: ('A' for Active; 'I' for Inactive)
REMARK    1  A    between atoms: C_1  and  O_2
REMARK    2  A    between atoms: O_2  and  C_3
REMARK    3  A    between atoms: C_10  and  C_11
REMARK    4  A    between atoms: N_13  and  C_14
REMARK    5  A    between atoms: C_14  and  C_15
REMARK    6  A    between atoms: C_18  and  C_19
REMARK    7  A    between atoms: C_19  and  O_20
REMARK    8  A    between atoms: O_20  and  C_21
REMARK    9  A    between atoms: C_21  and  C_22
REMARK                            x       y       z     vdW  Elec       q    Type
REMARK                         _______ _______ _______ _____ _____    ______ ____
ROOT
ATOM      1  C   UNL     1       2.786   1.177   3.063  0.00  0.00    +0.000 C 
ENDROOT
BRANCH   1   2
ATOM      2  C   UNL     1       1.743   2.142   2.568  0.00  0.00    +0.000 A 
ATOM      3  C   UNL     1       0.466   1.691   2.208  0.00  0.00    +0.000 A 
ATOM      4  C   UNL     1      -0.481   2.582   1.699  0.00  0.00    +0.000 A 
ATOM      5  C   UNL     1      -0.165   3.938   1.535  0.00  0.00    +0.000 A 
ATOM      6  C   UNL     1       1.111   4.388   1.895  0.00  0.00    +0.000 A 
ATOM      7  C   UNL     1       2.057   3.497   2.402  0.00  0.00    +0.000 A 
BRANCH   5   8
ATOM      8  C   UNL     1      -1.196   4.906   1.012  0.00  0.00    +0.000 C 
BRANCH   8   9
ATOM      9  O   UNL     1      -2.380   4.905   1.807  0.00  0.00    +0.000 OA
BRANCH   9  10
ATOM     10  C   UNL     1      -2.166   5.431   3.120  0.00  0.00    +0.000 C 
BRANCH  10  11
ATOM     11  C   UNL     1      -3.465   5.487   3.876  0.00  0.00    +0.000 A 
ATOM     12  C   UNL     1      -4.518   4.600   3.612  0.00  0.00    +0.000 A 
ATOM     13  C   UNL     1      -5.689   4.642   4.371  0.00  0.00    +0.000 A 
ATOM     14  C   UNL     1      -5.817   5.561   5.412  0.00  0.00    +0.000 A 
ATOM     15  C   UNL     1      -4.771   6.437   5.696  0.00  0.00    +0.000 A 
ATOM     16  C   UNL     1      -3.607   6.390   4.933  0.00  0.00    +0.000 A 
ATOM     17  F   UNL     1      -2.604   7.228   5.234  0.00  0.00    +0.000 F 
ENDBRANCH  10  11
ENDBRANCH   9  10
ENDBRANCH   8   9
ENDBRANCH   5   8
ENDBRANCH   1   2
BRANCH   1  20
ATOM     18  C   UNL     1       4.531  -0.289   2.155  0.00  0.00    +0.000 C 
ATOM     19  O   UNL     1       4.806  -0.695   3.282  0.00  0.00    +0.000 OA
ATOM     20  N   UNL     1       3.550   0.640   1.960  0.00  0.00    +0.000 N 
ATOM     21  H   UNL     1       3.362   1.006   1.034  0.00  0.00    +0.000 HD
BRANCH  18  29
ATOM     22  C   UNL     1       4.188   0.244  -1.237  0.00  0.00    +0.000 A 
ATOM     23  N   UNL     1       4.285   0.270  -2.582  0.00  0.00    +0.000 NA
ATOM     24  C   UNL     1       5.234  -0.471  -3.160  0.00  0.00    +0.000 A 
ATOM     25  N   UNL     1       6.119  -1.253  -2.550  0.00  0.00    +0.000 NA
ATOM     26  C   UNL     1       5.994  -1.245  -1.212  0.00  0.00    +0.000 A 
ATOM     27  S   UNL     1       7.043  -2.191  -0.271  0.00  0.00    +0.000 S 
ATOM     28  C   UNL     1       6.297  -1.677   1.164  0.00  0.00    +0.000 A 
ATOM     29  C   UNL     1       5.250  -0.783   0.968  0.00  0.00    +0.000 A 
ATOM     30  C   UNL     1       5.069  -0.527  -0.458  0.00  0.00    +0.000 A 
BRANCH  22  32
ATOM     31  C   UNL     1       2.109   1.276  -1.496  0.00  0.00    +0.000 C 
ATOM     32  O   UNL     1       3.229   1.040  -0.644  0.00  0.00    +0.000 OA
ENDBRANCH  22  32
ENDBRANCH  18  29
ENDBRANCH   1  20
TORSDOF 8
