REMARK  Name = 
REMARK  5 active torsions:
REMARK  status: ('A' for Active; 'I' for Inactive)
REMARK    1  A    between atoms: C_2  and  C_3
REMARK    2  A    between atoms: C_6  and  C_7
REMARK    3  A    between atoms: C_11  and  N_12
REMARK    4  A    between atoms: N_12  and  C_13
REMARK    5  A    between atoms: C_13  and  C_14
REMARK                            x       y       z     vdW  Elec       q    Type
REMARK                         _______ _______ _______ _____ _____    ______ ____
ROOT
ATOM      1  C   UNL     1       0.481  -0.108   0.068  0.00  0.00    +0.000 A 
ATOM      2  N   UNL     1      -0.196  -1.294   0.089  0.00  0.00    +0.000 NA
ATOM      3  C   UNL     1      -1.541  -1.252  -0.027  0.00  0.00    +0.000 A 
ATOM      4  C   UNL     1      -2.251  -0.076  -0.180  0.00  0.00    +0.000 A 
ATOM      5  C   UNL     1      -1.541   1.130  -0.174  0.00  0.00    +0.000 A 
ATOM      6  C   UNL     1      -0.138   1.159  -0.029  0.00  0.00    +0.000 A 
ENDROOT
BRANCH   4   7
ATOM      7  C   UNL     1      -3.719  -0.157  -0.330  0.00  0.00    +0.000 C 
ATOM      8  N   UNL     1      -4.348   0.872  -0.971  0.00  0.00    +0.000 N 
ATOM      9  O   UNL     1      -4.346  -1.127   0.074  0.00  0.00    +0.000 OA
ATOM     10  H   UNL     1      -3.859   1.561  -1.525  0.00  0.00    +0.000 HD
ATOM     11  H   UNL     1      -5.336   0.746  -1.156  0.00  0.00    +0.000 HD
ENDBRANCH   4   7
BRANCH   1  13
ATOM     12  N   UNL     1       3.048  -0.426   0.341  0.00  0.00    +0.000 NA
ATOM     13  C   UNL     1       1.898  -0.304   0.211  0.00  0.00    +0.000 C 
ENDBRANCH   1  13
BRANCH   6  14
ATOM     14  N   UNL     1       0.459   2.429  -0.124  0.00  0.00    +0.000 N 
ATOM     15  H   UNL     1      -0.084   3.148   0.352  0.00  0.00    +0.000 HD
BRANCH  14  16
ATOM     16  C   UNL     1       1.895   2.627   0.042  0.00  0.00    +0.000 C 
BRANCH  16  17
ATOM     17  C   UNL     1       2.308   4.083  -0.030  0.00  0.00    +0.000 A 
ATOM     18  C   UNL     1       3.454   4.482   0.682  0.00  0.00    +0.000 A 
ATOM     19  C   UNL     1       3.937   5.789   0.594  0.00  0.00    +0.000 A 
ATOM     20  C   UNL     1       3.280   6.712  -0.213  0.00  0.00    +0.000 A 
ATOM     21 CL   UNL     1       3.877   8.321  -0.327  0.00  0.00    +0.000 Cl
ATOM     22  C   UNL     1       2.152   6.334  -0.939  0.00  0.00    +0.000 A 
ATOM     23  C   UNL     1       1.672   5.021  -0.857  0.00  0.00    +0.000 A 
ENDBRANCH  16  17
ENDBRANCH  14  16
ENDBRANCH   6  14
TORSDOF 5
