REMARK  Name = 
REMARK  5 active torsions:
REMARK  status: ('A' for Active; 'I' for Inactive)
REMARK    1  A    between atoms: N_1  and  C_2
REMARK    2  A    between atoms: C_2  and  C_3
REMARK    3  A    between atoms: C_6  and  C_7
REMARK    4  A    between atoms: C_7  and  N_8
REMARK    5  A    between atoms: C_13  and  C_14
REMARK                            x       y       z     vdW  Elec       q    Type
REMARK                         _______ _______ _______ _____ _____    ______ ____
ROOT
ATOM      1  N   UNL     1      -0.296   1.616   4.818  0.00  0.00    +0.000 N 
ATOM      2  C   UNL     1      -1.317   0.696   4.734  0.00  0.00    +0.000 A 
ATOM      3  C   UNL     1      -1.813   0.489   6.003  0.00  0.00    +0.000 A 
ATOM      4  C   UNL     1      -1.034   1.265   6.898  0.00  0.00    +0.000 A 
ATOM      5  C   UNL     1      -1.017   1.446   8.292  0.00  0.00    +0.000 A 
ATOM      6  C   UNL     1      -0.029   2.280   8.825  0.00  0.00    +0.000 A 
ATOM      7  C   UNL     1       0.839   2.931   7.951  0.00  0.00    +0.000 A 
ATOM      8  N   UNL     1       0.842   2.813   6.599  0.00  0.00    +0.000 NA
ATOM      9  C   UNL     1      -0.096   1.959   6.137  0.00  0.00    +0.000 A 
ENDROOT
BRANCH   6  10
ATOM     10  C   UNL     1       0.116   2.501  10.285  0.00  0.00    +0.000 C 
ATOM     11  N   UNL     1      -0.332   1.504  11.109  0.00  0.00    +0.000 N 
ATOM     12  O   UNL     1       0.651   3.505  10.725  0.00  0.00    +0.000 OA
ATOM     13  H   UNL     1      -0.567   0.581  10.784  0.00  0.00    +0.000 HD
ATOM     14  H   UNL     1      -0.137   1.621  12.096  0.00  0.00    +0.000 HD
ENDBRANCH   6  10
BRANCH   1  15
ATOM     15  C   UNL     1       0.428   2.158   3.673  0.00  0.00    +0.000 C 
BRANCH  15  19
ATOM     16  C   UNL     1       2.998   0.505   1.182  0.00  0.00    +0.000 C 
ATOM     17  C   UNL     1       2.171  -0.251   2.236  0.00  0.00    +0.000 C 
ATOM     18  C   UNL     1       2.261   0.365   3.632  0.00  0.00    +0.000 C 
ATOM     19  C   UNL     1       1.945   1.869   3.677  0.00  0.00    +0.000 C 
ATOM     20  C   UNL     1       2.676   2.638   2.561  0.00  0.00    +0.000 C 
ATOM     21  C   UNL     1       2.584   1.985   1.182  0.00  0.00    +0.000 C 
BRANCH  16  22
ATOM     22  C   UNL     1       4.523   0.343   1.365  0.00  0.00    +0.000 C 
BRANCH  22  23
ATOM     23  N   UNL     1       4.947  -1.048   1.224  0.00  0.00    +0.000 NA
ATOM     24  H   UNL     1       5.919  -1.137   1.518  0.00  0.00    +0.000 HD
ATOM     25  H   UNL     1       4.930  -1.310   0.238  0.00  0.00    +0.000 HD
ENDBRANCH  22  23
ENDBRANCH  16  22
ENDBRANCH  15  19
ENDBRANCH   1  15
TORSDOF 5
