REMARK  Name = 
REMARK  3 active torsions:
REMARK  status: ('A' for Active; 'I' for Inactive)
REMARK    1  A    between atoms: C_2  and  C_3
REMARK    2  A    between atoms: N_7  and  C_8
REMARK    3  A    between atoms: C_8  and  C_9
REMARK                            x       y       z     vdW  Elec       q    Type
REMARK                         _______ _______ _______ _____ _____    ______ ____
ROOT
ATOM      1  C   UNL     1      -0.237   0.202  -1.724  0.00  0.00    +0.000 A 
ATOM      2  C   UNL     1       0.522  -0.942  -1.746  0.00  0.00    +0.000 A 
ATOM      3  N   UNL     1       1.765  -1.015  -1.225  0.00  0.00    +0.000 NA
ATOM      4  C   UNL     1       2.295   0.115  -0.737  0.00  0.00    +0.000 A 
ATOM      5  N   UNL     1       3.607   0.036  -0.346  0.00  0.00    +0.000 N 
ATOM      6  N   UNL     1       1.630   1.278  -0.671  0.00  0.00    +0.000 NA
ATOM      7  C   UNL     1       0.366   1.291  -1.146  0.00  0.00    +0.000 A 
ATOM      8  H   UNL     1       3.758  -0.767   0.248  0.00  0.00    +0.000 HD
ENDROOT
BRANCH   1  10
ATOM      9  N   UNL     1      -2.620   0.297  -2.706  0.00  0.00    +0.000 NA
ATOM     10  C   UNL     1      -1.548   0.255  -2.267  0.00  0.00    +0.000 C 
ENDBRANCH   1  10
BRANCH   5  11
ATOM     11  C   UNL     1       4.311   1.253  -0.026  0.00  0.00    +0.000 C 
BRANCH  11  12
ATOM     12  C   UNL     1       5.793   0.980  -0.061  0.00  0.00    +0.000 A 
ATOM     13  C   UNL     1       6.395   0.361  -1.165  0.00  0.00    +0.000 A 
ATOM     14  C   UNL     1       7.768   0.147  -1.180  0.00  0.00    +0.000 A 
ATOM     15  C   UNL     1       8.505   0.571  -0.088  0.00  0.00    +0.000 A 
ATOM     16  N   UNL     1       7.966   1.180   0.991  0.00  0.00    +0.000 NA
ATOM     17  C   UNL     1       6.627   1.372   0.979  0.00  0.00    +0.000 A 
ENDBRANCH  11  12
ENDBRANCH   5  11
TORSDOF 3
