REMARK  Name = 
REMARK  6 active torsions:
REMARK  status: ('A' for Active; 'I' for Inactive)
REMARK    1  A    between atoms: C_1  and  O_2
REMARK    2  A    between atoms: O_2  and  C_3
REMARK    3  A    between atoms: C_6  and  C_7
REMARK    4  A    between atoms: C_7  and  N_8
REMARK    5  A    between atoms: N_8  and  C_9
REMARK    6  A    between atoms: C_12  and  C_13
REMARK                            x       y       z     vdW  Elec       q    Type
REMARK                         _______ _______ _______ _____ _____    ______ ____
ROOT
ATOM      1  N   UNL     1       5.713   4.934   1.477  0.00  0.00    +0.000 N 
ATOM      2  H   UNL     1       4.963   5.408   0.986  0.00  0.00    +0.000 HD
ENDROOT
BRANCH   1   3
ATOM      3  C   UNL     1       6.903   4.889   0.731  0.00  0.00    +0.000 A 
ATOM      4  C   UNL     1       7.965   4.017   0.982  0.00  0.00    +0.000 A 
ATOM      5  C   UNL     1       9.166   4.125   0.256  0.00  0.00    +0.000 A 
ATOM      6  C   UNL     1       9.323   5.114  -0.722  0.00  0.00    +0.000 A 
ATOM      7  C   UNL     1       8.275   6.001  -0.968  0.00  0.00    +0.000 A 
ATOM      8  C   UNL     1       7.087   5.885  -0.244  0.00  0.00    +0.000 A 
BRANCH   6   9
ATOM      9  C   UNL     1      10.628   5.235  -1.432  0.00  0.00    +0.000 C 
ATOM     10  N   UNL     1      10.635   5.870  -2.645  0.00  0.00    +0.000 N 
ATOM     11  O   UNL     1      11.660   4.773  -0.963  0.00  0.00    +0.000 OA
ATOM     12  H   UNL     1       9.796   6.073  -3.167  0.00  0.00    +0.000 HD
ATOM     13  H   UNL     1      11.515   5.884  -3.143  0.00  0.00    +0.000 HD
ENDBRANCH   6   9
ENDBRANCH   1   3
BRANCH   1  14
ATOM     14  C   UNL     1       5.287   4.012   2.540  0.00  0.00    +0.000 C 
ATOM     15  C   UNL     1       5.963   3.983   3.896  0.00  0.00    +0.000 C 
ATOM     16  C   UNL     1       4.677   4.725   3.751  0.00  0.00    +0.000 C 
BRANCH  14  20
ATOM     17  C   UNL     1       2.883   0.568   1.327  0.00  0.00    +0.000 A 
ATOM     18  C   UNL     1       4.127   0.374   1.924  0.00  0.00    +0.000 A 
ATOM     19  C   UNL     1       4.923   1.475   2.271  0.00  0.00    +0.000 A 
ATOM     20  C   UNL     1       4.495   2.797   2.056  0.00  0.00    +0.000 A 
ATOM     21  C   UNL     1       3.250   2.962   1.420  0.00  0.00    +0.000 A 
ATOM     22  C   UNL     1       2.459   1.868   1.060  0.00  0.00    +0.000 A 
BRANCH  17  24
ATOM     23  C   UNL     1       2.342  -1.747   1.287  0.00  0.00    +0.000 C 
ATOM     24  O   UNL     1       1.998  -0.407   0.960  0.00  0.00    +0.000 OA
ENDBRANCH  17  24
ENDBRANCH  14  20
ENDBRANCH   1  14
TORSDOF 5
