REMARK  Name = 
REMARK  7 active torsions:
REMARK  status: ('A' for Active; 'I' for Inactive)
REMARK    1  A    between atoms: C_1  and  C_2
REMARK    2  A    between atoms: C_4  and  C_5
REMARK    3  A    between atoms: C_5  and  N_6
REMARK    4  A    between atoms: C_7  and  C_9
REMARK    5  A    between atoms: C_21  and  C_22
REMARK    6  A    between atoms: C_22  and  N_23
REMARK    7  A    between atoms: C_24  and  C_26
REMARK                            x       y       z     vdW  Elec       q    Type
REMARK                         _______ _______ _______ _____ _____    ______ ____
ROOT
ATOM      1  C   UNL     1       2.586   0.222   0.004  0.00  0.00    +0.000 C 
ATOM      2  C   UNL     1       1.088   0.089   0.028  0.00  0.00    +0.000 A 
ATOM      3  C   UNL     1       0.325   1.276   0.042  0.00  0.00    +0.000 A 
ATOM      4  C   UNL     1      -1.075   1.258   0.020  0.00  0.00    +0.000 A 
ATOM      5  C   UNL     1      -1.720   0.019   0.035  0.00  0.00    +0.000 A 
ATOM      6  C   UNL     1      -0.978  -1.170   0.036  0.00  0.00    +0.000 A 
ATOM      7  C   UNL     1       0.431  -1.160   0.013  0.00  0.00    +0.000 A 
ENDROOT
BRANCH   4   8
ATOM      8  C   UNL     1      -1.848   2.554   0.011  0.00  0.00    +0.000 C 
BRANCH   8   9
ATOM      9  N   UNL     1      -2.112   3.017   1.351  0.00  0.00    +0.000 N 
ATOM     10  C   UNL     1      -2.880   4.127   1.590  0.00  0.00    +0.000 C 
ATOM     11  O   UNL     1      -3.410   4.765   0.684  0.00  0.00    +0.000 OA
ATOM     12  H   UNL     1      -1.496   2.673   2.081  0.00  0.00    +0.000 HD
BRANCH  10  13
ATOM     13  C   UNL     1      -3.092   4.483   3.002  0.00  0.00    +0.000 A 
ATOM     14  C   UNL     1      -4.201   5.232   3.367  0.00  0.00    +0.000 A 
ATOM     15  S   UNL     1      -4.321   5.510   5.046  0.00  0.00    +0.000 S 
ATOM     16  C   UNL     1      -2.860   4.689   5.339  0.00  0.00    +0.000 A 
ATOM     17  N   UNL     1      -2.360   4.585   6.600  0.00  0.00    +0.000 NA
ATOM     18  C   UNL     1      -1.229   3.959   6.674  0.00  0.00    +0.000 A 
ATOM     19  N   UNL     1      -0.561   3.426   5.602  0.00  0.00    +0.000 N 
ATOM     20  C   UNL     1      -1.044   3.482   4.318  0.00  0.00    +0.000 A 
ATOM     21  O   UNL     1      -0.441   2.953   3.390  0.00  0.00    +0.000 OA
ATOM     22  C   UNL     1      -2.304   4.186   4.177  0.00  0.00    +0.000 A 
ATOM     23  H   UNL     1       0.316   2.942   5.727  0.00  0.00    +0.000 HD
ENDBRANCH  10  13
ENDBRANCH   8   9
ENDBRANCH   4   8
BRANCH   7  24
ATOM     24  C   UNL     1       1.162  -2.488  -0.020  0.00  0.00    +0.000 C 
BRANCH  24  25
ATOM     25  N   UNL     1       1.440  -2.990   1.302  0.00  0.00    +0.000 N 
ATOM     26  C   UNL     1       1.941  -4.256   1.529  0.00  0.00    +0.000 C 
ATOM     27  O   UNL     1       2.218  -5.038   0.621  0.00  0.00    +0.000 OA
ATOM     28  H   UNL     1       1.300  -2.394   2.107  0.00  0.00    +0.000 HD
BRANCH  26  29
ATOM     29  C   UNL     1       2.099  -4.571   2.942  0.00  0.00    +0.000 A 
ATOM     30  C   UNL     1       2.627  -5.668   3.601  0.00  0.00    +0.000 A 
ATOM     31  C   UNL     1       2.489  -5.423   4.991  0.00  0.00    +0.000 A 
ATOM     32  C   UNL     1       1.883  -4.195   5.102  0.00  0.00    +0.000 A 
ATOM     33  O   UNL     1       1.654  -3.663   3.874  0.00  0.00    +0.000 OA
ENDBRANCH  26  29
ENDBRANCH  24  25
ENDBRANCH   7  24
TORSDOF 6
