REMARK  Name = 
REMARK  8 active torsions:
REMARK  status: ('A' for Active; 'I' for Inactive)
REMARK    1  A    between atoms: N_1  and  C_2
REMARK    2  A    between atoms: C_2  and  C_3
REMARK    3  A    between atoms: C_3  and  N_4
REMARK    4  A    between atoms: C_3  and  C_17
REMARK    5  A    between atoms: C_5  and  C_7
REMARK    6  A    between atoms: C_20  and  O_21
REMARK    7  A    between atoms: O_21  and  C_22
REMARK    8  A    between atoms: C_22  and  C_23
REMARK                            x       y       z     vdW  Elec       q    Type
REMARK                         _______ _______ _______ _____ _____    ______ ____
ROOT
ATOM      1  C   UNL     1       2.823   1.078   0.846  0.00  0.00    +0.000 C 
ENDROOT
BRANCH   1   2
ATOM      2  C   UNL     1       4.349   1.114   0.879  0.00  0.00    +0.000 A 
ATOM      3  C   UNL     1       5.020   2.294   0.526  0.00  0.00    +0.000 A 
ATOM      4  C   UNL     1       6.416   2.370   0.566  0.00  0.00    +0.000 A 
ATOM      5  C   UNL     1       7.170   1.268   0.970  0.00  0.00    +0.000 A 
ATOM      6  C   UNL     1       6.514   0.085   1.313  0.00  0.00    +0.000 A 
ATOM      7  C   UNL     1       5.117   0.008   1.278  0.00  0.00    +0.000 A 
BRANCH   5   8
ATOM      8  O   UNL     1       8.537   1.222   1.016  0.00  0.00    +0.000 OA
BRANCH   8   9
ATOM      9  C   UNL     1       9.191   2.465   1.296  0.00  0.00    +0.000 C 
BRANCH   9  10
ATOM     10  C   UNL     1      10.690   2.255   1.362  0.00  0.00    +0.000 A 
ATOM     11  C   UNL     1      11.382   1.817   0.232  0.00  0.00    +0.000 A 
ATOM     12  C   UNL     1      12.764   1.667   0.303  0.00  0.00    +0.000 A 
ATOM     13  C   UNL     1      13.419   1.954   1.493  0.00  0.00    +0.000 A 
ATOM     14  C   UNL     1      12.662   2.387   2.568  0.00  0.00    +0.000 A 
ATOM     15  N   UNL     1      11.320   2.549   2.528  0.00  0.00    +0.000 NA
ENDBRANCH   9  10
ENDBRANCH   8   9
ENDBRANCH   5   8
ENDBRANCH   1   2
BRANCH   1  16
ATOM     16  N   UNL     1       2.322   0.934   2.204  0.00  0.00    +0.000 N 
ATOM     17  C   UNL     1       1.115   1.432   2.615  0.00  0.00    +0.000 C 
ATOM     18  O   UNL     1       0.336   1.987   1.847  0.00  0.00    +0.000 OA
ATOM     19  H   UNL     1       2.967   0.558   2.890  0.00  0.00    +0.000 HD
BRANCH  17  20
ATOM     20  C   UNL     1       0.786   1.235   4.033  0.00  0.00    +0.000 A 
ATOM     21  C   UNL     1      -0.541   1.242   4.444  0.00  0.00    +0.000 A 
ATOM     22  S   UNL     1      -0.735   1.028   6.126  0.00  0.00    +0.000 S 
ATOM     23  C   UNL     1       0.950   0.969   6.369  0.00  0.00    +0.000 A 
ATOM     24  N   UNL     1       1.475   0.854   7.618  0.00  0.00    +0.000 NA
ATOM     25  C   UNL     1       2.765   0.874   7.657  0.00  0.00    +0.000 A 
ATOM     26  N   UNL     1       3.579   0.972   6.558  0.00  0.00    +0.000 N 
ATOM     27  C   UNL     1       3.093   0.982   5.272  0.00  0.00    +0.000 A 
ATOM     28  O   UNL     1       3.850   0.885   4.314  0.00  0.00    +0.000 OA
ATOM     29  C   UNL     1       1.647   1.053   5.178  0.00  0.00    +0.000 A 
ATOM     30  H   UNL     1       4.584   0.931   6.651  0.00  0.00    +0.000 HD
ENDBRANCH  17  20
ENDBRANCH   1  16
BRANCH   1  31
ATOM     31  C   UNL     1       2.261  -0.041  -0.079  0.00  0.00    +0.000 C 
BRANCH  31  32
ATOM     32  N   UNL     1       2.701   0.048  -1.478  0.00  0.00    +0.000 NA
ATOM     33  H   UNL     1       2.477  -0.826  -1.953  0.00  0.00    +0.000 HD
ATOM     34  H   UNL     1       3.717   0.139  -1.510  0.00  0.00    +0.000 HD
ENDBRANCH  31  32
ENDBRANCH   1  31
TORSDOF 8
