REMARK  Name = 
REMARK  5 active torsions:
REMARK  status: ('A' for Active; 'I' for Inactive)
REMARK    1  A    between atoms: C_7  and  C_8
REMARK    2  A    between atoms: N_10  and  C_11
REMARK    3  A    between atoms: C_11  and  C_12
REMARK    4  A    between atoms: C_15  and  C_16
REMARK    5  A    between atoms: C_16  and  C_17
REMARK                            x       y       z     vdW  Elec       q    Type
REMARK                         _______ _______ _______ _____ _____    ______ ____
ROOT
ATOM      1  C   UNL     1      -2.883  -2.012   0.622  0.00  0.00    +0.000 C 
ATOM      2  O   UNL     1      -3.973  -1.968   1.188  0.00  0.00    +0.000 OA
ATOM      3  N   UNL     1      -2.333  -3.197   0.196  0.00  0.00    +0.000 N 
ATOM      4  H   UNL     1      -1.494  -3.191  -0.379  0.00  0.00    +0.000 HD
ENDROOT
BRANCH   1  11
ATOM      5  N   UNL     1       2.593   1.143  -1.660  0.00  0.00    +0.000 N 
ATOM      6  C   UNL     1       1.429   0.635  -1.181  0.00  0.00    +0.000 A 
ATOM      7  N   UNL     1       0.576   1.411  -0.576  0.00  0.00    +0.000 NA
ATOM      8  C   UNL     1      -0.530   0.767  -0.138  0.00  0.00    +0.000 A 
ATOM      9  N   UNL     1      -1.548   1.389   0.520  0.00  0.00    +0.000 N 
ATOM     10  C   UNL     1      -2.500   0.458   0.844  0.00  0.00    +0.000 A 
ATOM     11  C   UNL     1      -2.095  -0.797   0.394  0.00  0.00    +0.000 A 
ATOM     12  C   UNL     1      -0.844  -0.569  -0.254  0.00  0.00    +0.000 A 
ATOM     13  C   UNL     1       0.103  -1.398  -0.956  0.00  0.00    +0.000 A 
ATOM     14  O   UNL     1      -0.070  -2.591  -1.192  0.00  0.00    +0.000 OA
ATOM     15  N   UNL     1       1.232  -0.716  -1.365  0.00  0.00    +0.000 N 
ATOM     16  H   UNL     1       2.777   2.074  -1.298  0.00  0.00    +0.000 HD
ATOM     17  H   UNL     1       3.405   0.542  -1.618  0.00  0.00    +0.000 HD
ATOM     18  H   UNL     1      -1.576   2.377   0.731  0.00  0.00    +0.000 HD
ATOM     19  H   UNL     1       1.899  -1.252  -1.893  0.00  0.00    +0.000 HD
ENDBRANCH   1  11
BRANCH   3  20
ATOM     20  C   UNL     1      -3.043  -4.446   0.334  0.00  0.00    +0.000 C 
BRANCH  20  21
ATOM     21  C   UNL     1      -2.097  -5.616   0.426  0.00  0.00    +0.000 A 
ATOM     22  C   UNL     1      -1.541  -5.974   1.661  0.00  0.00    +0.000 A 
ATOM     23  C   UNL     1      -0.653  -7.049   1.759  0.00  0.00    +0.000 A 
ATOM     24  C   UNL     1      -0.307  -7.797   0.625  0.00  0.00    +0.000 A 
ATOM     25  C   UNL     1      -0.862  -7.439  -0.610  0.00  0.00    +0.000 A 
ATOM     26  C   UNL     1      -1.738  -6.351  -0.711  0.00  0.00    +0.000 A 
BRANCH  24  27
ATOM     27  C   UNL     1       0.667  -8.951   0.731  0.00  0.00    +0.000 C 
BRANCH  27  28
ATOM     28  C   UNL     1       0.073 -10.309   1.041  0.00  0.00    +0.000 A 
ATOM     29  C   UNL     1      -0.666 -10.525   2.204  0.00  0.00    +0.000 A 
ATOM     30  C   UNL     1      -1.085 -11.817   2.514  0.00  0.00    +0.000 A 
ATOM     31  C   UNL     1      -0.759 -12.862   1.661  0.00  0.00    +0.000 A 
ATOM     32  C   UNL     1      -0.032 -12.567   0.521  0.00  0.00    +0.000 A 
ATOM     33  N   UNL     1       0.391 -11.324   0.197  0.00  0.00    +0.000 NA
ENDBRANCH  27  28
ENDBRANCH  24  27
ENDBRANCH  20  21
ENDBRANCH   3  20
TORSDOF 5
