REMARK  Name = 
REMARK  8 active torsions:
REMARK  status: ('A' for Active; 'I' for Inactive)
REMARK    1  A    between atoms: C_1  and  O_2
REMARK    2  A    between atoms: O_2  and  C_3
REMARK    3  A    between atoms: C_10  and  C_11
REMARK    4  A    between atoms: N_13  and  C_14
REMARK    5  A    between atoms: C_14  and  C_15
REMARK    6  A    between atoms: C_18  and  N_19
REMARK    7  A    between atoms: N_19  and  C_20
REMARK    8  A    between atoms: C_20  and  C_21
REMARK                            x       y       z     vdW  Elec       q    Type
REMARK                         _______ _______ _______ _____ _____    ______ ____
ROOT
ATOM      1  C   UNL     1       2.751   3.262   0.198  0.00  0.00    +0.000 C 
ENDROOT
BRANCH   1   2
ATOM      2  C   UNL     1       1.562   3.097  -0.715  0.00  0.00    +0.000 A 
ATOM      3  C   UNL     1       1.289   1.863  -1.316  0.00  0.00    +0.000 A 
ATOM      4  C   UNL     1       0.101   1.661  -2.036  0.00  0.00    +0.000 A 
ATOM      5  C   UNL     1      -0.824   2.692  -2.220  0.00  0.00    +0.000 A 
ATOM      6  C   UNL     1      -0.501   3.947  -1.682  0.00  0.00    +0.000 A 
ATOM      7  C   UNL     1       0.676   4.154  -0.947  0.00  0.00    +0.000 A 
BRANCH   5   8
ATOM      8  N   UNL     1      -2.091   2.521  -2.787  0.00  0.00    +0.000 N 
ATOM      9  H   UNL     1      -2.332   3.302  -3.388  0.00  0.00    +0.000 HD
BRANCH   8  10
ATOM     10  C   UNL     1      -2.510   1.218  -3.318  0.00  0.00    +0.000 C 
BRANCH  10  11
ATOM     11  C   UNL     1      -3.964   1.267  -3.880  0.00  0.00    +0.000 C 
ATOM     12  C   UNL     1      -4.386  -0.143  -4.336  0.00  0.00    +0.000 C 
ATOM     13  C   UNL     1      -5.767  -0.151  -4.989  0.00  0.00    +0.000 C 
ATOM     14  C   UNL     1      -5.844   0.898  -6.090  0.00  0.00    +0.000 C 
ATOM     15  C   UNL     1      -5.421   2.268  -5.566  0.00  0.00    +0.000 C 
ATOM     16  N   UNL     1      -4.072   2.232  -4.998  0.00  0.00    +0.000 NA
ATOM     17  H   UNL     1      -3.856   3.164  -4.651  0.00  0.00    +0.000 HD
ENDBRANCH  10  11
ENDBRANCH   8  10
ENDBRANCH   5   8
ENDBRANCH   1   2
BRANCH   1  20
ATOM     18  C   UNL     1       5.116   3.925   0.156  0.00  0.00    +0.000 C 
ATOM     19  O   UNL     1       5.225   3.704   1.361  0.00  0.00    +0.000 OA
ATOM     20  N   UNL     1       3.924   3.729  -0.494  0.00  0.00    +0.000 N 
ATOM     21  H   UNL     1       3.846   3.896  -1.486  0.00  0.00    +0.000 HD
BRANCH  18  29
ATOM     22  C   UNL     1       5.533   4.610  -3.181  0.00  0.00    +0.000 A 
ATOM     23  N   UNL     1       5.923   5.043  -4.395  0.00  0.00    +0.000 NA
ATOM     24  C   UNL     1       7.146   5.570  -4.509  0.00  0.00    +0.000 A 
ATOM     25  N   UNL     1       8.055   5.704  -3.546  0.00  0.00    +0.000 NA
ATOM     26  C   UNL     1       7.618   5.275  -2.350  0.00  0.00    +0.000 A 
ATOM     27  S   UNL     1       8.646   5.353  -1.001  0.00  0.00    +0.000 S 
ATOM     28  C   UNL     1       7.444   4.710   0.015  0.00  0.00    +0.000 A 
ATOM     29  C   UNL     1       6.245   4.437  -0.635  0.00  0.00    +0.000 A 
ATOM     30  C   UNL     1       6.368   4.739  -2.058  0.00  0.00    +0.000 A 
BRANCH  22  32
ATOM     31  C   UNL     1       3.800   3.468  -4.259  0.00  0.00    +0.000 C 
ATOM     32  O   UNL     1       4.275   4.064  -3.056  0.00  0.00    +0.000 OA
ENDBRANCH  22  32
ENDBRANCH  18  29
ENDBRANCH   1  20
TORSDOF 7
