REMARK  Name = 
REMARK  8 active torsions:
REMARK  status: ('A' for Active; 'I' for Inactive)
REMARK    1  A    between atoms: C_2  and  C_20
REMARK    2  A    between atoms: N_3  and  C_4
REMARK    3  A    between atoms: C_4  and  C_5
REMARK    4  A    between atoms: C_5  and  N_6
REMARK    5  A    between atoms: C_9  and  C_10
REMARK    6  A    between atoms: C_9  and  C_12
REMARK    7  A    between atoms: C_10  and  O_11
REMARK    8  A    between atoms: C_12  and  C_13
REMARK                            x       y       z     vdW  Elec       q    Type
REMARK                         _______ _______ _______ _____ _____    ______ ____
ROOT
ATOM      1  C   UNL     1       2.839  -2.028   2.516  0.00  0.00    +0.000 C 
ENDROOT
BRANCH   1   4
ATOM      2  O   UNL     1       5.534  -2.699   2.078  0.00  0.00    +0.000 OA
ATOM      3  C   UNL     1       4.883  -2.239   1.147  0.00  0.00    +0.000 C 
ATOM      4  N   UNL     1       3.581  -1.828   1.294  0.00  0.00    +0.000 N 
ATOM      5  H   UNL     1       3.047  -1.537   0.483  0.00  0.00    +0.000 HD
BRANCH   3   6
ATOM      6  C   UNL     1       5.462  -2.052  -0.186  0.00  0.00    +0.000 A 
ATOM      7  C   UNL     1       6.840  -1.970  -0.342  0.00  0.00    +0.000 A 
ATOM      8  S   UNL     1       7.328  -1.754  -1.962  0.00  0.00    +0.000 S 
ATOM      9  C   UNL     1       5.719  -1.814  -2.515  0.00  0.00    +0.000 A 
ATOM     10  N   UNL     1       5.427  -1.727  -3.841  0.00  0.00    +0.000 NA
ATOM     11  C   UNL     1       4.172  -1.833  -4.120  0.00  0.00    +0.000 A 
ATOM     12  N   UNL     1       3.176  -2.003  -3.195  0.00  0.00    +0.000 N 
ATOM     13  C   UNL     1       3.413  -2.020  -1.844  0.00  0.00    +0.000 A 
ATOM     14  O   UNL     1       2.488  -2.045  -1.041  0.00  0.00    +0.000 OA
ATOM     15  C   UNL     1       4.820  -1.960  -1.475  0.00  0.00    +0.000 A 
ATOM     16  H   UNL     1       2.207  -2.042  -3.476  0.00  0.00    +0.000 HD
ENDBRANCH   3   6
ENDBRANCH   1   4
BRANCH   1  17
ATOM     17  C   UNL     1       3.149  -0.936   3.549  0.00  0.00    +0.000 C 
BRANCH  17  18
ATOM     18  N   UNL     1       2.447  -1.110   4.837  0.00  0.00    +0.000 NA
ATOM     19  C   UNL     1       2.751   0.020   5.732  0.00  0.00    +0.000 C 
ATOM     20  C   UNL     1       4.064  -0.373   6.385  0.00  0.00    +0.000 C 
ATOM     21  C   UNL     1       3.856  -1.861   6.707  0.00  0.00    +0.000 C 
ATOM     22  C   UNL     1       2.907  -2.316   5.564  0.00  0.00    +0.000 C 
BRANCH  21  23
ATOM     23  C   UNL     1       5.168  -2.667   6.613  0.00  0.00    +0.000 C 
BRANCH  23  24
ATOM     24  O   UNL     1       6.193  -2.204   7.477  0.00  0.00    +0.000 OA
ATOM     25  H   UNL     1       6.337  -1.259   7.304  0.00  0.00    +0.000 HD
ENDBRANCH  23  24
ENDBRANCH  21  23
BRANCH  21  26
ATOM     26  C   UNL     1       3.114  -2.086   8.063  0.00  0.00    +0.000 C 
BRANCH  26  27
ATOM     27  C   UNL     1       3.764  -1.518   9.301  0.00  0.00    +0.000 A 
ATOM     28  C   UNL     1       3.507  -0.200   9.705  0.00  0.00    +0.000 A 
ATOM     29  C   UNL     1       4.177   0.351  10.796  0.00  0.00    +0.000 A 
ATOM     30  C   UNL     1       5.086  -0.419  11.517  0.00  0.00    +0.000 A 
ATOM     31  C   UNL     1       5.315  -1.745  11.152  0.00  0.00    +0.000 A 
ATOM     32  C   UNL     1       4.658  -2.292  10.051  0.00  0.00    +0.000 A 
ENDBRANCH  26  27
ENDBRANCH  21  26
ENDBRANCH  17  18
ENDBRANCH   1  17
TORSDOF 8
