REMARK  Name = 
REMARK  5 active torsions:
REMARK  status: ('A' for Active; 'I' for Inactive)
REMARK    1  A    between atoms: C_1  and  O_2
REMARK    2  A    between atoms: O_2  and  C_3
REMARK    3  A    between atoms: C_3  and  C_5
REMARK    4  A    between atoms: N_9  and  C_10
REMARK    5  A    between atoms: C_10  and  C_11
REMARK                            x       y       z     vdW  Elec       q    Type
REMARK                         _______ _______ _______ _____ _____    ______ ____
ROOT
ATOM      1  C   UNL     1       4.576  -1.192   0.331  0.00  0.00    +0.000 A 
ATOM      2  C   UNL     1       5.304  -0.162   0.879  0.00  0.00    +0.000 A 
ATOM      3  N   UNL     1       6.657  -0.091   0.828  0.00  0.00    +0.000 NA
ATOM      4  C   UNL     1       7.298  -1.087   0.202  0.00  0.00    +0.000 A 
ATOM      5  N   UNL     1       8.665  -0.953   0.075  0.00  0.00    +0.000 N 
ATOM      6  N   UNL     1       6.676  -2.143  -0.342  0.00  0.00    +0.000 NA
ATOM      7  C   UNL     1       5.327  -2.172  -0.271  0.00  0.00    +0.000 A 
ATOM      8  H   UNL     1       8.976  -0.232   0.715  0.00  0.00    +0.000 HD
ENDROOT
BRANCH   1   9
ATOM      9  C   UNL     1       3.108  -1.205   0.397  0.00  0.00    +0.000 C 
ATOM     10  O   UNL     1       2.448  -0.319   0.911  0.00  0.00    +0.000 OA
BRANCH   9  12
ATOM     11  C   UNL     1       1.208  -2.459  -0.170  0.00  0.00    +0.000 C 
ATOM     12  O   UNL     1       2.631  -2.331  -0.186  0.00  0.00    +0.000 OA
ENDBRANCH   9  12
ENDBRANCH   1   9
BRANCH   5  13
ATOM     13  C   UNL     1       9.438  -2.177   0.082  0.00  0.00    +0.000 C 
BRANCH  13  14
ATOM     14  C   UNL     1      10.738  -1.954  -0.643  0.00  0.00    +0.000 A 
ATOM     15  C   UNL     1      10.758  -1.547  -1.983  0.00  0.00    +0.000 A 
ATOM     16  C   UNL     1      11.971  -1.386  -2.642  0.00  0.00    +0.000 A 
ATOM     17  C   UNL     1      13.135  -1.643  -1.939  0.00  0.00    +0.000 A 
ATOM     18  N   UNL     1      13.161  -2.044  -0.649  0.00  0.00    +0.000 NA
ATOM     19  C   UNL     1      11.964  -2.192  -0.034  0.00  0.00    +0.000 A 
ENDBRANCH  13  14
ENDBRANCH   5  13
TORSDOF 4
