REMARK  Name = 
REMARK  6 active torsions:
REMARK  status: ('A' for Active; 'I' for Inactive)
REMARK    1  A    between atoms: C_1  and  C_2
REMARK    2  A    between atoms: C_2  and  C_3
REMARK    3  A    between atoms: C_2  and  C_14
REMARK    4  A    between atoms: C_3  and  N_4
REMARK    5  A    between atoms: C_8  and  C_9
REMARK    6  A    between atoms: C_18  and  C_19
REMARK                            x       y       z     vdW  Elec       q    Type
REMARK                         _______ _______ _______ _____ _____    ______ ____
ROOT
ATOM      1  C   UNL     1       2.914  -1.495   0.241  0.00  0.00    +0.000 C 
ENDROOT
BRANCH   1   2
ATOM      2  N   UNL     1       2.373  -2.694  -0.395  0.00  0.00    +0.000 N 
ATOM      3  C   UNL     1       2.989  -3.877   0.049  0.00  0.00    +0.000 A 
ATOM      4  C   UNL     1       2.591  -5.120  -0.468  0.00  0.00    +0.000 A 
ATOM      5  N   UNL     1       3.122  -6.314  -0.084  0.00  0.00    +0.000 NA
ATOM      6  C   UNL     1       4.085  -6.214   0.874  0.00  0.00    +0.000 A 
ATOM      7  C   UNL     1       4.483  -4.999   1.402  0.00  0.00    +0.000 A 
ATOM      8  N   UNL     1       3.942  -3.821   1.005  0.00  0.00    +0.000 NA
ATOM      9  H   UNL     1       2.443  -2.636  -1.408  0.00  0.00    +0.000 HD
BRANCH   6  10
ATOM     10  C   UNL     1       4.727  -7.461   1.367  0.00  0.00    +0.000 C 
ATOM     11  N   UNL     1       4.266  -8.630   0.829  0.00  0.00    +0.000 N 
ATOM     12  O   UNL     1       5.615  -7.449   2.211  0.00  0.00    +0.000 OA
ATOM     13  H   UNL     1       3.521  -8.617   0.141  0.00  0.00    +0.000 HD
ATOM     14  H   UNL     1       4.658  -9.505   1.144  0.00  0.00    +0.000 HD
ENDBRANCH   6  10
ENDBRANCH   1   2
BRANCH   1  16
ATOM     15  C   UNL     1       0.780  -0.074   0.015  0.00  0.00    +0.000 C 
ATOM     16  C   UNL     1       2.211  -0.314  -0.353  0.00  0.00    +0.000 C 
BRANCH  16  17
ATOM     17  C   UNL     1       2.826   0.445  -1.448  0.00  0.00    +0.000 A 
ATOM     18  C   UNL     1       4.161   0.863  -1.404  0.00  0.00    +0.000 A 
ATOM     19  C   UNL     1       4.720   1.577  -2.470  0.00  0.00    +0.000 A 
ATOM     20  C   UNL     1       3.955   1.867  -3.599  0.00  0.00    +0.000 A 
ATOM     21  C   UNL     1       2.621   1.450  -3.670  0.00  0.00    +0.000 A 
ATOM     22  C   UNL     1       2.067   0.756  -2.583  0.00  0.00    +0.000 A 
BRANCH  21  23
ATOM     23  C   UNL     1       1.769   1.700  -4.888  0.00  0.00    +0.000 C 
ATOM     24  F   UNL     1       2.410   2.378  -5.879  0.00  0.00    +0.000 F 
ATOM     25  F   UNL     1       1.331   0.539  -5.452  0.00  0.00    +0.000 F 
ATOM     26  F   UNL     1       0.648   2.419  -4.603  0.00  0.00    +0.000 F 
ENDBRANCH  21  23
ENDBRANCH  16  17
ENDBRANCH   1  16
TORSDOF 5
