REMARK  Name = 
REMARK  4 active torsions:
REMARK  status: ('A' for Active; 'I' for Inactive)
REMARK    1  A    between atoms: C_2  and  C_4
REMARK    2  A    between atoms: C_7  and  N_8
REMARK    3  A    between atoms: N_8  and  C_9
REMARK    4  A    between atoms: C_9  and  C_10
REMARK                            x       y       z     vdW  Elec       q    Type
REMARK                         _______ _______ _______ _____ _____    ______ ____
ROOT
ATOM      1  C   UNL     1       3.217  -1.065   0.948  0.00  0.00    +0.000 A 
ATOM      2  C   UNL     1       3.559  -0.114   1.891  0.00  0.00    +0.000 A 
ATOM      3  N   UNL     1       4.108  -0.448   3.090  0.00  0.00    +0.000 NA
ATOM      4  C   UNL     1       4.272  -1.763   3.344  0.00  0.00    +0.000 A 
ATOM      5  C   UNL     1       3.955  -2.702   2.354  0.00  0.00    +0.000 A 
ATOM      6  N   UNL     1       3.418  -2.396   1.147  0.00  0.00    +0.000 NA
ENDROOT
BRANCH   1   8
ATOM      7  N   UNL     1       2.242  -1.692  -1.170  0.00  0.00    +0.000 N 
ATOM      8  C   UNL     1       2.600  -0.661  -0.343  0.00  0.00    +0.000 C 
ATOM      9  O   UNL     1       2.417   0.509  -0.650  0.00  0.00    +0.000 OA
ATOM     10  H   UNL     1       1.808  -1.494  -2.062  0.00  0.00    +0.000 HD
ATOM     11  H   UNL     1       2.396  -2.651  -0.876  0.00  0.00    +0.000 HD
ENDBRANCH   1   8
BRANCH   4  12
ATOM     12  N   UNL     1       4.805  -2.083   4.584  0.00  0.00    +0.000 N 
ATOM     13  H   UNL     1       5.798  -1.857   4.586  0.00  0.00    +0.000 HD
BRANCH  12  14
ATOM     14  C   UNL     1       4.526  -3.397   5.132  0.00  0.00    +0.000 C 
BRANCH  14  15
ATOM     15  C   UNL     1       4.671  -3.372   6.635  0.00  0.00    +0.000 A 
ATOM     16  C   UNL     1       3.886  -2.495   7.403  0.00  0.00    +0.000 A 
ATOM     17  C   UNL     1       3.968  -2.500   8.796  0.00  0.00    +0.000 A 
ATOM     18  C   UNL     1       4.837  -3.383   9.431  0.00  0.00    +0.000 A 
ATOM     19 CL   UNL     1       4.938  -3.397  11.149  0.00  0.00    +0.000 Cl
ATOM     20  C   UNL     1       5.623  -4.259   8.685  0.00  0.00    +0.000 A 
ATOM     21  C   UNL     1       5.540  -4.255   7.290  0.00  0.00    +0.000 A 
ENDBRANCH  14  15
ENDBRANCH  12  14
ENDBRANCH   4  12
TORSDOF 4
