REMARK  Name = 
REMARK  6 active torsions:
REMARK  status: ('A' for Active; 'I' for Inactive)
REMARK    1  A    between atoms: C_2  and  C_25
REMARK    2  A    between atoms: N_3  and  C_4
REMARK    3  A    between atoms: C_4  and  C_5
REMARK    4  A    between atoms: C_8  and  C_9
REMARK    5  A    between atoms: C_9  and  N_10
REMARK    6  A    between atoms: C_11  and  C_13
REMARK                            x       y       z     vdW  Elec       q    Type
REMARK                         _______ _______ _______ _____ _____    ______ ____
ROOT
ATOM      1  C   UNL     1       3.249   2.483  -2.882  0.00  0.00    +0.000 C 
ATOM      2  C   UNL     1       4.672   1.944  -2.658  0.00  0.00    +0.000 C 
ATOM      3  C   UNL     1       5.771   2.876  -3.172  0.00  0.00    +0.000 C 
ATOM      4  C   UNL     1       5.640   4.325  -2.669  0.00  0.00    +0.000 C 
ATOM      5  C   UNL     1       4.225   4.850  -2.953  0.00  0.00    +0.000 C 
ATOM      6  C   UNL     1       3.130   3.938  -2.396  0.00  0.00    +0.000 C 
ENDROOT
BRANCH   1   7
ATOM      7  C   UNL     1       2.789   2.359  -4.348  0.00  0.00    +0.000 C 
BRANCH   7  10
ATOM      8  O   UNL     1       0.533   0.680  -3.926  0.00  0.00    +0.000 OA
ATOM      9  C   UNL     1       1.510   0.242  -4.529  0.00  0.00    +0.000 C 
ATOM     10  N   UNL     1       2.642   0.985  -4.775  0.00  0.00    +0.000 N 
ATOM     11  H   UNL     1       3.386   0.514  -5.282  0.00  0.00    +0.000 HD
BRANCH   9  12
ATOM     12  C   UNL     1       1.560  -1.103  -5.066  0.00  0.00    +0.000 A 
ATOM     13  N   UNL     1       2.614  -1.664  -5.638  0.00  0.00    +0.000 NA
ATOM     14  C   UNL     1       2.200  -2.920  -6.011  0.00  0.00    +0.000 A 
ATOM     15  C   UNL     1       0.882  -3.122  -5.677  0.00  0.00    +0.000 A 
ATOM     16  N   UNL     1       0.493  -1.967  -5.060  0.00  0.00    +0.000 N 
ATOM     17  H   UNL     1      -0.417  -1.745  -4.678  0.00  0.00    +0.000 HD
ENDBRANCH   9  12
ENDBRANCH   7  10
ENDBRANCH   1   7
BRANCH   4  18
ATOM     18  C   UNL     1       5.987   4.494  -1.179  0.00  0.00    +0.000 C 
BRANCH  18  19
ATOM     19  N   UNL     1       7.331   4.076  -0.862  0.00  0.00    +0.000 N 
ATOM     20  C   UNL     1       8.425   4.902  -0.907  0.00  0.00    +0.000 C 
ATOM     21  O   UNL     1       8.381   6.044  -1.350  0.00  0.00    +0.000 OA
ATOM     22  H   UNL     1       7.409   3.181  -0.386  0.00  0.00    +0.000 HD
BRANCH  20  23
ATOM     23  C   UNL     1       9.677   4.310  -0.413  0.00  0.00    +0.000 A 
ATOM     24  C   UNL     1      10.902   4.778  -0.864  0.00  0.00    +0.000 A 
ATOM     25  S   UNL     1      12.236   3.954  -0.190  0.00  0.00    +0.000 S 
ATOM     26  C   UNL     1      11.224   2.980   0.770  0.00  0.00    +0.000 A 
ATOM     27  N   UNL     1      11.740   2.059   1.628  0.00  0.00    +0.000 NA
ATOM     28  C   UNL     1      10.856   1.426   2.327  0.00  0.00    +0.000 A 
ATOM     29  N   UNL     1       9.505   1.622   2.239  0.00  0.00    +0.000 N 
ATOM     30  C   UNL     1       8.936   2.480   1.333  0.00  0.00    +0.000 A 
ATOM     31  O   UNL     1       7.718   2.526   1.186  0.00  0.00    +0.000 OA
ATOM     32  C   UNL     1       9.885   3.257   0.556  0.00  0.00    +0.000 A 
ATOM     33  H   UNL     1       8.862   1.073   2.793  0.00  0.00    +0.000 HD
ENDBRANCH  20  23
ENDBRANCH  18  19
ENDBRANCH   4  18
TORSDOF 6
