REMARK  Name = 
REMARK  6 active torsions:
REMARK  status: ('A' for Active; 'I' for Inactive)
REMARK    1  A    between atoms: C_2  and  C_20
REMARK    2  A    between atoms: N_3  and  C_4
REMARK    3  A    between atoms: C_4  and  C_5
REMARK    4  A    between atoms: C_8  and  C_9
REMARK    5  A    between atoms: C_9  and  N_10
REMARK    6  A    between atoms: C_11  and  C_13
REMARK                            x       y       z     vdW  Elec       q    Type
REMARK                         _______ _______ _______ _____ _____    ______ ____
ROOT
ATOM      1  C   UNL     1       2.340  -1.748  -1.700  0.00  0.00    +0.000 C 
ENDROOT
BRANCH   1   2
ATOM      2  C   UNL     1       3.317  -2.610  -2.461  0.00  0.00    +0.000 A 
ATOM      3  C   UNL     1       4.406  -2.035  -3.129  0.00  0.00    +0.000 A 
ATOM      4  C   UNL     1       5.301  -2.830  -3.855  0.00  0.00    +0.000 A 
ATOM      5  C   UNL     1       5.112  -4.215  -3.947  0.00  0.00    +0.000 A 
ATOM      6  C   UNL     1       4.018  -4.789  -3.286  0.00  0.00    +0.000 A 
ATOM      7  C   UNL     1       3.124  -3.994  -2.559  0.00  0.00    +0.000 A 
BRANCH   5   8
ATOM      8  C   UNL     1       6.059  -5.071  -4.749  0.00  0.00    +0.000 C 
BRANCH   8   9
ATOM      9  N   UNL     1       7.140  -5.597  -3.954  0.00  0.00    +0.000 N 
ATOM     10  C   UNL     1       8.062  -6.470  -4.488  0.00  0.00    +0.000 C 
ATOM     11  O   UNL     1       8.003  -6.888  -5.642  0.00  0.00    +0.000 OA
ATOM     12  H   UNL     1       7.318  -5.243  -3.018  0.00  0.00    +0.000 HD
BRANCH  10  13
ATOM     13  C   UNL     1       9.181  -6.878  -3.518  0.00  0.00    +0.000 C 
ATOM     14  C   UNL     1       9.267  -8.390  -3.373  0.00  0.00    +0.000 C 
ATOM     15  C   UNL     1       9.807  -8.554  -1.976  0.00  0.00    +0.000 C 
ATOM     16  C   UNL     1       9.140  -7.411  -1.247  0.00  0.00    +0.000 C 
ATOM     17  O   UNL     1       9.006  -6.342  -2.193  0.00  0.00    +0.000 OA
ENDBRANCH  10  13
ENDBRANCH   8   9
ENDBRANCH   5   8
ENDBRANCH   1   2
BRANCH   1  20
ATOM     18  O   UNL     1       0.077  -0.333  -0.874  0.00  0.00    +0.000 OA
ATOM     19  C   UNL     1       0.206  -0.586  -2.067  0.00  0.00    +0.000 C 
ATOM     20  N   UNL     1       1.247  -1.336  -2.548  0.00  0.00    +0.000 N 
ATOM     21  H   UNL     1       1.434  -1.347  -3.546  0.00  0.00    +0.000 HD
BRANCH  19  22
ATOM     22  C   UNL     1      -0.779  -0.142  -3.061  0.00  0.00    +0.000 A 
ATOM     23  C   UNL     1      -2.079   0.153  -2.669  0.00  0.00    +0.000 A 
ATOM     24  S   UNL     1      -3.096   0.612  -3.959  0.00  0.00    +0.000 S 
ATOM     25  C   UNL     1      -1.825   0.479  -5.083  0.00  0.00    +0.000 A 
ATOM     26  N   UNL     1      -2.020   0.762  -6.399  0.00  0.00    +0.000 NA
ATOM     27  C   UNL     1      -0.961   0.648  -7.131  0.00  0.00    +0.000 A 
ATOM     28  N   UNL     1       0.273   0.276  -6.665  0.00  0.00    +0.000 N 
ATOM     29  C   UNL     1       0.508  -0.043  -5.350  0.00  0.00    +0.000 A 
ATOM     30  O   UNL     1       1.620  -0.410  -4.977  0.00  0.00    +0.000 OA
ATOM     31  C   UNL     1      -0.645   0.075  -4.483  0.00  0.00    +0.000 A 
ATOM     32  H   UNL     1       1.062   0.199  -7.291  0.00  0.00    +0.000 HD
ENDBRANCH  19  22
ENDBRANCH   1  20
TORSDOF 6
