REMARK  Name = 
REMARK  7 active torsions:
REMARK  status: ('A' for Active; 'I' for Inactive)
REMARK    1  A    between atoms: C_1  and  N_2
REMARK    2  A    between atoms: C_8  and  C_9
REMARK    3  A    between atoms: N_11  and  C_12
REMARK    4  A    between atoms: C_12  and  C_13
REMARK    5  A    between atoms: C_16  and  N_17
REMARK    6  A    between atoms: N_17  and  C_18
REMARK    7  A    between atoms: C_18  and  C_19
REMARK                            x       y       z     vdW  Elec       q    Type
REMARK                         _______ _______ _______ _____ _____    ______ ____
ROOT
ATOM      1  C   UNL     1       6.206  -5.886  -0.014  0.00  0.00    +0.000 C 
ENDROOT
BRANCH   1   2
ATOM      2  C   UNL     1       7.522  -6.623   0.010  0.00  0.00    +0.000 A 
ATOM      3  C   UNL     1       7.564  -8.021  -0.001  0.00  0.00    +0.000 A 
ATOM      4  C   UNL     1       8.791  -8.701  -0.052  0.00  0.00    +0.000 A 
ATOM      5  C   UNL     1      10.001  -8.003  -0.086  0.00  0.00    +0.000 A 
ATOM      6  C   UNL     1       9.950  -6.609   0.032  0.00  0.00    +0.000 A 
ATOM      7  C   UNL     1       8.731  -5.923   0.067  0.00  0.00    +0.000 A 
BRANCH   5   8
ATOM      8  N   UNL     1      11.262  -8.597  -0.172  0.00  0.00    +0.000 N 
ATOM      9  H   UNL     1      11.751  -8.536   0.721  0.00  0.00    +0.000 HD
BRANCH   8  10
ATOM     10  C   UNL     1      11.392  -9.941  -0.749  0.00  0.00    +0.000 C 
BRANCH  10  11
ATOM     11  C   UNL     1      12.856 -10.369  -0.678  0.00  0.00    +0.000 C 
ATOM     12  N   UNL     1      13.217 -11.629  -0.728  0.00  0.00    +0.000 NA
ATOM     13  C   UNL     1      14.707 -11.572  -0.638  0.00  0.00    +0.000 C 
ATOM     14  C   UNL     1      15.100 -10.123  -0.946  0.00  0.00    +0.000 C 
ATOM     15  N   UNL     1      13.875  -9.443  -0.606  0.00  0.00    +0.000 N 
ATOM     16  H   UNL     1      13.673  -8.539  -1.023  0.00  0.00    +0.000 HD
ENDBRANCH  10  11
ENDBRANCH   8  10
ENDBRANCH   5   8
ENDBRANCH   1   2
BRANCH   1  19
ATOM     17  C   UNL     1       4.494  -5.057   1.532  0.00  0.00    +0.000 C 
ATOM     18  O   UNL     1       3.732  -4.753   0.620  0.00  0.00    +0.000 OA
ATOM     19  N   UNL     1       5.685  -5.706   1.315  0.00  0.00    +0.000 N 
ATOM     20  H   UNL     1       6.367  -5.728   2.063  0.00  0.00    +0.000 HD
BRANCH  17  28
ATOM     21  C   UNL     1       8.405  -4.301   5.607  0.00  0.00    +0.000 C 
ATOM     22  N   UNL     1       6.967  -4.345   5.450  0.00  0.00    +0.000 N 
ATOM     23  C   UNL     1       6.131  -4.192   6.534  0.00  0.00    +0.000 A 
ATOM     24  N   UNL     1       4.836  -4.214   6.493  0.00  0.00    +0.000 NA
ATOM     25  C   UNL     1       4.316  -4.407   5.255  0.00  0.00    +0.000 A 
ATOM     26  S   UNL     1       2.633  -4.429   5.004  0.00  0.00    +0.000 S 
ATOM     27  C   UNL     1       2.829  -4.681   3.327  0.00  0.00    +0.000 A 
ATOM     28  C   UNL     1       4.156  -4.793   2.937  0.00  0.00    +0.000 A 
ATOM     29  C   UNL     1       5.017  -4.597   4.081  0.00  0.00    +0.000 A 
ATOM     30  C   UNL     1       6.467  -4.555   4.170  0.00  0.00    +0.000 A 
ATOM     31  O   UNL     1       7.191  -4.709   3.190  0.00  0.00    +0.000 OA
ENDBRANCH  17  28
ENDBRANCH   1  19
TORSDOF 6
