REMARK  Name = 
REMARK  10 active torsions:
REMARK  status: ('A' for Active; 'I' for Inactive)
REMARK    1  A    between atoms: C_1  and  O_2
REMARK    2  A    between atoms: O_2  and  C_3
REMARK    3  A    between atoms: C_10  and  C_11
REMARK    4  A    between atoms: N_13  and  C_14
REMARK    5  A    between atoms: C_14  and  C_15
REMARK    6  A    between atoms: C_18  and  C_19
REMARK    7  A    between atoms: C_19  and  N_20
REMARK    8  A    between atoms: N_20  and  C_21
REMARK    9  A    between atoms: C_21  and  C_22
REMARK   10  A    between atoms: C_21  and  C_23
REMARK                            x       y       z     vdW  Elec       q    Type
REMARK                         _______ _______ _______ _____ _____    ______ ____
ROOT
ATOM      1  C   UNL     1      -2.183   1.555 -10.482  0.00  0.00    +0.000 A 
ATOM      2  C   UNL     1      -3.216   1.737  -9.552  0.00  0.00    +0.000 A 
ATOM      3  C   UNL     1      -3.185   1.085  -8.308  0.00  0.00    +0.000 A 
ATOM      4  C   UNL     1      -2.107   0.258  -7.960  0.00  0.00    +0.000 A 
ATOM      5  C   UNL     1      -1.047   0.132  -8.871  0.00  0.00    +0.000 A 
ATOM      6  C   UNL     1      -1.082   0.774 -10.111  0.00  0.00    +0.000 A 
ENDROOT
BRANCH   1   7
ATOM      7  C   UNL     1      -2.237   2.190 -11.850  0.00  0.00    +0.000 C 
BRANCH   7  10
ATOM      8  C   UNL     1      -1.531   4.262 -12.983  0.00  0.00    +0.000 C 
ATOM      9  O   UNL     1      -2.008   3.885 -14.048  0.00  0.00    +0.000 OA
ATOM     10  N   UNL     1      -1.605   3.483 -11.856  0.00  0.00    +0.000 N 
ATOM     11  H   UNL     1      -1.162   3.784 -11.002  0.00  0.00    +0.000 HD
BRANCH   8  19
ATOM     12  C   UNL     1      -0.062   5.914 -10.346  0.00  0.00    +0.000 A 
ATOM     13  N   UNL     1       0.582   6.755  -9.515  0.00  0.00    +0.000 NA
ATOM     14  C   UNL     1       1.029   7.910 -10.013  0.00  0.00    +0.000 A 
ATOM     15  N   UNL     1       0.911   8.341 -11.266  0.00  0.00    +0.000 NA
ATOM     16  C   UNL     1       0.276   7.468 -12.065  0.00  0.00    +0.000 A 
ATOM     17  S   UNL     1       0.035   7.851 -13.701  0.00  0.00    +0.000 S 
ATOM     18  C   UNL     1      -0.756   6.373 -13.983  0.00  0.00    +0.000 A 
ATOM     19  C   UNL     1      -0.855   5.564 -12.856  0.00  0.00    +0.000 A 
ATOM     20  C   UNL     1      -0.240   6.226 -11.707  0.00  0.00    +0.000 A 
BRANCH  12  22
ATOM     21  C   UNL     1      -0.757   4.761  -8.432  0.00  0.00    +0.000 C 
ATOM     22  O   UNL     1      -0.506   4.714  -9.835  0.00  0.00    +0.000 OA
ENDBRANCH  12  22
ENDBRANCH   8  19
ENDBRANCH   7  10
ENDBRANCH   1   7
BRANCH   4  23
ATOM     23  C   UNL     1      -2.029  -0.452  -6.621  0.00  0.00    +0.000 C 
BRANCH  23  24
ATOM     24  N   UNL     1      -3.122  -1.410  -6.430  0.00  0.00    +0.000 NA
ATOM     25  H   UNL     1      -3.101  -2.076  -7.200  0.00  0.00    +0.000 HD
BRANCH  24  26
ATOM     26  C   UNL     1      -3.034  -2.151  -5.150  0.00  0.00    +0.000 C 
ATOM     27  C   UNL     1      -3.327  -1.247  -3.943  0.00  0.00    +0.000 C 
BRANCH  26  28
ATOM     28  C   UNL     1      -1.751  -2.966  -4.943  0.00  0.00    +0.000 A 
ATOM     29  C   UNL     1      -1.623  -4.235  -5.509  0.00  0.00    +0.000 A 
ATOM     30  C   UNL     1      -0.485  -4.991  -5.229  0.00  0.00    +0.000 A 
ATOM     31  C   UNL     1       0.508  -4.457  -4.417  0.00  0.00    +0.000 A 
ATOM     32  C   UNL     1       0.332  -3.175  -3.934  0.00  0.00    +0.000 A 
ATOM     33  N   UNL     1      -0.763  -2.422  -4.183  0.00  0.00    +0.000 NA
ENDBRANCH  26  28
ENDBRANCH  24  26
ENDBRANCH  23  24
ENDBRANCH   4  23
TORSDOF 8
