REMARK  Name = 
REMARK  7 active torsions:
REMARK  status: ('A' for Active; 'I' for Inactive)
REMARK    1  A    between atoms: N_1  and  C_2
REMARK    2  A    between atoms: C_2  and  C_3
REMARK    3  A    between atoms: C_7  and  O_8
REMARK    4  A    between atoms: O_8  and  C_9
REMARK    5  A    between atoms: C_9  and  C_10
REMARK    6  A    between atoms: C_10  and  C_11
REMARK    7  A    between atoms: C_15  and  C_16
REMARK                            x       y       z     vdW  Elec       q    Type
REMARK                         _______ _______ _______ _____ _____    ______ ____
ROOT
ATOM      1  C   UNL     1       2.734  -6.028  -0.699  0.00  0.00    +0.000 C 
ENDROOT
BRANCH   1   2
ATOM      2  O   UNL     1       2.027  -4.805  -0.463  0.00  0.00    +0.000 OA
BRANCH   2   7
ATOM      3  C   UNL     1       2.430  -1.234  -1.101  0.00  0.00    +0.000 A 
ATOM      4  C   UNL     1       3.527  -1.221  -1.973  0.00  0.00    +0.000 A 
ATOM      5  C   UNL     1       4.141  -2.412  -2.356  0.00  0.00    +0.000 A 
ATOM      6  C   UNL     1       3.671  -3.632  -1.869  0.00  0.00    +0.000 A 
ATOM      7  C   UNL     1       2.580  -3.670  -0.999  0.00  0.00    +0.000 A 
ATOM      8  C   UNL     1       1.965  -2.471  -0.622  0.00  0.00    +0.000 A 
BRANCH   3   9
ATOM      9  C   UNL     1       1.796   0.060  -0.659  0.00  0.00    +0.000 C 
BRANCH   9  10
ATOM     10  N   UNL     1       1.317   0.846  -1.791  0.00  0.00    +0.000 NA
ATOM     11  H   UNL     1       0.851   1.682  -1.444  0.00  0.00    +0.000 HD
ATOM     12  H   UNL     1       0.611   0.305  -2.289  0.00  0.00    +0.000 HD
ENDBRANCH   9  10
ENDBRANCH   3   9
ENDBRANCH   2   7
ENDBRANCH   1   2
BRANCH   1  13
ATOM     13  C   UNL     1       2.028  -7.184   0.003  0.00  0.00    +0.000 C 
BRANCH  13  14
ATOM     14  C   UNL     1       2.141  -7.095   1.503  0.00  0.00    +0.000 A 
ATOM     15  C   UNL     1       1.140  -6.478   2.246  0.00  0.00    +0.000 A 
ATOM     16  C   UNL     1       1.274  -6.411   3.627  0.00  0.00    +0.000 A 
ATOM     17  C   UNL     1       2.404  -6.952   4.230  0.00  0.00    +0.000 A 
ATOM     18  C   UNL     1       3.379  -7.555   3.433  0.00  0.00    +0.000 A 
ATOM     19  N   UNL     1       3.248  -7.627   2.075  0.00  0.00    +0.000 NA
BRANCH  18  20
ATOM     20  C   UNL     1       4.620  -8.153   4.084  0.00  0.00    +0.000 C 
ATOM     21  F   UNL     1       4.629  -8.026   5.447  0.00  0.00    +0.000 F 
ATOM     22  F   UNL     1       4.758  -9.488   3.849  0.00  0.00    +0.000 F 
ATOM     23  F   UNL     1       5.781  -7.573   3.662  0.00  0.00    +0.000 F 
ENDBRANCH  18  20
ENDBRANCH  13  14
ENDBRANCH   1  13
TORSDOF 7
