REMARK  Name = 
REMARK  6 active torsions:
REMARK  status: ('A' for Active; 'I' for Inactive)
REMARK    1  A    between atoms: C_2  and  C_4
REMARK    2  A    between atoms: C_7  and  N_8
REMARK    3  A    between atoms: N_8  and  C_9
REMARK    4  A    between atoms: C_9  and  C_10
REMARK    5  A    between atoms: C_10  and  C_13
REMARK    6  A    between atoms: C_15  and  C_16
REMARK                            x       y       z     vdW  Elec       q    Type
REMARK                         _______ _______ _______ _____ _____    ______ ____
ROOT
ATOM      1  C   UNL     1       5.751  -3.858  -6.158  0.00  0.00    +0.000 C 
ATOM      2  F   UNL     1       7.075  -3.540  -6.023  0.00  0.00    +0.000 F 
ATOM      3  F   UNL     1       5.632  -5.112  -5.612  0.00  0.00    +0.000 F 
ENDROOT
BRANCH   1   4
ATOM      4  C   UNL     1       5.314  -3.838  -7.617  0.00  0.00    +0.000 A 
ATOM      5  C   UNL     1       5.957  -4.683  -8.526  0.00  0.00    +0.000 A 
ATOM      6  C   UNL     1       5.550  -4.721  -9.868  0.00  0.00    +0.000 A 
ATOM      7  C   UNL     1       4.508  -3.861 -10.239  0.00  0.00    +0.000 A 
ATOM      8  C   UNL     1       3.928  -3.039  -9.290  0.00  0.00    +0.000 A 
ATOM      9  N   UNL     1       4.300  -3.015  -7.998  0.00  0.00    +0.000 NA
BRANCH   6  10
ATOM     10  C   UNL     1       6.173  -5.647 -10.844  0.00  0.00    +0.000 A 
ATOM     11  C   UNL     1       6.651  -6.912 -10.449  0.00  0.00    +0.000 A 
ATOM     12  C   UNL     1       7.215  -7.804 -11.367  0.00  0.00    +0.000 A 
ATOM     13  C   UNL     1       7.301  -7.456 -12.711  0.00  0.00    +0.000 A 
ATOM     14  C   UNL     1       6.834  -6.214 -13.126  0.00  0.00    +0.000 A 
ATOM     15 CL   UNL     1       6.918  -5.784 -14.791  0.00  0.00    +0.000 Cl
ATOM     16  C   UNL     1       6.287  -5.315 -12.207  0.00  0.00    +0.000 A 
ENDBRANCH   6  10
ENDBRANCH   1   4
BRANCH   1  17
ATOM     17  C   UNL     1       4.903  -2.885  -5.307  0.00  0.00    +0.000 C 
BRANCH  17  18
ATOM     18  N   UNL     1       5.272  -2.861  -3.879  0.00  0.00    +0.000 N 
ATOM     19  H   UNL     1       5.514  -3.772  -3.492  0.00  0.00    +0.000 HD
BRANCH  18  23
ATOM     20  C   UNL     1       3.362  -0.292  -1.133  0.00  0.00    +0.000 A 
ATOM     21  C   UNL     1       2.950  -0.296  -2.466  0.00  0.00    +0.000 A 
ATOM     22  C   UNL     1       3.562  -1.156  -3.385  0.00  0.00    +0.000 A 
ATOM     23  C   UNL     1       4.570  -2.047  -2.991  0.00  0.00    +0.000 A 
ATOM     24  C   UNL     1       4.984  -2.013  -1.654  0.00  0.00    +0.000 A 
ATOM     25  C   UNL     1       4.394  -1.143  -0.731  0.00  0.00    +0.000 A 
BRANCH  20  27
ATOM     26  N   UNL     1       1.458   0.997  -0.339  0.00  0.00    +0.000 N 
ATOM     27  C   UNL     1       2.758   0.623  -0.133  0.00  0.00    +0.000 C 
ATOM     28  O   UNL     1       3.375   1.001   0.855  0.00  0.00    +0.000 OA
ATOM     29  H   UNL     1       1.024   1.527   0.406  0.00  0.00    +0.000 HD
ATOM     30  H   UNL     1       0.855   0.511  -0.983  0.00  0.00    +0.000 HD
ENDBRANCH  20  27
ENDBRANCH  18  23
ENDBRANCH  17  18
ENDBRANCH   1  17
TORSDOF 6
