REMARK  Name = 
REMARK  4 active torsions:
REMARK  status: ('A' for Active; 'I' for Inactive)
REMARK    1  A    between atoms: C_1  and  C_2
REMARK    2  A    between atoms: N_6  and  C_7
REMARK    3  A    between atoms: C_7  and  C_8
REMARK    4  A    between atoms: C_12  and  C_13
REMARK                            x       y       z     vdW  Elec       q    Type
REMARK                         _______ _______ _______ _____ _____    ______ ____
ROOT
ATOM      1  C   UNL     1       5.287  -0.974  -0.100  0.00  0.00    +0.000 A 
ATOM      2  C   UNL     1       5.805   0.319  -0.212  0.00  0.00    +0.000 A 
ATOM      3  C   UNL     1       7.178   0.529  -0.115  0.00  0.00    +0.000 A 
ATOM      4  C   UNL     1       8.042  -0.549   0.104  0.00  0.00    +0.000 A 
ATOM      5  C   UNL     1       7.559  -1.863   0.237  0.00  0.00    +0.000 A 
ATOM      6  C   UNL     1       6.171  -2.051   0.100  0.00  0.00    +0.000 A 
ENDROOT
BRANCH   5   7
ATOM      7  C   UNL     1       8.456  -2.993   0.584  0.00  0.00    +0.000 A 
ATOM      8  C   UNL     1       9.549  -2.810   1.454  0.00  0.00    +0.000 A 
ATOM      9  C   UNL     1      10.363  -3.878   1.844  0.00  0.00    +0.000 A 
ATOM     10  C   UNL     1      10.099  -5.161   1.380  0.00  0.00    +0.000 A 
ATOM     11  C   UNL     1       9.032  -5.372   0.512  0.00  0.00    +0.000 A 
ATOM     12  C   UNL     1       8.227  -4.299   0.113  0.00  0.00    +0.000 A 
ENDBRANCH   5   7
BRANCH   1  13
ATOM     13  C   UNL     1       3.797  -1.223  -0.133  0.00  0.00    +0.000 C 
BRANCH  13  19
ATOM     14  C   UNL     1      -2.191  -2.298  -1.767  0.00  0.00    +0.000 C 
ATOM     15  C   UNL     1      -0.718  -2.093  -1.710  0.00  0.00    +0.000 A 
ATOM     16  C   UNL     1       0.006  -1.471  -2.703  0.00  0.00    +0.000 A 
ATOM     17  N   UNL     1       1.338  -1.256  -2.644  0.00  0.00    +0.000 NA
ATOM     18  C   UNL     1       1.975  -1.698  -1.553  0.00  0.00    +0.000 A 
ATOM     19  N   UNL     1       3.344  -1.459  -1.488  0.00  0.00    +0.000 N 
ATOM     20  N   UNL     1       1.361  -2.324  -0.538  0.00  0.00    +0.000 NA
ATOM     21  C   UNL     1       0.032  -2.514  -0.639  0.00  0.00    +0.000 A 
ATOM     22  H   UNL     1       3.545  -0.719  -2.150  0.00  0.00    +0.000 HD
ENDBRANCH  13  19
ENDBRANCH   1  13
TORSDOF 3
