REMARK  Name = 
REMARK  6 active torsions:
REMARK  status: ('A' for Active; 'I' for Inactive)
REMARK    1  A    between atoms: C_2  and  C_3
REMARK    2  A    between atoms: C_6  and  C_7
REMARK    3  A    between atoms: C_11  and  C_12
REMARK    4  A    between atoms: C_12  and  N_13
REMARK    5  A    between atoms: N_13  and  C_14
REMARK    6  A    between atoms: C_17  and  C_18
REMARK                            x       y       z     vdW  Elec       q    Type
REMARK                         _______ _______ _______ _____ _____    ______ ____
ROOT
ATOM      1  C   UNL     1       6.898  -1.218  -1.580  0.00  0.00    +0.000 C 
ATOM      2  C   UNL     1       7.107  -0.836  -3.035  0.00  0.00    +0.000 C 
ATOM      3  C   UNL     1       6.364  -2.083  -2.727  0.00  0.00    +0.000 C 
ATOM      4  F   UNL     1       7.005  -3.288  -2.966  0.00  0.00    +0.000 F 
ENDROOT
BRANCH   1   9
ATOM      5  C   UNL     1       4.898   1.602   0.130  0.00  0.00    +0.000 A 
ATOM      6  C   UNL     1       3.836   0.817   0.587  0.00  0.00    +0.000 A 
ATOM      7  N   UNL     1       3.747  -0.525   0.454  0.00  0.00    +0.000 NA
ATOM      8  C   UNL     1       4.759  -1.130  -0.204  0.00  0.00    +0.000 A 
ATOM      9  C   UNL     1       5.846  -0.473  -0.774  0.00  0.00    +0.000 A 
ATOM     10  C   UNL     1       5.908   0.912  -0.556  0.00  0.00    +0.000 A 
BRANCH   5  14
ATOM     11  C   UNL     1       5.094   5.858   0.820  0.00  0.00    +0.000 A 
ATOM     12  C   UNL     1       4.446   5.026   1.732  0.00  0.00    +0.000 A 
ATOM     13  C   UNL     1       4.384   3.647   1.504  0.00  0.00    +0.000 A 
ATOM     14  C   UNL     1       4.955   3.063   0.359  0.00  0.00    +0.000 A 
ATOM     15  C   UNL     1       5.592   3.926  -0.554  0.00  0.00    +0.000 A 
ATOM     16  C   UNL     1       5.669   5.305  -0.325  0.00  0.00    +0.000 A 
BRANCH  11  18
ATOM     17  N   UNL     1       5.235   8.410   1.252  0.00  0.00    +0.000 NA
ATOM     18  C   UNL     1       5.171   7.266   1.058  0.00  0.00    +0.000 C 
ENDBRANCH  11  18
ENDBRANCH   5  14
ENDBRANCH   1   9
BRANCH   1  19
ATOM     19  N   UNL     1       7.939  -1.841  -0.753  0.00  0.00    +0.000 N 
ATOM     20  H   UNL     1       7.812  -2.825  -0.536  0.00  0.00    +0.000 HD
BRANCH  19  21
ATOM     21  C   UNL     1       9.188  -1.325  -0.378  0.00  0.00    +0.000 A 
ATOM     22  C   UNL     1       9.678  -0.068  -0.737  0.00  0.00    +0.000 A 
ATOM     23  C   UNL     1      10.956   0.348  -0.321  0.00  0.00    +0.000 A 
ATOM     24  C   UNL     1      11.751  -0.479   0.483  0.00  0.00    +0.000 A 
ATOM     25  C   UNL     1      11.255  -1.721   0.879  0.00  0.00    +0.000 A 
ATOM     26  C   UNL     1       9.988  -2.128   0.455  0.00  0.00    +0.000 A 
BRANCH  24  27
ATOM     27  C   UNL     1      13.128  -0.045   0.844  0.00  0.00    +0.000 C 
ATOM     28  N   UNL     1      13.686  -0.582   1.972  0.00  0.00    +0.000 N 
ATOM     29  O   UNL     1      13.741   0.769   0.167  0.00  0.00    +0.000 OA
ATOM     30  H   UNL     1      13.160  -1.097   2.662  0.00  0.00    +0.000 HD
ATOM     31  H   UNL     1      14.602  -0.241   2.235  0.00  0.00    +0.000 HD
ENDBRANCH  24  27
ENDBRANCH  19  21
ENDBRANCH   1  19
TORSDOF 6
