REMARK  Name = 
REMARK  7 active torsions:
REMARK  status: ('A' for Active; 'I' for Inactive)
REMARK    1  A    between atoms: C_1  and  C_2
REMARK    2  A    between atoms: C_5  and  C_6
REMARK    3  A    between atoms: N_8  and  C_9
REMARK    4  A    between atoms: C_9  and  C_10
REMARK    5  A    between atoms: C_13  and  C_14
REMARK    6  A    between atoms: C_14  and  N_15
REMARK    7  A    between atoms: C_16  and  C_18
REMARK                            x       y       z     vdW  Elec       q    Type
REMARK                         _______ _______ _______ _____ _____    ______ ____
ROOT
ATOM      1  C   UNL     1      -6.171   1.452   0.080  0.00  0.00    +0.000 A 
ATOM      2  C   UNL     1      -6.221   0.052   0.005  0.00  0.00    +0.000 A 
ATOM      3  C   UNL     1      -7.445  -0.632   0.087  0.00  0.00    +0.000 A 
ATOM      4  C   UNL     1      -8.652   0.067   0.220  0.00  0.00    +0.000 A 
ATOM      5  C   UNL     1      -8.602   1.465   0.298  0.00  0.00    +0.000 A 
ATOM      6  C   UNL     1      -7.379   2.149   0.219  0.00  0.00    +0.000 A 
ENDROOT
BRANCH   1   7
ATOM      7  C   UNL     1      -4.852   2.189   0.016  0.00  0.00    +0.000 C 
BRANCH   7  10
ATOM      8  C   UNL     1      -3.338   3.246  -1.630  0.00  0.00    +0.000 C 
ATOM      9  O   UNL     1      -2.560   3.640  -0.761  0.00  0.00    +0.000 OA
ATOM     10  N   UNL     1      -4.479   2.532  -1.332  0.00  0.00    +0.000 N 
ATOM     11  H   UNL     1      -5.035   2.202  -2.113  0.00  0.00    +0.000 HD
BRANCH   8  16
ATOM     12  C   UNL     1      -4.568   2.949  -6.294  0.00  0.00    +0.000 C 
ATOM     13  C   UNL     1      -3.680   3.362  -5.187  0.00  0.00    +0.000 A 
ATOM     14  C   UNL     1      -2.488   4.047  -5.131  0.00  0.00    +0.000 A 
ATOM     15  C   UNL     1      -2.140   4.125  -3.757  0.00  0.00    +0.000 A 
ATOM     16  C   UNL     1      -3.142   3.481  -3.052  0.00  0.00    +0.000 A 
ATOM     17  O   UNL     1      -4.083   3.013  -3.934  0.00  0.00    +0.000 OA
ENDBRANCH   8  16
ENDBRANCH   7  10
ENDBRANCH   1   7
BRANCH   4  18
ATOM     18  C   UNL     1      -9.976  -0.661   0.290  0.00  0.00    +0.000 C 
BRANCH  18  19
ATOM     19  N   UNL     1     -10.342  -0.999   1.642  0.00  0.00    +0.000 N 
ATOM     20  C   UNL     1     -11.479  -1.710   1.932  0.00  0.00    +0.000 C 
ATOM     21  O   UNL     1     -12.234  -2.121   1.055  0.00  0.00    +0.000 OA
ATOM     22  H   UNL     1      -9.900  -0.459   2.382  0.00  0.00    +0.000 HD
BRANCH  20  23
ATOM     23  C   UNL     1     -11.717  -2.013   3.351  0.00  0.00    +0.000 A 
ATOM     24  C   UNL     1     -12.472  -3.123   3.710  0.00  0.00    +0.000 A 
ATOM     25  S   UNL     1     -12.611  -3.340   5.398  0.00  0.00    +0.000 S 
ATOM     26  C   UNL     1     -11.712  -1.929   5.709  0.00  0.00    +0.000 A 
ATOM     27  N   UNL     1     -11.482  -1.509   6.982  0.00  0.00    +0.000 NA
ATOM     28  C   UNL     1     -10.808  -0.410   7.069  0.00  0.00    +0.000 A 
ATOM     29  N   UNL     1     -10.338   0.301   5.996  0.00  0.00    +0.000 N 
ATOM     30  C   UNL     1     -10.513  -0.103   4.696  0.00  0.00    +0.000 A 
ATOM     31  O   UNL     1     -10.024   0.525   3.763  0.00  0.00    +0.000 OA
ATOM     32  C   UNL     1     -11.286  -1.319   4.542  0.00  0.00    +0.000 A 
ATOM     33  H   UNL     1      -9.799   1.145   6.131  0.00  0.00    +0.000 HD
ENDBRANCH  20  23
ENDBRANCH  18  19
ENDBRANCH   4  18
TORSDOF 6
