REMARK  Name = 
REMARK  8 active torsions:
REMARK  status: ('A' for Active; 'I' for Inactive)
REMARK    1  A    between atoms: C_1  and  O_2
REMARK    2  A    between atoms: O_2  and  C_3
REMARK    3  A    between atoms: C_7  and  N_8
REMARK    4  A    between atoms: N_8  and  C_9
REMARK    5  A    between atoms: C_9  and  C_10
REMARK    6  A    between atoms: C_13  and  C_14
REMARK    7  A    between atoms: C_14  and  N_15
REMARK    8  A    between atoms: C_16  and  C_18
REMARK                            x       y       z     vdW  Elec       q    Type
REMARK                         _______ _______ _______ _____ _____    ______ ____
ROOT
ATOM      1  C   UNL     1       8.873  -2.347   2.501  0.00  0.00    +0.000 C 
ATOM      2  C   UNL     1       9.337  -3.213   3.685  0.00  0.00    +0.000 C 
ATOM      3  C   UNL     1      10.587  -2.651   4.362  0.00  0.00    +0.000 C 
ATOM      4  C   UNL     1      10.393  -1.200   4.837  0.00  0.00    +0.000 C 
ATOM      5  C   UNL     1       9.908  -0.315   3.675  0.00  0.00    +0.000 C 
ATOM      6  C   UNL     1       8.683  -0.887   2.951  0.00  0.00    +0.000 C 
ENDROOT
BRANCH   1   7
ATOM      7  C   UNL     1       9.840  -2.411   1.303  0.00  0.00    +0.000 C 
BRANCH   7   8
ATOM      8  N   UNL     1       9.988  -3.784   0.827  0.00  0.00    +0.000 N 
ATOM      9  H   UNL     1       9.093  -4.255   0.714  0.00  0.00    +0.000 HD
BRANCH   8  14
ATOM     10  C   UNL     1      11.403  -5.419  -2.188  0.00  0.00    +0.000 A 
ATOM     11  C   UNL     1      12.500  -4.606  -2.465  0.00  0.00    +0.000 A 
ATOM     12  C   UNL     1      12.780  -3.520  -1.640  0.00  0.00    +0.000 A 
ATOM     13  C   UNL     1      11.956  -3.232  -0.551  0.00  0.00    +0.000 A 
ATOM     14  C   UNL     1      10.822  -4.005  -0.279  0.00  0.00    +0.000 A 
ATOM     15  C   UNL     1      10.591  -5.127  -1.086  0.00  0.00    +0.000 A 
BRANCH  10  17
ATOM     16  C   UNL     1      11.763  -6.801  -4.087  0.00  0.00    +0.000 C 
ATOM     17  O   UNL     1      11.016  -6.516  -2.909  0.00  0.00    +0.000 OA
ENDBRANCH  10  17
ENDBRANCH   8  14
ENDBRANCH   7   8
ENDBRANCH   1   7
BRANCH   4  18
ATOM     18  C   UNL     1       9.426  -1.095   6.030  0.00  0.00    +0.000 C 
BRANCH  18  19
ATOM     19  N   UNL     1       9.863  -1.881   7.164  0.00  0.00    +0.000 N 
ATOM     20  C   UNL     1       8.966  -2.555   7.956  0.00  0.00    +0.000 C 
ATOM     21  O   UNL     1       7.760  -2.561   7.718  0.00  0.00    +0.000 OA
ATOM     22  H   UNL     1      10.816  -1.748   7.492  0.00  0.00    +0.000 HD
BRANCH  20  23
ATOM     23  C   UNL     1       9.512  -3.319   9.081  0.00  0.00    +0.000 A 
ATOM     24  C   UNL     1       8.778  -4.378   9.597  0.00  0.00    +0.000 A 
ATOM     25  S   UNL     1       9.525  -5.153  10.916  0.00  0.00    +0.000 S 
ATOM     26  C   UNL     1      10.841  -4.076  10.870  0.00  0.00    +0.000 A 
ATOM     27  N   UNL     1      11.840  -4.159  11.789  0.00  0.00    +0.000 NA
ATOM     28  C   UNL     1      12.758  -3.262  11.659  0.00  0.00    +0.000 A 
ATOM     29  N   UNL     1      12.779  -2.300  10.681  0.00  0.00    +0.000 N 
ATOM     30  C   UNL     1      11.821  -2.214   9.697  0.00  0.00    +0.000 A 
ATOM     31  O   UNL     1      11.919  -1.405   8.780  0.00  0.00    +0.000 OA
ATOM     32  C   UNL     1      10.736  -3.167   9.831  0.00  0.00    +0.000 A 
ATOM     33  H   UNL     1      13.545  -1.647  10.618  0.00  0.00    +0.000 HD
ENDBRANCH  20  23
ENDBRANCH  18  19
ENDBRANCH   4  18
TORSDOF 7
