REMARK  Name = 
REMARK  12 active torsions:
REMARK  status: ('A' for Active; 'I' for Inactive)
REMARK    1  A    between atoms: N_1  and  C_2
REMARK    2  A    between atoms: C_2  and  C_3
REMARK    3  A    between atoms: C_3  and  N_4
REMARK    4  A    between atoms: N_4  and  C_5
REMARK    5  A    between atoms: C_5  and  C_6
REMARK    6  A    between atoms: C_9  and  C_10
REMARK    7  A    between atoms: C_10  and  N_11
REMARK    8  A    between atoms: C_12  and  C_14
REMARK    9  A    between atoms: C_25  and  C_26
REMARK   10  A    between atoms: C_26  and  O_27
REMARK   11  A    between atoms: O_27  and  C_28
REMARK   12  A    between atoms: C_32  and  C_33
REMARK                            x       y       z     vdW  Elec       q    Type
REMARK                         _______ _______ _______ _____ _____    ______ ____
ROOT
ATOM      1  C   UNL     1       6.293   2.594  -1.044  0.00  0.00    +0.000 A 
ATOM      2  C   UNL     1       6.978   3.770  -1.424  0.00  0.00    +0.000 A 
ATOM      3  C   UNL     1       8.366   3.851  -1.405  0.00  0.00    +0.000 A 
ATOM      4  C   UNL     1       9.124   2.754  -1.005  0.00  0.00    +0.000 A 
ATOM      5  C   UNL     1       8.458   1.571  -0.656  0.00  0.00    +0.000 A 
ATOM      6  C   UNL     1       7.052   1.465  -0.674  0.00  0.00    +0.000 A 
ENDROOT
BRANCH   1   7
ATOM      7  C   UNL     1       4.779   2.634  -1.046  0.00  0.00    +0.000 C 
BRANCH   7   8
ATOM      8  N   UNL     1       4.141   2.519   0.273  0.00  0.00    +0.000 NA
ATOM      9  H   UNL     1       3.142   2.689   0.122  0.00  0.00    +0.000 HD
BRANCH   8  10
ATOM     10  C   UNL     1       4.579   3.526   1.251  0.00  0.00    +0.000 C 
BRANCH  10  11
ATOM     11  C   UNL     1       4.254   4.988   0.877  0.00  0.00    +0.000 C 
BRANCH  11  12
ATOM     12  N   UNL     1       2.836   5.180   0.555  0.00  0.00    +0.000 NA
ATOM     13  H   UNL     1       2.686   6.155   0.298  0.00  0.00    +0.000 HD
ATOM     14  H   UNL     1       2.281   5.024   1.397  0.00  0.00    +0.000 HD
ENDBRANCH  11  12
ENDBRANCH  10  11
ENDBRANCH   8  10
ENDBRANCH   7   8
ENDBRANCH   1   7
BRANCH   4  15
ATOM     15  C   UNL     1      10.627   2.818  -0.955  0.00  0.00    +0.000 C 
BRANCH  15  16
ATOM     16  N   UNL     1      11.120   2.682   0.394  0.00  0.00    +0.000 N 
ATOM     17  C   UNL     1      11.562   1.494   0.912  0.00  0.00    +0.000 C 
ATOM     18  O   UNL     1      11.604   0.459   0.250  0.00  0.00    +0.000 OA
ATOM     19  H   UNL     1      10.888   3.441   1.026  0.00  0.00    +0.000 HD
BRANCH  17  20
ATOM     20  C   UNL     1      12.057   1.536   2.292  0.00  0.00    +0.000 A 
ATOM     21  C   UNL     1      12.928   0.548   2.737  0.00  0.00    +0.000 A 
ATOM     22  S   UNL     1      13.481   0.791   4.329  0.00  0.00    +0.000 S 
ATOM     23  C   UNL     1      12.526   2.190   4.503  0.00  0.00    +0.000 A 
ATOM     24  N   UNL     1      12.527   2.893   5.667  0.00  0.00    +0.000 NA
ATOM     25  C   UNL     1      11.726   3.904   5.678  0.00  0.00    +0.000 A 
ATOM     26  N   UNL     1      10.931   4.286   4.625  0.00  0.00    +0.000 N 
ATOM     27  C   UNL     1      10.945   3.643   3.413  0.00  0.00    +0.000 A 
ATOM     28  O   UNL     1      10.302   4.071   2.463  0.00  0.00    +0.000 OA
ATOM     29  C   UNL     1      11.809   2.476   3.357  0.00  0.00    +0.000 A 
ATOM     30  H   UNL     1      10.338   5.096   4.697  0.00  0.00    +0.000 HD
ENDBRANCH  17  20
ENDBRANCH  15  16
ENDBRANCH   4  15
BRANCH   6  31
ATOM     31  C   UNL     1       6.465   0.122  -0.282  0.00  0.00    +0.000 C 
BRANCH  31  32
ATOM     32  O   UNL     1       6.359  -0.734  -1.431  0.00  0.00    +0.000 OA
BRANCH  32  33
ATOM     33  C   UNL     1       6.107  -2.048  -1.083  0.00  0.00    +0.000 A 
ATOM     34  C   UNL     1       5.962  -2.975  -2.104  0.00  0.00    +0.000 A 
ATOM     35  C   UNL     1       5.714  -4.304  -1.764  0.00  0.00    +0.000 A 
ATOM     36  C   UNL     1       5.656  -4.669  -0.421  0.00  0.00    +0.000 A 
ATOM     37  C   UNL     1       5.859  -3.690   0.553  0.00  0.00    +0.000 A 
ATOM     38  N   UNL     1       6.049  -2.384   0.221  0.00  0.00    +0.000 NA
BRANCH  37  39
ATOM     39  C   UNL     1       5.937  -4.067   2.023  0.00  0.00    +0.000 C 
ATOM     40  F   UNL     1       5.894  -5.416   2.241  0.00  0.00    +0.000 F 
ATOM     41  F   UNL     1       7.094  -3.646   2.613  0.00  0.00    +0.000 F 
ATOM     42  F   UNL     1       4.923  -3.545   2.770  0.00  0.00    +0.000 F 
ENDBRANCH  37  39
ENDBRANCH  32  33
ENDBRANCH  31  32
ENDBRANCH   6  31
TORSDOF 12
