REMARK  Name = 
REMARK  6 active torsions:
REMARK  status: ('A' for Active; 'I' for Inactive)
REMARK    1  A    between atoms: C_1  and  C_2
REMARK    2  A    between atoms: C_2  and  N_3
REMARK    3  A    between atoms: C_2  and  C_16
REMARK    4  A    between atoms: C_4  and  C_6
REMARK    5  A    between atoms: C_19  and  O_20
REMARK    6  A    between atoms: O_20  and  C_21
REMARK                            x       y       z     vdW  Elec       q    Type
REMARK                         _______ _______ _______ _____ _____    ______ ____
ROOT
ATOM      1  C   UNL     1       2.918  -1.111  -0.996  0.00  0.00    +0.000 C 
ATOM      2  C   UNL     1       2.533   0.070  -0.101  0.00  0.00    +0.000 C 
ENDROOT
BRANCH   2   3
ATOM      3  C   UNL     1       3.010   1.425  -0.601  0.00  0.00    +0.000 A 
ATOM      4  C   UNL     1       3.208   2.450   0.338  0.00  0.00    +0.000 A 
ATOM      5  C   UNL     1       3.697   3.697  -0.054  0.00  0.00    +0.000 A 
ATOM      6  C   UNL     1       4.050   3.922  -1.385  0.00  0.00    +0.000 A 
ATOM      7  C   UNL     1       3.761   2.954  -2.343  0.00  0.00    +0.000 A 
ATOM      8  C   UNL     1       3.232   1.717  -1.956  0.00  0.00    +0.000 A 
BRANCH   6   9
ATOM      9  O   UNL     1       4.651   5.078  -1.834  0.00  0.00    +0.000 OA
BRANCH   9  10
ATOM     10  C   UNL     1       5.569   5.713  -1.023  0.00  0.00    +0.000 A 
ATOM     11  C   UNL     1       6.419   5.055  -0.126  0.00  0.00    +0.000 A 
ATOM     12  C   UNL     1       7.258   5.790   0.713  0.00  0.00    +0.000 A 
ATOM     13  C   UNL     1       7.301   7.178   0.612  0.00  0.00    +0.000 A 
ATOM     14  C   UNL     1       6.516   7.832  -0.339  0.00  0.00    +0.000 A 
ATOM     15  C   UNL     1       5.652   7.100  -1.156  0.00  0.00    +0.000 A 
ENDBRANCH   9  10
ENDBRANCH   6   9
ENDBRANCH   2   3
BRANCH   2  16
ATOM     16  N   UNL     1       1.101   0.116   0.097  0.00  0.00    +0.000 N 
ATOM     17  C   UNL     1       0.450  -0.673   1.009  0.00  0.00    +0.000 C 
ATOM     18  O   UNL     1       1.045  -1.394   1.807  0.00  0.00    +0.000 OA
ATOM     19  H   UNL     1       0.568   0.570  -0.636  0.00  0.00    +0.000 HD
BRANCH  17  20
ATOM     20  C   UNL     1      -1.011  -0.562   1.016  0.00  0.00    +0.000 A 
ATOM     21  C   UNL     1      -1.727  -0.814   2.178  0.00  0.00    +0.000 A 
ATOM     22  S   UNL     1      -3.411  -0.598   2.000  0.00  0.00    +0.000 S 
ATOM     23  C   UNL     1      -3.244  -0.220   0.348  0.00  0.00    +0.000 A 
ATOM     24  N   UNL     1      -4.332   0.041  -0.426  0.00  0.00    +0.000 NA
ATOM     25  C   UNL     1      -4.059   0.266  -1.668  0.00  0.00    +0.000 A 
ATOM     26  N   UNL     1      -2.798   0.266  -2.205  0.00  0.00    +0.000 N 
ATOM     27  C   UNL     1      -1.667   0.062  -1.452  0.00  0.00    +0.000 A 
ATOM     28  O   UNL     1      -0.551   0.159  -1.948  0.00  0.00    +0.000 OA
ATOM     29  C   UNL     1      -1.921  -0.230  -0.054  0.00  0.00    +0.000 A 
ATOM     30  H   UNL     1      -2.650   0.471  -3.181  0.00  0.00    +0.000 HD
ENDBRANCH  17  20
ENDBRANCH   2  16
TORSDOF 5
