REMARK  Name = 
REMARK  7 active torsions:
REMARK  status: ('A' for Active; 'I' for Inactive)
REMARK    1  A    between atoms: C_2  and  C_20
REMARK    2  A    between atoms: N_3  and  C_4
REMARK    3  A    between atoms: C_4  and  C_5
REMARK    4  A    between atoms: C_8  and  C_9
REMARK    5  A    between atoms: C_9  and  O_10
REMARK    6  A    between atoms: C_9  and  C_11
REMARK    7  A    between atoms: C_11  and  N_12
REMARK                            x       y       z     vdW  Elec       q    Type
REMARK                         _______ _______ _______ _____ _____    ______ ____
ROOT
ATOM      1  C   UNL     1       8.047   6.509  -4.549  0.00  0.00    +0.000 A 
ATOM      2  C   UNL     1       7.809   5.346  -3.814  0.00  0.00    +0.000 A 
ATOM      3  C   UNL     1       7.145   5.418  -2.592  0.00  0.00    +0.000 A 
ATOM      4  C   UNL     1       6.733   6.661  -2.121  0.00  0.00    +0.000 A 
ATOM      5  N   UNL     1       6.927   7.808  -2.828  0.00  0.00    +0.000 NA
ATOM      6  C   UNL     1       7.591   7.705  -4.006  0.00  0.00    +0.000 A 
ENDROOT
BRANCH   1   7
ATOM      7  C   UNL     1       8.778   6.461  -5.857  0.00  0.00    +0.000 C 
BRANCH   7  10
ATOM      8  O   UNL     1      10.617   4.360  -5.415  0.00  0.00    +0.000 OA
ATOM      9  C   UNL     1      11.039   5.505  -5.542  0.00  0.00    +0.000 C 
ATOM     10  N   UNL     1      10.205   6.582  -5.692  0.00  0.00    +0.000 N 
ATOM     11  H   UNL     1      10.608   7.488  -5.908  0.00  0.00    +0.000 HD
BRANCH   9  12
ATOM     12  C   UNL     1      12.476   5.801  -5.515  0.00  0.00    +0.000 A 
ATOM     13  C   UNL     1      13.352   4.942  -4.866  0.00  0.00    +0.000 A 
ATOM     14  S   UNL     1      14.981   5.451  -4.937  0.00  0.00    +0.000 S 
ATOM     15  C   UNL     1      14.575   6.811  -5.877  0.00  0.00    +0.000 A 
ATOM     16  N   UNL     1      15.533   7.670  -6.320  0.00  0.00    +0.000 NA
ATOM     17  C   UNL     1      15.089   8.629  -7.061  0.00  0.00    +0.000 A 
ATOM     18  N   UNL     1      13.772   8.814  -7.392  0.00  0.00    +0.000 N 
ATOM     19  C   UNL     1      12.764   8.011  -6.917  0.00  0.00    +0.000 A 
ATOM     20  O   UNL     1      11.585   8.269  -7.142  0.00  0.00    +0.000 OA
ATOM     21  C   UNL     1      13.214   6.891  -6.111  0.00  0.00    +0.000 A 
ATOM     22  H   UNL     1      13.487   9.602  -7.955  0.00  0.00    +0.000 HD
ENDBRANCH   9  12
ENDBRANCH   7  10
ENDBRANCH   1   7
BRANCH   4  23
ATOM     23  C   UNL     1       6.025   6.780  -0.784  0.00  0.00    +0.000 C 
BRANCH  23  24
ATOM     24  O   UNL     1       4.733   7.394  -0.978  0.00  0.00    +0.000 OA
ATOM     25  H   UNL     1       4.872   8.036  -1.701  0.00  0.00    +0.000 HD
ENDBRANCH  23  24
BRANCH  23  26
ATOM     26  C   UNL     1       6.838   7.665   0.180  0.00  0.00    +0.000 C 
BRANCH  26  27
ATOM     27  N   UNL     1       6.192   7.740   1.499  0.00  0.00    +0.000 N 
ATOM     28  C   UNL     1       6.540   6.816   2.414  0.00  0.00    +0.000 A 
ATOM     29  N   UNL     1       7.447   5.873   2.334  0.00  0.00    +0.000 NA
ATOM     30  C   UNL     1       7.434   5.243   3.552  0.00  0.00    +0.000 A 
ATOM     31  C   UNL     1       6.504   5.815   4.387  0.00  0.00    +0.000 A 
ATOM     32  N   UNL     1       5.932   6.808   3.641  0.00  0.00    +0.000 N 
ATOM     33  H   UNL     1       5.207   7.987   1.413  0.00  0.00    +0.000 HD
ATOM     34  H   UNL     1       5.228   7.465   3.940  0.00  0.00    +0.000 HD
ENDBRANCH  26  27
ENDBRANCH  23  26
ENDBRANCH   4  23
TORSDOF 7
