REMARK  Name = 
REMARK  11 active torsions:
REMARK  status: ('A' for Active; 'I' for Inactive)
REMARK    1  A    between atoms: C_1  and  C_2
REMARK    2  A    between atoms: C_2  and  C_3
REMARK    3  A    between atoms: C_3  and  C_4
REMARK    4  A    between atoms: C_3  and  N_6
REMARK    5  A    between atoms: C_4  and  C_5
REMARK    6  A    between atoms: N_6  and  C_7
REMARK    7  A    between atoms: C_7  and  C_8
REMARK    8  A    between atoms: C_11  and  C_12
REMARK    9  A    between atoms: C_12  and  O_13
REMARK   10  A    between atoms: O_13  and  C_14
REMARK   11  A    between atoms: C_17  and  C_18
REMARK                            x       y       z     vdW  Elec       q    Type
REMARK                         _______ _______ _______ _____ _____    ______ ____
ROOT
ATOM      1  C   UNL     1       6.445   2.624  -0.845  0.00  0.00    +0.000 A 
ATOM      2  C   UNL     1       7.134   3.826  -1.063  0.00  0.00    +0.000 A 
ATOM      3  C   UNL     1       8.530   3.871  -1.007  0.00  0.00    +0.000 A 
ATOM      4  C   UNL     1       9.269   2.715  -0.728  0.00  0.00    +0.000 A 
ATOM      5  C   UNL     1       8.584   1.519  -0.482  0.00  0.00    +0.000 A 
ATOM      6  C   UNL     1       7.188   1.472  -0.549  0.00  0.00    +0.000 A 
ENDROOT
BRANCH   1   7
ATOM      7  C   UNL     1       4.932   2.570  -0.903  0.00  0.00    +0.000 C 
BRANCH   7   8
ATOM      8  N   UNL     1       4.439   2.891  -2.243  0.00  0.00    +0.000 NA
ATOM      9  H   UNL     1       4.818   3.796  -2.519  0.00  0.00    +0.000 HD
BRANCH   8  10
ATOM     10  C   UNL     1       2.972   2.934  -2.359  0.00  0.00    +0.000 C 
BRANCH  10  12
ATOM     11  C   UNL     1       1.169   3.542  -4.110  0.00  0.00    +0.000 C 
ATOM     12  C   UNL     1       2.654   3.437  -3.788  0.00  0.00    +0.000 C 
ENDBRANCH  10  12
BRANCH  10  13
ATOM     13  C   UNL     1       2.287   1.593  -2.018  0.00  0.00    +0.000 C 
ATOM     14  C   UNL     1       2.792   0.397  -2.815  0.00  0.00    +0.000 C 
ENDBRANCH  10  13
ENDBRANCH   8  10
ENDBRANCH   7   8
ENDBRANCH   1   7
BRANCH   4  15
ATOM     15  C   UNL     1      10.777   2.761  -0.689  0.00  0.00    +0.000 C 
BRANCH  15  16
ATOM     16  O   UNL     1      11.201   3.130   0.623  0.00  0.00    +0.000 OA
BRANCH  16  17
ATOM     17  C   UNL     1      12.551   3.233   0.824  0.00  0.00    +0.000 A 
ATOM     18  C   UNL     1      13.543   2.973  -0.123  0.00  0.00    +0.000 A 
ATOM     19  C   UNL     1      14.893   3.109   0.215  0.00  0.00    +0.000 A 
ATOM     20  C   UNL     1      15.267   3.519   1.501  0.00  0.00    +0.000 A 
ATOM     21  C   UNL     1      14.276   3.772   2.456  0.00  0.00    +0.000 A 
ATOM     22  C   UNL     1      12.926   3.628   2.113  0.00  0.00    +0.000 A 
BRANCH  20  23
ATOM     23  C   UNL     1      16.717   3.643   1.804  0.00  0.00    +0.000 C 
ATOM     24  N   UNL     1      17.085   4.482   2.815  0.00  0.00    +0.000 N 
ATOM     25  O   UNL     1      17.562   3.042   1.149  0.00  0.00    +0.000 OA
ATOM     26  H   UNL     1      16.457   5.164   3.217  0.00  0.00    +0.000 HD
ATOM     27  H   UNL     1      18.080   4.632   2.932  0.00  0.00    +0.000 HD
ENDBRANCH  20  23
ENDBRANCH  16  17
ENDBRANCH  15  16
ENDBRANCH   4  15
TORSDOF 9
