REMARK  Name = 
REMARK  7 active torsions:
REMARK  status: ('A' for Active; 'I' for Inactive)
REMARK    1  A    between atoms: N_1  and  C_2
REMARK    2  A    between atoms: C_2  and  C_3
REMARK    3  A    between atoms: C_6  and  O_7
REMARK    4  A    between atoms: O_7  and  C_8
REMARK    5  A    between atoms: C_8  and  C_9
REMARK    6  A    between atoms: C_9  and  O_10
REMARK    7  A    between atoms: C_9  and  C_11
REMARK                            x       y       z     vdW  Elec       q    Type
REMARK                         _______ _______ _______ _____ _____    ______ ____
ROOT
ATOM      1  O   UNL     1       4.102   3.532  -4.046  0.00  0.00    +0.000 OA
ENDROOT
BRANCH   1   5
ATOM      2  C   UNL     1       2.866   0.910  -1.022  0.00  0.00    +0.000 A 
ATOM      3  C   UNL     1       2.294   2.186  -1.099  0.00  0.00    +0.000 A 
ATOM      4  C   UNL     1       2.678   3.084  -2.096  0.00  0.00    +0.000 A 
ATOM      5  C   UNL     1       3.650   2.728  -3.032  0.00  0.00    +0.000 A 
ATOM      6  C   UNL     1       4.233   1.462  -2.954  0.00  0.00    +0.000 A 
ATOM      7  C   UNL     1       3.846   0.557  -1.957  0.00  0.00    +0.000 A 
BRANCH   2   8
ATOM      8  C   UNL     1       2.420  -0.042   0.059  0.00  0.00    +0.000 C 
BRANCH   8   9
ATOM      9  N   UNL     1       0.990  -0.315  -0.040  0.00  0.00    +0.000 NA
ATOM     10  H   UNL     1       0.727  -0.997   0.668  0.00  0.00    +0.000 HD
ATOM     11  H   UNL     1       0.801  -0.745  -0.945  0.00  0.00    +0.000 HD
ENDBRANCH   8   9
ENDBRANCH   2   8
ENDBRANCH   1   5
BRANCH   1  12
ATOM     12  C   UNL     1       3.442   4.803  -4.175  0.00  0.00    +0.000 C 
BRANCH  12  13
ATOM     13  C   UNL     1       3.988   5.576  -5.387  0.00  0.00    +0.000 C 
BRANCH  13  14
ATOM     14  C   UNL     1       3.694   4.883  -6.701  0.00  0.00    +0.000 A 
ATOM     15  C   UNL     1       2.495   5.144  -7.379  0.00  0.00    +0.000 A 
ATOM     16  C   UNL     1       2.238   4.463  -8.558  0.00  0.00    +0.000 A 
ATOM     17  N   UNL     1       3.071   3.556  -9.101  0.00  0.00    +0.000 NA
ATOM     18  C   UNL     1       4.219   3.314  -8.432  0.00  0.00    +0.000 A 
ATOM     19  C   UNL     1       4.569   3.935  -7.251  0.00  0.00    +0.000 A 
ENDBRANCH  13  14
BRANCH  13  20
ATOM     20  O   UNL     1       5.391   5.816  -5.250  0.00  0.00    +0.000 OA
ATOM     21  H   UNL     1       5.790   4.958  -5.012  0.00  0.00    +0.000 HD
ENDBRANCH  13  20
ENDBRANCH  12  13
ENDBRANCH   1  12
TORSDOF 7
