REMARK  Name = 
REMARK  10 active torsions:
REMARK  status: ('A' for Active; 'I' for Inactive)
REMARK    1  A    between atoms: C_1  and  O_2
REMARK    2  A    between atoms: O_2  and  C_3
REMARK    3  A    between atoms: N_9  and  C_10
REMARK    4  A    between atoms: C_10  and  C_11
REMARK    5  A    between atoms: C_14  and  C_15
REMARK    6  A    between atoms: C_15  and  N_16
REMARK    7  A    between atoms: C_17  and  C_19
REMARK    8  A    between atoms: C_19  and  C_20
REMARK    9  A    between atoms: C_19  and  C_21
REMARK   10  A    between atoms: C_19  and  C_22
REMARK                            x       y       z     vdW  Elec       q    Type
REMARK                         _______ _______ _______ _____ _____    ______ ____
ROOT
ATOM      1  C   UNL     1       6.187   0.026  -2.956  0.00  0.00    +0.000 A 
ATOM      2  C   UNL     1       4.870  -0.240  -3.361  0.00  0.00    +0.000 A 
ATOM      3  C   UNL     1       4.273  -1.477  -3.080  0.00  0.00    +0.000 A 
ATOM      4  C   UNL     1       4.979  -2.466  -2.382  0.00  0.00    +0.000 A 
ATOM      5  C   UNL     1       6.337  -2.253  -2.116  0.00  0.00    +0.000 A 
ATOM      6  C   UNL     1       6.932  -1.017  -2.393  0.00  0.00    +0.000 A 
ENDROOT
BRANCH   1   7
ATOM      7  C   UNL     1       6.761   1.428  -3.017  0.00  0.00    +0.000 C 
BRANCH   7  14
ATOM      8  C   UNL     1       8.868   1.823   1.063  0.00  0.00    +0.000 A 
ATOM      9  C   UNL     1       8.096   2.504   1.999  0.00  0.00    +0.000 A 
ATOM     10  C   UNL     1       6.878   3.083   1.625  0.00  0.00    +0.000 A 
ATOM     11  C   UNL     1       6.414   2.946   0.302  0.00  0.00    +0.000 A 
ATOM     12  C   UNL     1       5.254   3.411  -0.370  0.00  0.00    +0.000 A 
ATOM     13  C   UNL     1       5.305   2.944  -1.662  0.00  0.00    +0.000 A 
ATOM     14  N   UNL     1       6.445   2.183  -1.800  0.00  0.00    +0.000 N 
ATOM     15  C   UNL     1       7.184   2.236  -0.627  0.00  0.00    +0.000 A 
ATOM     16  C   UNL     1       8.442   1.711  -0.272  0.00  0.00    +0.000 A 
BRANCH   8  18
ATOM     17  C   UNL     1      10.233   0.757   2.671  0.00  0.00    +0.000 C 
ATOM     18  O   UNL     1      10.084   1.248   1.340  0.00  0.00    +0.000 OA
ENDBRANCH   8  18
ENDBRANCH   7  14
ENDBRANCH   1   7
BRANCH   4  19
ATOM     19  C   UNL     1       4.269  -3.676  -1.827  0.00  0.00    +0.000 C 
BRANCH  19  20
ATOM     20  N   UNL     1       4.179  -4.770  -2.762  0.00  0.00    +0.000 N 
ATOM     21  C   UNL     1       3.497  -5.926  -2.421  0.00  0.00    +0.000 C 
ATOM     22  O   UNL     1       2.932  -6.058  -1.341  0.00  0.00    +0.000 OA
ATOM     23  H   UNL     1       4.756  -4.739  -3.586  0.00  0.00    +0.000 HD
BRANCH  21  24
ATOM     24  C   UNL     1       3.477  -7.015  -3.513  0.00  0.00    +0.000 C 
ATOM     25  C   UNL     1       4.909  -7.442  -3.864  0.00  0.00    +0.000 C 
ATOM     26  C   UNL     1       2.704  -8.255  -3.022  0.00  0.00    +0.000 C 
ATOM     27  C   UNL     1       2.767  -6.462  -4.758  0.00  0.00    +0.000 C 
ENDBRANCH  21  24
ENDBRANCH  19  20
ENDBRANCH   4  19
TORSDOF 6
