REMARK  Name = 
REMARK  8 active torsions:
REMARK  status: ('A' for Active; 'I' for Inactive)
REMARK    1  A    between atoms: C_1  and  N_2
REMARK    2  A    between atoms: N_5  and  C_6
REMARK    3  A    between atoms: C_8  and  C_9
REMARK    4  A    between atoms: C_9  and  C_10
REMARK    5  A    between atoms: C_10  and  N_11
REMARK    6  A    between atoms: N_11  and  C_12
REMARK    7  A    between atoms: C_15  and  C_16
REMARK    8  A    between atoms: C_23  and  C_24
REMARK                            x       y       z     vdW  Elec       q    Type
REMARK                         _______ _______ _______ _____ _____    ______ ____
ROOT
ATOM      1  C   UNL     1      -3.064   0.044   0.713  0.00  0.00    +0.000 A 
ATOM      2  C   UNL     1      -3.235  -0.602   1.951  0.00  0.00    +0.000 A 
ATOM      3  C   UNL     1      -4.428  -0.504   2.690  0.00  0.00    +0.000 A 
ATOM      4  C   UNL     1      -5.481   0.245   2.149  0.00  0.00    +0.000 A 
ATOM      5  C   UNL     1      -5.346   0.915   0.932  0.00  0.00    +0.000 A 
ATOM      6  C   UNL     1      -4.142   0.798   0.231  0.00  0.00    +0.000 A 
ENDROOT
BRANCH   1  11
ATOM      7  C   UNL     1       0.589  -0.952  -3.360  0.00  0.00    +0.000 C 
ATOM      8  N   UNL     1       0.135  -0.512  -2.045  0.00  0.00    +0.000 NA
ATOM      9  C   UNL     1      -0.857   0.579  -2.171  0.00  0.00    +0.000 C 
ATOM     10  C   UNL     1      -1.358   1.064  -0.793  0.00  0.00    +0.000 C 
ATOM     11  N   UNL     1      -1.912  -0.074  -0.035  0.00  0.00    +0.000 N 
ATOM     12  C   UNL     1      -0.993  -1.212   0.101  0.00  0.00    +0.000 C 
ATOM     13  C   UNL     1      -0.481  -1.634  -1.299  0.00  0.00    +0.000 C 
ENDBRANCH   1  11
BRANCH   5  14
ATOM     14  C   UNL     1      -6.464   1.758   0.389  0.00  0.00    +0.000 C 
ATOM     15  F   UNL     1      -7.559   1.802   1.199  0.00  0.00    +0.000 F 
ATOM     16  F   UNL     1      -6.092   3.055   0.207  0.00  0.00    +0.000 F 
ATOM     17  F   UNL     1      -6.915   1.327  -0.820  0.00  0.00    +0.000 F 
ENDBRANCH   5  14
BRANCH   3  18
ATOM     18  C   UNL     1      -4.522  -1.178   4.049  0.00  0.00    +0.000 C 
BRANCH  18  19
ATOM     19  C   UNL     1      -5.882  -0.980   4.728  0.00  0.00    +0.000 C 
BRANCH  19  20
ATOM     20  N   UNL     1      -5.958  -1.587   6.051  0.00  0.00    +0.000 N 
ATOM     21  H   UNL     1      -5.189  -1.312   6.666  0.00  0.00    +0.000 HD
BRANCH  20  22
ATOM     22  C   UNL     1      -7.190  -1.422   6.726  0.00  0.00    +0.000 A 
ATOM     23  C   UNL     1      -8.423  -1.354   6.064  0.00  0.00    +0.000 A 
ATOM     24  C   UNL     1      -9.626  -1.283   6.777  0.00  0.00    +0.000 A 
ATOM     25  C   UNL     1      -9.629  -1.306   8.178  0.00  0.00    +0.000 A 
ATOM     26  C   UNL     1      -8.411  -1.397   8.854  0.00  0.00    +0.000 A 
ATOM     27  C   UNL     1      -7.220  -1.462   8.128  0.00  0.00    +0.000 A 
ATOM     28  F   UNL     1      -6.064  -1.543   8.806  0.00  0.00    +0.000 F 
BRANCH  25  29
ATOM     29  C   UNL     1     -10.951  -1.262   8.862  0.00  0.00    +0.000 C 
ATOM     30  N   UNL     1     -10.983  -1.307  10.229  0.00  0.00    +0.000 N 
ATOM     31  O   UNL     1     -11.996  -1.184   8.230  0.00  0.00    +0.000 OA
ATOM     32  H   UNL     1     -10.180  -1.371  10.832  0.00  0.00    +0.000 HD
ATOM     33  H   UNL     1     -11.899  -1.288  10.659  0.00  0.00    +0.000 HD
ENDBRANCH  25  29
ENDBRANCH  20  22
ENDBRANCH  19  20
ENDBRANCH  18  19
ENDBRANCH   3  18
TORSDOF 7
