REMARK  Name = 
REMARK  4 active torsions:
REMARK  status: ('A' for Active; 'I' for Inactive)
REMARK    1  A    between atoms: C_2  and  C_4
REMARK    2  A    between atoms: C_7  and  N_8
REMARK    3  A    between atoms: N_8  and  C_9
REMARK    4  A    between atoms: C_9  and  C_10
REMARK                            x       y       z     vdW  Elec       q    Type
REMARK                         _______ _______ _______ _____ _____    ______ ____
ROOT
ATOM      1  C   UNL     1       3.452   1.253  -0.318  0.00  0.00    +0.000 A 
ATOM      2  C   UNL     1       3.600   0.708  -1.584  0.00  0.00    +0.000 A 
ATOM      3  C   UNL     1       4.003   1.550  -2.618  0.00  0.00    +0.000 A 
ATOM      4  C   UNL     1       4.221   2.911  -2.384  0.00  0.00    +0.000 A 
ATOM      5  C   UNL     1       4.062   3.344  -1.068  0.00  0.00    +0.000 A 
ATOM      6  N   UNL     1       3.680   2.564  -0.027  0.00  0.00    +0.000 NA
ENDROOT
BRANCH   1   8
ATOM      7  N   UNL     1       2.854   1.025   2.018  0.00  0.00    +0.000 N 
ATOM      8  C   UNL     1       3.023   0.382   0.822  0.00  0.00    +0.000 C 
ATOM      9  O   UNL     1       2.833  -0.821   0.703  0.00  0.00    +0.000 OA
ATOM     10  H   UNL     1       2.570   0.501   2.833  0.00  0.00    +0.000 HD
ATOM     11  H   UNL     1       3.010   2.025   2.073  0.00  0.00    +0.000 HD
ENDBRANCH   1   8
BRANCH   4  12
ATOM     12  N   UNL     1       4.630   3.709  -3.454  0.00  0.00    +0.000 N 
ATOM     13  H   UNL     1       5.589   3.491  -3.724  0.00  0.00    +0.000 HD
BRANCH  12  14
ATOM     14  C   UNL     1       4.413   5.149  -3.376  0.00  0.00    +0.000 C 
BRANCH  14  15
ATOM     15  C   UNL     1       4.408   5.746  -4.764  0.00  0.00    +0.000 A 
ATOM     16  C   UNL     1       3.521   5.257  -5.738  0.00  0.00    +0.000 A 
ATOM     17  C   UNL     1       3.453   5.846  -7.001  0.00  0.00    +0.000 A 
ATOM     18  C   UNL     1       4.269   6.933  -7.306  0.00  0.00    +0.000 A 
ATOM     19  C   UNL     1       5.158   7.425  -6.351  0.00  0.00    +0.000 A 
ATOM     20  C   UNL     1       5.225   6.838  -5.085  0.00  0.00    +0.000 A 
ENDBRANCH  14  15
ENDBRANCH  12  14
ENDBRANCH   4  12
TORSDOF 4
