REMARK  Name = 
REMARK  8 active torsions:
REMARK  status: ('A' for Active; 'I' for Inactive)
REMARK    1  A    between atoms: C_1  and  S_2
REMARK    2  A    between atoms: S_2  and  C_3
REMARK    3  A    between atoms: C_5  and  C_6
REMARK    4  A    between atoms: C_11  and  N_12
REMARK    5  A    between atoms: N_12  and  C_13
REMARK    6  A    between atoms: C_13  and  C_14
REMARK    7  A    between atoms: C_17  and  O_18
REMARK    8  A    between atoms: O_18  and  C_19
REMARK                            x       y       z     vdW  Elec       q    Type
REMARK                         _______ _______ _______ _____ _____    ______ ____
ROOT
ATOM      1  N   UNL     1       2.506   2.484   0.543  0.00  0.00    +0.000 N 
ATOM      2  H   UNL     1       2.863   3.392   0.844  0.00  0.00    +0.000 HD
ENDROOT
BRANCH   1   8
ATOM      3  C   UNL     1       2.426   3.588  -1.646  0.00  0.00    +0.000 A 
ATOM      4  C   UNL     1       1.902   3.684  -2.937  0.00  0.00    +0.000 A 
ATOM      5  C   UNL     1       0.996   2.719  -3.346  0.00  0.00    +0.000 A 
ATOM      6  N   UNL     1       0.603   1.672  -2.570  0.00  0.00    +0.000 NA
ATOM      7  C   UNL     1       1.114   1.631  -1.314  0.00  0.00    +0.000 A 
ATOM      8  C   UNL     1       1.986   2.572  -0.770  0.00  0.00    +0.000 A 
BRANCH   5   9
ATOM      9  C   UNL     1       0.395   2.797  -4.718  0.00  0.00    +0.000 C 
ATOM     10  N   UNL     1      -0.445   1.767  -5.049  0.00  0.00    +0.000 N 
ATOM     11  O   UNL     1       0.633   3.710  -5.492  0.00  0.00    +0.000 OA
ATOM     12  H   UNL     1      -0.632   1.033  -4.373  0.00  0.00    +0.000 HD
ATOM     13  H   UNL     1      -0.902   1.770  -5.950  0.00  0.00    +0.000 HD
ENDBRANCH   5   9
BRANCH   3  15
ATOM     14  C   UNL     1       5.156   3.861  -1.406  0.00  0.00    +0.000 C 
ATOM     15  S   UNL     1       3.634   4.815  -1.127  0.00  0.00    +0.000 S 
ENDBRANCH   3  15
ENDBRANCH   1   8
BRANCH   1  16
ATOM     16  C   UNL     1       1.929   1.624   1.594  0.00  0.00    +0.000 C 
ATOM     17  C   UNL     1       2.920   1.032   2.598  0.00  0.00    +0.000 C 
ATOM     18  C   UNL     1       2.265   0.142   1.595  0.00  0.00    +0.000 C 
BRANCH  16  19
ATOM     19  C   UNL     1       0.624   2.115   2.228  0.00  0.00    +0.000 A 
ATOM     20  C   UNL     1      -0.588   1.415   2.098  0.00  0.00    +0.000 A 
ATOM     21  C   UNL     1      -1.736   1.778   2.820  0.00  0.00    +0.000 A 
ATOM     22  C   UNL     1      -1.692   2.849   3.706  0.00  0.00    +0.000 A 
ATOM     23  C   UNL     1      -0.530   3.618   3.773  0.00  0.00    +0.000 A 
ATOM     24  C   UNL     1       0.610   3.255   3.048  0.00  0.00    +0.000 A 
BRANCH  22  25
ATOM     25  O   UNL     1      -2.709   3.267   4.508  0.00  0.00    +0.000 OA
BRANCH  25  26
ATOM     26  C   UNL     1      -3.603   2.305   5.052  0.00  0.00    +0.000 C 
ATOM     27  F   UNL     1      -3.220   1.024   4.871  0.00  0.00    +0.000 F 
ATOM     28  F   UNL     1      -3.700   2.516   6.387  0.00  0.00    +0.000 F 
ATOM     29  F   UNL     1      -4.829   2.475   4.512  0.00  0.00    +0.000 F 
ENDBRANCH  25  26
ENDBRANCH  22  25
ENDBRANCH  16  19
ENDBRANCH   1  16
TORSDOF 7
