REMARK  Name = 
REMARK  6 active torsions:
REMARK  status: ('A' for Active; 'I' for Inactive)
REMARK    1  A    between atoms: C_2  and  C_20
REMARK    2  A    between atoms: N_3  and  C_4
REMARK    3  A    between atoms: C_4  and  C_5
REMARK    4  A    between atoms: C_8  and  C_9
REMARK    5  A    between atoms: C_9  and  N_10
REMARK    6  A    between atoms: C_11  and  C_13
REMARK                            x       y       z     vdW  Elec       q    Type
REMARK                         _______ _______ _______ _____ _____    ______ ____
ROOT
ATOM      1  C   UNL     1       2.306  -2.502   0.546  0.00  0.00    +0.000 C 
ENDROOT
BRANCH   1   2
ATOM      2  C   UNL     1       3.276  -3.610   0.873  0.00  0.00    +0.000 A 
ATOM      3  C   UNL     1       4.543  -3.322   1.400  0.00  0.00    +0.000 A 
ATOM      4  C   UNL     1       5.443  -4.351   1.707  0.00  0.00    +0.000 A 
ATOM      5  C   UNL     1       5.106  -5.691   1.474  0.00  0.00    +0.000 A 
ATOM      6  C   UNL     1       3.840  -5.978   0.944  0.00  0.00    +0.000 A 
ATOM      7  C   UNL     1       2.941  -4.950   0.636  0.00  0.00    +0.000 A 
BRANCH   5   8
ATOM      8  C   UNL     1       6.086  -6.799   1.765  0.00  0.00    +0.000 C 
BRANCH   8   9
ATOM      9  N   UNL     1       5.939  -7.348   3.090  0.00  0.00    +0.000 N 
ATOM     10  C   UNL     1       6.695  -8.422   3.508  0.00  0.00    +0.000 C 
ATOM     11  O   UNL     1       7.505  -8.998   2.785  0.00  0.00    +0.000 OA
ATOM     12  H   UNL     1       5.370  -6.879   3.788  0.00  0.00    +0.000 HD
BRANCH  10  13
ATOM     13  C   UNL     1       6.440  -8.847   4.964  0.00  0.00    +0.000 C 
ATOM     14  C   UNL     1       6.043 -10.315   5.051  0.00  0.00    +0.000 C 
ATOM     15  C   UNL     1       5.060 -10.334   6.194  0.00  0.00    +0.000 C 
ATOM     16  C   UNL     1       4.382  -8.993   6.047  0.00  0.00    +0.000 C 
ATOM     17  O   UNL     1       5.387  -8.083   5.584  0.00  0.00    +0.000 OA
ENDBRANCH  10  13
ENDBRANCH   8   9
ENDBRANCH   5   8
ENDBRANCH   1   2
BRANCH   1  20
ATOM     18  O   UNL     1       0.687  -0.614  -0.703  0.00  0.00    +0.000 OA
ATOM     19  C   UNL     1       1.669  -1.030  -1.310  0.00  0.00    +0.000 C 
ATOM     20  N   UNL     1       2.472  -2.024  -0.805  0.00  0.00    +0.000 N 
ATOM     21  H   UNL     1       3.373  -2.200  -1.238  0.00  0.00    +0.000 HD
BRANCH  19  22
ATOM     22  C   UNL     1       2.023  -0.512  -2.638  0.00  0.00    +0.000 A 
ATOM     23  C   UNL     1       1.055   0.082  -3.437  0.00  0.00    +0.000 A 
ATOM     24  S   UNL     1       1.647   0.617  -4.946  0.00  0.00    +0.000 S 
ATOM     25  C   UNL     1       3.230   0.119  -4.563  0.00  0.00    +0.000 A 
ATOM     26  N   UNL     1       4.256   0.322  -5.432  0.00  0.00    +0.000 NA
ATOM     27  C   UNL     1       5.407  -0.071  -4.998  0.00  0.00    +0.000 A 
ATOM     28  N   UNL     1       5.622  -0.655  -3.776  0.00  0.00    +0.000 N 
ATOM     29  C   UNL     1       4.613  -0.913  -2.884  0.00  0.00    +0.000 A 
ATOM     30  O   UNL     1       4.832  -1.492  -1.824  0.00  0.00    +0.000 OA
ATOM     31  C   UNL     1       3.300  -0.471  -3.312  0.00  0.00    +0.000 A 
ATOM     32  H   UNL     1       6.546  -0.953  -3.501  0.00  0.00    +0.000 HD
ENDBRANCH  19  22
ENDBRANCH   1  20
TORSDOF 6
