REMARK  Name = 
REMARK  5 active torsions:
REMARK  status: ('A' for Active; 'I' for Inactive)
REMARK    1  A    between atoms: C_2  and  C_17
REMARK    2  A    between atoms: N_3  and  C_4
REMARK    3  A    between atoms: C_4  and  C_5
REMARK    4  A    between atoms: C_8  and  C_9
REMARK    5  A    between atoms: C_9  and  N_10
REMARK                            x       y       z     vdW  Elec       q    Type
REMARK                         _______ _______ _______ _____ _____    ______ ____
ROOT
ATOM      1  O   UNL     1      -0.092   2.812  -2.323  0.00  0.00    +0.000 OA
ATOM      2  C   UNL     1       0.029   1.721  -2.873  0.00  0.00    +0.000 C 
ATOM      3  N   UNL     1       1.144   0.936  -2.740  0.00  0.00    +0.000 N 
ATOM      4  H   UNL     1       1.267   0.151  -3.367  0.00  0.00    +0.000 HD
ENDROOT
BRANCH   2   5
ATOM      5  C   UNL     1      -1.053   1.145  -3.675  0.00  0.00    +0.000 A 
ATOM      6  C   UNL     1      -2.374   1.508  -3.443  0.00  0.00    +0.000 A 
ATOM      7  S   UNL     1      -3.485   0.701  -4.456  0.00  0.00    +0.000 S 
ATOM      8  C   UNL     1      -2.235  -0.125  -5.264  0.00  0.00    +0.000 A 
ATOM      9  N   UNL     1      -2.505  -0.992  -6.280  0.00  0.00    +0.000 NA
ATOM     10  C   UNL     1      -1.457  -1.514  -6.825  0.00  0.00    +0.000 A 
ATOM     11  N   UNL     1      -0.164  -1.257  -6.449  0.00  0.00    +0.000 N 
ATOM     12  C   UNL     1       0.149  -0.448  -5.388  0.00  0.00    +0.000 A 
ATOM     13  O   UNL     1       1.308  -0.344  -5.002  0.00  0.00    +0.000 OA
ATOM     14  C   UNL     1      -0.993   0.198  -4.762  0.00  0.00    +0.000 A 
ATOM     15  H   UNL     1       0.606  -1.723  -6.898  0.00  0.00    +0.000 HD
ENDBRANCH   2   5
BRANCH   3  16
ATOM     16  C   UNL     1       2.334   1.379  -2.063  0.00  0.00    +0.000 C 
BRANCH  16  17
ATOM     17  C   UNL     1       3.281   2.087  -2.998  0.00  0.00    +0.000 A 
ATOM     18  C   UNL     1       3.166   3.469  -3.196  0.00  0.00    +0.000 A 
ATOM     19  C   UNL     1       4.045   4.148  -4.047  0.00  0.00    +0.000 A 
ATOM     20  C   UNL     1       5.062   3.461  -4.725  0.00  0.00    +0.000 A 
ATOM     21  C   UNL     1       5.157   2.071  -4.549  0.00  0.00    +0.000 A 
ATOM     22  C   UNL     1       4.272   1.391  -3.701  0.00  0.00    +0.000 A 
BRANCH  20  23
ATOM     23  C   UNL     1       5.996   4.188  -5.677  0.00  0.00    +0.000 C 
BRANCH  23  24
ATOM     24  N   UNL     1       6.788   5.252  -5.055  0.00  0.00    +0.000 NA
ATOM     25  C   UNL     1       7.742   4.780  -4.054  0.00  0.00    +0.000 C 
ATOM     26  C   UNL     1       8.832   5.835  -4.110  0.00  0.00    +0.000 C 
ATOM     27  N   UNL     1       8.918   6.158  -5.536  0.00  0.00    +0.000 NA
ATOM     28  C   UNL     1       7.542   6.041  -6.021  0.00  0.00    +0.000 C 
ATOM     29  H   UNL     1       9.469   5.437  -5.997  0.00  0.00    +0.000 HD
ENDBRANCH  23  24
ENDBRANCH  20  23
ENDBRANCH  16  17
ENDBRANCH   3  16
TORSDOF 5
