REMARK  Name = 
REMARK  8 active torsions:
REMARK  status: ('A' for Active; 'I' for Inactive)
REMARK    1  A    between atoms: C_1  and  C_2
REMARK    2  A    between atoms: C_5  and  C_6
REMARK    3  A    between atoms: C_6  and  N_7
REMARK    4  A    between atoms: N_7  and  C_8
REMARK    5  A    between atoms: C_8  and  C_9
REMARK    6  A    between atoms: C_12  and  C_13
REMARK    7  A    between atoms: C_13  and  N_14
REMARK    8  A    between atoms: C_15  and  C_17
REMARK                            x       y       z     vdW  Elec       q    Type
REMARK                         _______ _______ _______ _____ _____    ______ ____
ROOT
ATOM      1  C   UNL     1       9.205  -2.824  -0.154  0.00  0.00    +0.000 A 
ATOM      2  C   UNL     1       8.307  -3.896  -0.264  0.00  0.00    +0.000 A 
ATOM      3  C   UNL     1       8.770  -5.213  -0.377  0.00  0.00    +0.000 A 
ATOM      4  C   UNL     1      10.142  -5.491  -0.384  0.00  0.00    +0.000 A 
ATOM      5  C   UNL     1      11.042  -4.419  -0.308  0.00  0.00    +0.000 A 
ATOM      6  C   UNL     1      10.578  -3.103  -0.187  0.00  0.00    +0.000 A 
ENDROOT
BRANCH   1   7
ATOM      7  C   UNL     1       8.707  -1.399  -0.021  0.00  0.00    +0.000 C 
BRANCH   7   8
ATOM      8  N   UNL     1       7.962  -1.196   1.223  0.00  0.00    +0.000 NA
ATOM      9  H   UNL     1       7.150  -1.813   1.227  0.00  0.00    +0.000 HD
BRANCH   8  10
ATOM     10  C   UNL     1       7.477   0.189   1.335  0.00  0.00    +0.000 C 
BRANCH  10  15
ATOM     11  C   UNL     1       4.276   1.041   6.019  0.00  0.00    +0.000 C 
ATOM     12  C   UNL     1       5.172   0.834   4.838  0.00  0.00    +0.000 A 
ATOM     13  C   UNL     1       6.474   0.386   4.987  0.00  0.00    +0.000 A 
ATOM     14  C   UNL     1       7.247   0.180   3.853  0.00  0.00    +0.000 A 
ATOM     15  C   UNL     1       6.686   0.414   2.605  0.00  0.00    +0.000 A 
ATOM     16  N   UNL     1       5.409   0.847   2.488  0.00  0.00    +0.000 NA
ATOM     17  N   UNL     1       4.648   1.057   3.612  0.00  0.00    +0.000 NA
ENDBRANCH  10  15
ENDBRANCH   8  10
ENDBRANCH   7   8
ENDBRANCH   1   7
BRANCH   4  18
ATOM     18  C   UNL     1      10.632  -6.914  -0.348  0.00  0.00    +0.000 C 
BRANCH  18  19
ATOM     19  N   UNL     1      10.888  -7.534  -1.628  0.00  0.00    +0.000 N 
ATOM     20  C   UNL     1      11.388  -8.821  -1.618  0.00  0.00    +0.000 C 
ATOM     21  O   UNL     1      11.592  -9.403  -0.552  0.00  0.00    +0.000 OA
ATOM     22  H   UNL     1      10.562  -7.097  -2.488  0.00  0.00    +0.000 HD
BRANCH  20  23
ATOM     23  C   UNL     1      11.732  -9.476  -2.885  0.00  0.00    +0.000 A 
ATOM     24  C   UNL     1      12.171 -10.796  -2.863  0.00  0.00    +0.000 A 
ATOM     25  S   UNL     1      12.722 -11.366  -4.372  0.00  0.00    +0.000 S 
ATOM     26  C   UNL     1      12.468  -9.843  -5.083  0.00  0.00    +0.000 A 
ATOM     27  N   UNL     1      12.925  -9.570  -6.334  0.00  0.00    +0.000 NA
ATOM     28  C   UNL     1      12.710  -8.357  -6.720  0.00  0.00    +0.000 A 
ATOM     29  N   UNL     1      12.000  -7.423  -6.006  0.00  0.00    +0.000 N 
ATOM     30  C   UNL     1      11.421  -7.698  -4.789  0.00  0.00    +0.000 A 
ATOM     31  O   UNL     1      10.632  -6.927  -4.252  0.00  0.00    +0.000 OA
ATOM     32  C   UNL     1      11.805  -8.976  -4.231  0.00  0.00    +0.000 A 
ATOM     33  H   UNL     1      11.787  -6.524  -6.412  0.00  0.00    +0.000 HD
ENDBRANCH  20  23
ENDBRANCH  18  19
ENDBRANCH   4  18
TORSDOF 7
