REMARK  Name = 
REMARK  9 active torsions:
REMARK  status: ('A' for Active; 'I' for Inactive)
REMARK    1  A    between atoms: C_1  and  O_2
REMARK    2  A    between atoms: O_2  and  C_3
REMARK    3  A    between atoms: C_10  and  C_11
REMARK    4  A    between atoms: N_13  and  C_14
REMARK    5  A    between atoms: C_14  and  C_15
REMARK    6  A    between atoms: C_18  and  N_19
REMARK    7  A    between atoms: N_19  and  C_20
REMARK    8  A    between atoms: C_20  and  C_21
REMARK    9  A    between atoms: C_25  and  C_26
REMARK                            x       y       z     vdW  Elec       q    Type
REMARK                         _______ _______ _______ _____ _____    ______ ____
ROOT
ATOM      1  C   UNL     1       1.791   2.052   2.718  0.00  0.00    +0.000 A 
ATOM      2  C   UNL     1       0.489   1.625   2.433  0.00  0.00    +0.000 A 
ATOM      3  C   UNL     1      -0.503   2.538   2.038  0.00  0.00    +0.000 A 
ATOM      4  C   UNL     1      -0.227   3.901   1.892  0.00  0.00    +0.000 A 
ATOM      5  C   UNL     1       1.075   4.325   2.198  0.00  0.00    +0.000 A 
ATOM      6  C   UNL     1       2.073   3.417   2.594  0.00  0.00    +0.000 A 
ENDROOT
BRANCH   4   7
ATOM      7  N   UNL     1      -1.181   4.869   1.531  0.00  0.00    +0.000 N 
ATOM      8  H   UNL     1      -0.790   5.475   0.817  0.00  0.00    +0.000 HD
BRANCH   7   9
ATOM      9  C   UNL     1      -2.562   4.463   1.292  0.00  0.00    +0.000 C 
BRANCH   9  10
ATOM     10  C   UNL     1      -3.529   5.615   0.939  0.00  0.00    +0.000 C 
ATOM     11  C   UNL     1      -3.207   6.395  -0.352  0.00  0.00    +0.000 C 
ATOM     12  C   UNL     1      -2.278   7.599  -0.167  0.00  0.00    +0.000 C 
ATOM     13  N   UNL     1      -2.685   8.411   0.975  0.00  0.00    +0.000 N 
ATOM     14  C   UNL     1      -3.028   9.752   0.981  0.00  0.00    +0.000 C 
ATOM     15  C   UNL     1      -3.012  10.552  -0.298  0.00  0.00    +0.000 C 
ATOM     16  O   UNL     1      -3.361  10.336   2.018  0.00  0.00    +0.000 OA
ATOM     17  C   UNL     1      -2.759   7.670   2.234  0.00  0.00    +0.000 C 
ATOM     18  C   UNL     1      -3.798   6.563   2.118  0.00  0.00    +0.000 C 
ENDBRANCH   9  10
ENDBRANCH   7   9
ENDBRANCH   4   7
BRANCH   1  19
ATOM     19  C   UNL     1       2.859   1.064   3.126  0.00  0.00    +0.000 C 
BRANCH  19  22
ATOM     20  C   UNL     1       4.561  -0.400   2.097  0.00  0.00    +0.000 C 
ATOM     21  O   UNL     1       4.903  -0.831   3.194  0.00  0.00    +0.000 OA
ATOM     22  N   UNL     1       3.564   0.535   1.980  0.00  0.00    +0.000 N 
ATOM     23  H   UNL     1       3.345   0.930   1.077  0.00  0.00    +0.000 HD
BRANCH  20  31
ATOM     24  C   UNL     1       4.050   0.274  -1.241  0.00  0.00    +0.000 A 
ATOM     25  N   UNL     1       4.071   0.366  -2.588  0.00  0.00    +0.000 NA
ATOM     26  C   UNL     1       4.965  -0.362  -3.251  0.00  0.00    +0.000 A 
ATOM     27  N   UNL     1       5.866  -1.190  -2.732  0.00  0.00    +0.000 NA
ATOM     28  C   UNL     1       5.824  -1.240  -1.387  0.00  0.00    +0.000 A 
ATOM     29  S   UNL     1       6.904  -2.246  -0.553  0.00  0.00    +0.000 S 
ATOM     30  C   UNL     1       6.252  -1.784   0.949  0.00  0.00    +0.000 A 
ATOM     31  C   UNL     1       5.210  -0.866   0.854  0.00  0.00    +0.000 A 
ATOM     32  C   UNL     1       4.959  -0.542  -0.550  0.00  0.00    +0.000 A 
BRANCH  24  34
ATOM     33  C   UNL     1       1.959   1.281  -1.357  0.00  0.00    +0.000 C 
ATOM     34  O   UNL     1       3.124   1.043  -0.570  0.00  0.00    +0.000 OA
ENDBRANCH  24  34
ENDBRANCH  20  31
ENDBRANCH  19  22
ENDBRANCH   1  19
TORSDOF 7
