REMARK  Name = 
REMARK  5 active torsions:
REMARK  status: ('A' for Active; 'I' for Inactive)
REMARK    1  A    between atoms: C_1  and  C_2
REMARK    2  A    between atoms: C_4  and  O_5
REMARK    3  A    between atoms: O_5  and  C_6
REMARK    4  A    between atoms: C_6  and  C_7
REMARK    5  A    between atoms: C_11  and  C_12
REMARK                            x       y       z     vdW  Elec       q    Type
REMARK                         _______ _______ _______ _____ _____    ______ ____
ROOT
ATOM      1  C   UNL     1       1.386  -3.496   0.012  0.00  0.00    +0.000 C 
ENDROOT
BRANCH   1   2
ATOM      2  C   UNL     1       2.441  -4.583  -0.005  0.00  0.00    +0.000 A 
ATOM      3  C   UNL     1       3.691  -4.400   0.600  0.00  0.00    +0.000 A 
ATOM      4  C   UNL     1       4.646  -5.419   0.584  0.00  0.00    +0.000 A 
ATOM      5  C   UNL     1       4.354  -6.645  -0.014  0.00  0.00    +0.000 A 
ATOM      6  C   UNL     1       3.099  -6.860  -0.593  0.00  0.00    +0.000 A 
ATOM      7  C   UNL     1       2.146  -5.833  -0.580  0.00  0.00    +0.000 A 
BRANCH   6   8
ATOM      8  C   UNL     1       2.787  -8.128  -1.185  0.00  0.00    +0.000 C 
ATOM      9  N   UNL     1       2.534  -9.153  -1.665  0.00  0.00    +0.000 NA
ENDBRANCH   6   8
ENDBRANCH   1   2
BRANCH   1  10
ATOM     10  O   UNL     1       1.977  -2.186  -0.002  0.00  0.00    +0.000 OA
BRANCH  10  14
ATOM     11  C   UNL     1       0.788   2.554  -0.026  0.00  0.00    +0.000 C 
ATOM     12  C   UNL     1       0.465   1.090  -0.013  0.00  0.00    +0.000 A 
ATOM     13  C   UNL     1       1.454   0.122  -0.010  0.00  0.00    +0.000 A 
ATOM     14  C   UNL     1       1.020  -1.187  -0.000  0.00  0.00    +0.000 A 
ATOM     15  N   UNL     1      -0.275  -1.540   0.008  0.00  0.00    +0.000 NA
ATOM     16  C   UNL     1      -1.149  -0.528   0.002  0.00  0.00    +0.000 A 
ATOM     17  N   UNL     1      -0.847   0.775  -0.007  0.00  0.00    +0.000 NA
ENDBRANCH  10  14
ENDBRANCH   1  10
TORSDOF 4
