REMARK  Name = 
REMARK  4 active torsions:
REMARK  status: ('A' for Active; 'I' for Inactive)
REMARK    1  A    between atoms: C_2  and  C_4
REMARK    2  A    between atoms: N_8  and  C_9
REMARK    3  A    between atoms: C_9  and  C_10
REMARK    4  A    between atoms: C_14  and  C_15
REMARK                            x       y       z     vdW  Elec       q    Type
REMARK                         _______ _______ _______ _____ _____    ______ ____
ROOT
ATOM      1  C   UNL     1       6.377   4.985  -1.263  0.00  0.00    +0.000 C 
ENDROOT
BRANCH   1   6
ATOM      2  C   UNL     1       2.189   2.295  -0.979  0.00  0.00    +0.000 A 
ATOM      3  C   UNL     1       2.722   2.500   0.271  0.00  0.00    +0.000 A 
ATOM      4  N   UNL     1       3.785   3.305   0.509  0.00  0.00    +0.000 NA
ATOM      5  C   UNL     1       4.340   3.911  -0.551  0.00  0.00    +0.000 A 
ATOM      6  N   UNL     1       5.331   4.829  -0.275  0.00  0.00    +0.000 N 
ATOM      7  N   UNL     1       3.925   3.728  -1.813  0.00  0.00    +0.000 NA
ATOM      8  C   UNL     1       2.856   2.921  -2.003  0.00  0.00    +0.000 A 
ATOM      9  H   UNL     1       5.634   4.711   0.683  0.00  0.00    +0.000 HD
BRANCH   2  11
ATOM     10  N   UNL     1       0.073   1.354  -0.259  0.00  0.00    +0.000 N 
ATOM     11  C   UNL     1       1.008   1.467  -1.251  0.00  0.00    +0.000 C 
ATOM     12  O   UNL     1       0.843   0.940  -2.341  0.00  0.00    +0.000 OA
ATOM     13  H   UNL     1      -0.787   0.879  -0.511  0.00  0.00    +0.000 HD
ATOM     14  H   UNL     1       0.028   1.982   0.532  0.00  0.00    +0.000 HD
ENDBRANCH   2  11
ENDBRANCH   1   6
BRANCH   1  15
ATOM     15  C   UNL     1       6.965   6.364  -1.139  0.00  0.00    +0.000 A 
ATOM     16  C   UNL     1       8.305   6.569  -0.847  0.00  0.00    +0.000 A 
ATOM     17  N   UNL     1       8.872   7.789  -0.742  0.00  0.00    +0.000 NA
ATOM     18  C   UNL     1       8.059   8.858  -0.936  0.00  0.00    +0.000 A 
ATOM     19  C   UNL     1       6.698   8.795  -1.246  0.00  0.00    +0.000 A 
ATOM     20  C   UNL     1       6.169   7.501  -1.350  0.00  0.00    +0.000 A 
BRANCH  19  21
ATOM     21  C   UNL     1       5.870  10.003  -1.449  0.00  0.00    +0.000 A 
ATOM     22  C   UNL     1       6.420  11.190  -1.974  0.00  0.00    +0.000 A 
ATOM     23  C   UNL     1       5.641  12.336  -2.161  0.00  0.00    +0.000 A 
ATOM     24  C   UNL     1       4.289  12.320  -1.836  0.00  0.00    +0.000 A 
ATOM     25  C   UNL     1       3.723  11.159  -1.321  0.00  0.00    +0.000 A 
ATOM     26 CL   UNL     1       2.048  11.130  -0.923  0.00  0.00    +0.000 Cl
ATOM     27  C   UNL     1       4.501  10.016  -1.125  0.00  0.00    +0.000 A 
ENDBRANCH  19  21
ENDBRANCH   1  15
TORSDOF 4
