REMARK  Name = 
REMARK  6 active torsions:
REMARK  status: ('A' for Active; 'I' for Inactive)
REMARK    1  A    between atoms: C_2  and  C_3
REMARK    2  A    between atoms: N_7  and  C_8
REMARK    3  A    between atoms: C_8  and  C_9
REMARK    4  A    between atoms: C_9  and  C_10
REMARK    5  A    between atoms: C_14  and  O_15
REMARK    6  A    between atoms: O_15  and  C_16
REMARK                            x       y       z     vdW  Elec       q    Type
REMARK                         _______ _______ _______ _____ _____    ______ ____
ROOT
ATOM      1  C   UNL     1      -5.846   1.135  -0.340  0.00  0.00    +0.000 C 
ENDROOT
BRANCH   1   2
ATOM      2  C   UNL     1      -6.628   2.429  -0.328  0.00  0.00    +0.000 A 
ATOM      3  C   UNL     1      -8.010   2.422  -0.105  0.00  0.00    +0.000 A 
ATOM      4  C   UNL     1      -8.708   3.624   0.027  0.00  0.00    +0.000 A 
ATOM      5  C   UNL     1      -8.036   4.846  -0.058  0.00  0.00    +0.000 A 
ATOM      6  C   UNL     1      -6.662   4.864  -0.285  0.00  0.00    +0.000 A 
ATOM      7  C   UNL     1      -5.964   3.661  -0.420  0.00  0.00    +0.000 A 
BRANCH   6   8
ATOM      8  O   UNL     1      -5.884   5.994  -0.338  0.00  0.00    +0.000 OA
BRANCH   8   9
ATOM      9  C   UNL     1      -6.513   7.273  -0.567  0.00  0.00    +0.000 C 
ATOM     10  C   UNL     1      -7.034   7.574  -1.990  0.00  0.00    +0.000 C 
ATOM     11  N   UNL     1      -6.427   8.920  -1.918  0.00  0.00    +0.000 NA
ATOM     12  C   UNL     1      -5.535   8.438  -0.843  0.00  0.00    +0.000 C 
ATOM     13  H   UNL     1      -7.074   9.647  -1.614  0.00  0.00    +0.000 HD
ENDBRANCH   8   9
ENDBRANCH   6   8
ENDBRANCH   1   2
BRANCH   1  14
ATOM     14  C   UNL     1      -5.353   0.834   1.075  0.00  0.00    +0.000 C 
BRANCH  14  19
ATOM     15  C   UNL     1      -2.999  -1.970   4.636  0.00  0.00    +0.000 A 
ATOM     16  C   UNL     1      -3.683  -0.766   4.715  0.00  0.00    +0.000 A 
ATOM     17  C   UNL     1      -4.247  -0.231   3.558  0.00  0.00    +0.000 A 
ATOM     18  C   UNL     1      -4.113  -0.897   2.341  0.00  0.00    +0.000 A 
ATOM     19  N   UNL     1      -4.651  -0.429   1.168  0.00  0.00    +0.000 N 
ATOM     20  N   UNL     1      -3.445  -2.064   2.256  0.00  0.00    +0.000 NA
ATOM     21  C   UNL     1      -2.911  -2.578   3.394  0.00  0.00    +0.000 A 
ATOM     22  H   UNL     1      -4.414  -0.971   0.346  0.00  0.00    +0.000 HD
BRANCH  15  24
ATOM     23  N   UNL     1      -1.926  -3.039   6.735  0.00  0.00    +0.000 NA
ATOM     24  C   UNL     1      -2.406  -2.564   5.790  0.00  0.00    +0.000 C 
ENDBRANCH  15  24
ENDBRANCH  14  19
ENDBRANCH   1  14
TORSDOF 6
