REMARK  Name = 
REMARK  4 active torsions:
REMARK  status: ('A' for Active; 'I' for Inactive)
REMARK    1  A    between atoms: N_1  and  C_2
REMARK    2  A    between atoms: C_2  and  C_3
REMARK    3  A    between atoms: C_7  and  C_8
REMARK    4  A    between atoms: C_8  and  N_9
REMARK                            x       y       z     vdW  Elec       q    Type
REMARK                         _______ _______ _______ _____ _____    ______ ____
ROOT
ATOM      1  C   UNL     1       4.803   1.468   1.602  0.00  0.00    +0.000 A 
ATOM      2  C   UNL     1       3.680   2.121   1.071  0.00  0.00    +0.000 A 
ATOM      3  C   UNL     1       2.521   2.253   1.830  0.00  0.00    +0.000 A 
ATOM      4  C   UNL     1       2.458   1.705   3.111  0.00  0.00    +0.000 A 
ATOM      5  C   UNL     1       3.558   1.019   3.658  0.00  0.00    +0.000 A 
ATOM      6  C   UNL     1       4.736   0.934   2.901  0.00  0.00    +0.000 A 
ENDROOT
BRANCH   1   7
ATOM      7  C   UNL     1       6.024   1.241   0.749  0.00  0.00    +0.000 C 
BRANCH   7   8
ATOM      8  N   UNL     1       5.975  -0.078   0.130  0.00  0.00    +0.000 NA
ATOM      9  H   UNL     1       6.756  -0.177  -0.515  0.00  0.00    +0.000 HD
ATOM     10  H   UNL     1       5.127  -0.147  -0.430  0.00  0.00    +0.000 HD
ENDBRANCH   7   8
ENDBRANCH   1   7
BRANCH   5  11
ATOM     11  C   UNL     1       3.383   0.232   4.924  0.00  0.00    +0.000 C 
BRANCH  11  12
ATOM     12  N   UNL     1       4.122   0.672   6.102  0.00  0.00    +0.000 N 
ATOM     13  C   UNL     1       4.760  -0.226   6.927  0.00  0.00    +0.000 A 
ATOM     14  N   UNL     1       4.805   0.192   8.168  0.00  0.00    +0.000 NA
ATOM     15  C   UNL     1       4.215   1.430   8.149  0.00  0.00    +0.000 A 
ATOM     16  C   UNL     1       3.912   2.286   9.219  0.00  0.00    +0.000 A 
ATOM     17  C   UNL     1       3.318   3.522   8.944  0.00  0.00    +0.000 A 
ATOM     18  C   UNL     1       3.065   3.913   7.628  0.00  0.00    +0.000 A 
ATOM     19  C   UNL     1       3.333   3.060   6.549  0.00  0.00    +0.000 A 
ATOM     20  C   UNL     1       3.873   1.804   6.849  0.00  0.00    +0.000 A 
ENDBRANCH  11  12
ENDBRANCH   5  11
TORSDOF 4
