REMARK  Name = 
REMARK  9 active torsions:
REMARK  status: ('A' for Active; 'I' for Inactive)
REMARK    1  A    between atoms: C_1  and  C_2
REMARK    2  A    between atoms: C_4  and  O_5
REMARK    3  A    between atoms: O_5  and  C_6
REMARK    4  A    between atoms: C_6  and  C_7
REMARK    5  A    between atoms: C_7  and  C_8
REMARK    6  A    between atoms: C_7  and  C_9
REMARK    7  A    between atoms: C_7  and  C_10
REMARK    8  A    between atoms: C_15  and  C_16
REMARK    9  A    between atoms: C_25  and  C_26
REMARK                            x       y       z     vdW  Elec       q    Type
REMARK                         _______ _______ _______ _____ _____    ______ ____
ROOT
ATOM      1  C   UNL     1      -2.037   4.839  -0.004  0.00  0.00    +0.000 C 
ATOM      2  C   UNL     1      -2.923   4.790   1.266  0.00  0.00    +0.000 C 
ATOM      3  C   UNL     1      -2.942   4.782  -1.250  0.00  0.00    +0.000 C 
ENDROOT
BRANCH   1   4
ATOM      4  C   UNL     1      -1.219   6.151  -0.002  0.00  0.00    +0.000 A 
ATOM      5  C   UNL     1       0.178   6.164   0.044  0.00  0.00    +0.000 A 
ATOM      6  C   UNL     1       0.885   7.364   0.077  0.00  0.00    +0.000 A 
ATOM      7  C   UNL     1       0.216   8.593   0.088  0.00  0.00    +0.000 A 
ATOM      8 CL   UNL     1       1.239   9.981   0.276  0.00  0.00    +0.000 Cl
ATOM      9  C   UNL     1      -1.192   8.653   0.013  0.00  0.00    +0.000 A 
ATOM     10  C   UNL     1      -1.872   7.407  -0.035  0.00  0.00    +0.000 A 
BRANCH   9  11
ATOM     11  C   UNL     1      -1.984   9.918   0.003  0.00  0.00    +0.000 A 
ATOM     12  C   UNL     1      -1.576  11.062  -0.697  0.00  0.00    +0.000 A 
ATOM     13  C   UNL     1      -2.331  12.225  -0.626  0.00  0.00    +0.000 A 
ATOM     14  N   UNL     1      -3.496  12.324   0.041  0.00  0.00    +0.000 NA
ATOM     15  C   UNL     1      -3.914  11.212   0.674  0.00  0.00    +0.000 A 
ATOM     16  C   UNL     1      -3.204  10.018   0.693  0.00  0.00    +0.000 A 
ENDBRANCH   9  11
ENDBRANCH   1   4
BRANCH   1  17
ATOM     17  C   UNL     1      -1.168   3.542   0.028  0.00  0.00    +0.000 C 
BRANCH  17  18
ATOM     18  O   UNL     1      -0.381   3.419  -1.164  0.00  0.00    +0.000 OA
BRANCH  18  22
ATOM     19  C   UNL     1       1.626  -0.733   0.650  0.00  0.00    +0.000 C 
ATOM     20  C   UNL     1       1.581   0.340  -0.404  0.00  0.00    +0.000 A 
ATOM     21  C   UNL     1       0.634   1.373  -0.258  0.00  0.00    +0.000 A 
ATOM     22  C   UNL     1       0.522   2.393  -1.203  0.00  0.00    +0.000 A 
ATOM     23  C   UNL     1       1.381   2.399  -2.300  0.00  0.00    +0.000 A 
ATOM     24  C   UNL     1       2.333   1.388  -2.462  0.00  0.00    +0.000 A 
ATOM     25  C   UNL     1       2.431   0.342  -1.529  0.00  0.00    +0.000 A 
BRANCH  25  26
ATOM     26  C   UNL     1       3.447  -0.734  -1.738  0.00  0.00    +0.000 C 
ATOM     27  N   UNL     1       3.780  -1.039  -3.029  0.00  0.00    +0.000 N 
ATOM     28  O   UNL     1       3.960  -1.353  -0.814  0.00  0.00    +0.000 OA
ATOM     29  H   UNL     1       3.253  -0.714  -3.826  0.00  0.00    +0.000 HD
ATOM     30  H   UNL     1       4.399  -1.829  -3.159  0.00  0.00    +0.000 HD
ENDBRANCH  25  26
ENDBRANCH  18  22
ENDBRANCH  17  18
ENDBRANCH   1  17
TORSDOF 6
