REMARK  Name = 
REMARK  10 active torsions:
REMARK  status: ('A' for Active; 'I' for Inactive)
REMARK    1  A    between atoms: C_1  and  O_2
REMARK    2  A    between atoms: O_2  and  C_3
REMARK    3  A    between atoms: C_10  and  C_11
REMARK    4  A    between atoms: N_13  and  C_14
REMARK    5  A    between atoms: C_14  and  C_15
REMARK    6  A    between atoms: C_18  and  C_19
REMARK    7  A    between atoms: C_19  and  N_20
REMARK    8  A    between atoms: N_20  and  C_21
REMARK    9  A    between atoms: N_20  and  C_22
REMARK   10  A    between atoms: C_22  and  C_23
REMARK                            x       y       z     vdW  Elec       q    Type
REMARK                         _______ _______ _______ _____ _____    ______ ____
ROOT
ATOM      1  C   UNL     1       2.803   1.294  -3.086  0.00  0.00    +0.000 C 
ENDROOT
BRANCH   1   2
ATOM      2  C   UNL     1       1.672   0.311  -3.289  0.00  0.00    +0.000 A 
ATOM      3  C   UNL     1       1.946  -1.049  -3.406  0.00  0.00    +0.000 A 
ATOM      4  C   UNL     1       0.889  -1.938  -3.589  0.00  0.00    +0.000 A 
ATOM      5  C   UNL     1      -0.419  -1.456  -3.667  0.00  0.00    +0.000 A 
ATOM      6  C   UNL     1      -0.596  -0.081  -3.570  0.00  0.00    +0.000 A 
ATOM      7  N   UNL     1       0.414   0.808  -3.398  0.00  0.00    +0.000 NA
BRANCH   5   8
ATOM      8  C   UNL     1      -1.595  -2.395  -3.794  0.00  0.00    +0.000 C 
BRANCH   8   9
ATOM      9  N   UNL     1      -2.451  -2.141  -4.970  0.00  0.00    +0.000 NA
ATOM     10  C   UNL     1      -1.710  -2.361  -6.219  0.00  0.00    +0.000 C 
BRANCH   9  11
ATOM     11  C   UNL     1      -3.637  -3.027  -4.961  0.00  0.00    +0.000 C 
BRANCH  11  12
ATOM     12  C   UNL     1      -4.554  -2.798  -3.780  0.00  0.00    +0.000 A 
ATOM     13  C   UNL     1      -5.134  -1.546  -3.558  0.00  0.00    +0.000 A 
ATOM     14  C   UNL     1      -5.924  -1.370  -2.433  0.00  0.00    +0.000 A 
ATOM     15  N   UNL     1      -6.180  -2.345  -1.534  0.00  0.00    +0.000 NA
ATOM     16  C   UNL     1      -5.626  -3.551  -1.775  0.00  0.00    +0.000 A 
ATOM     17  C   UNL     1      -4.821  -3.826  -2.870  0.00  0.00    +0.000 A 
ENDBRANCH  11  12
ENDBRANCH   9  11
ENDBRANCH   8   9
ENDBRANCH   5   8
ENDBRANCH   1   2
BRANCH   1  20
ATOM     18  C   UNL     1       4.680   2.103  -4.469  0.00  0.00    +0.000 C 
ATOM     19  O   UNL     1       5.448   2.080  -3.511  0.00  0.00    +0.000 OA
ATOM     20  N   UNL     1       3.384   1.686  -4.350  0.00  0.00    +0.000 N 
ATOM     21  H   UNL     1       2.725   1.872  -5.095  0.00  0.00    +0.000 HD
BRANCH  18  29
ATOM     22  C   UNL     1       3.110   2.419  -7.518  0.00  0.00    +0.000 A 
ATOM     23  N   UNL     1       2.761   2.613  -8.806  0.00  0.00    +0.000 NA
ATOM     24  C   UNL     1       3.700   3.044  -9.652  0.00  0.00    +0.000 A 
ATOM     25  N   UNL     1       4.972   3.312  -9.370  0.00  0.00    +0.000 NA
ATOM     26  C   UNL     1       5.277   3.110  -8.077  0.00  0.00    +0.000 A 
ATOM     27  S   UNL     1       6.857   3.409  -7.533  0.00  0.00    +0.000 S 
ATOM     28  C   UNL     1       6.452   2.949  -5.949  0.00  0.00    +0.000 A 
ATOM     29  C   UNL     1       5.126   2.557  -5.797  0.00  0.00    +0.000 A 
ATOM     30  C   UNL     1       4.421   2.666  -7.073  0.00  0.00    +0.000 A 
BRANCH  22  32
ATOM     31  C   UNL     1       1.033   1.367  -7.255  0.00  0.00    +0.000 C 
ATOM     32  O   UNL     1       2.132   2.026  -6.631  0.00  0.00    +0.000 OA
ENDBRANCH  22  32
ENDBRANCH  18  29
ENDBRANCH   1  20
TORSDOF 8
