REMARK  Name = 
REMARK  7 active torsions:
REMARK  status: ('A' for Active; 'I' for Inactive)
REMARK    1  A    between atoms: C_1  and  O_2
REMARK    2  A    between atoms: O_2  and  C_3
REMARK    3  A    between atoms: C_5  and  C_6
REMARK    4  A    between atoms: C_11  and  N_12
REMARK    5  A    between atoms: N_12  and  C_13
REMARK    6  A    between atoms: C_13  and  C_14
REMARK    7  A    between atoms: C_19  and  C_20
REMARK                            x       y       z     vdW  Elec       q    Type
REMARK                         _______ _______ _______ _____ _____    ______ ____
ROOT
ATOM      1  N   UNL     1       4.385   1.869   0.591  0.00  0.00    +0.000 N 
ATOM      2  H   UNL     1       5.375   1.639   0.600  0.00  0.00    +0.000 HD
ENDROOT
BRANCH   1   8
ATOM      3  C   UNL     1       4.294   1.032   2.874  0.00  0.00    +0.000 A 
ATOM      4  C   UNL     1       3.527   0.485   3.906  0.00  0.00    +0.000 A 
ATOM      5  C   UNL     1       2.209   0.094   3.672  0.00  0.00    +0.000 A 
ATOM      6  C   UNL     1       1.715   0.272   2.394  0.00  0.00    +0.000 A 
ATOM      7  N   UNL     1       2.425   0.803   1.370  0.00  0.00    +0.000 NA
ATOM      8  C   UNL     1       3.701   1.190   1.603  0.00  0.00    +0.000 A 
BRANCH   5   9
ATOM      9  C   UNL     1       1.422  -0.480   4.792  0.00  0.00    +0.000 C 
ATOM     10  N   UNL     1       0.128  -0.846   4.581  0.00  0.00    +0.000 N 
ATOM     11  O   UNL     1       1.926  -0.631   5.905  0.00  0.00    +0.000 OA
ATOM     12  H   UNL     1      -0.387  -0.755   3.717  0.00  0.00    +0.000 HD
ATOM     13  H   UNL     1      -0.367  -1.226   5.379  0.00  0.00    +0.000 HD
ENDBRANCH   5   9
BRANCH   3  15
ATOM     14  C   UNL     1       6.280   0.907   4.169  0.00  0.00    +0.000 C 
ATOM     15  O   UNL     1       5.599   1.441   3.033  0.00  0.00    +0.000 OA
ENDBRANCH   3  15
ENDBRANCH   1   8
BRANCH   1  16
ATOM     16  C   UNL     1       3.787   1.843  -0.738  0.00  0.00    +0.000 C 
BRANCH  16  17
ATOM     17  C   UNL     1       4.413   2.947  -1.559  0.00  0.00    +0.000 A 
ATOM     18  C   UNL     1       4.306   4.272  -1.117  0.00  0.00    +0.000 A 
ATOM     19  C   UNL     1       4.945   5.291  -1.809  0.00  0.00    +0.000 A 
ATOM     20 CL   UNL     1       4.853   6.908  -1.226  0.00  0.00    +0.000 Cl
ATOM     21  C   UNL     1       5.677   5.012  -2.962  0.00  0.00    +0.000 A 
ATOM     22  C   UNL     1       5.764   3.703  -3.471  0.00  0.00    +0.000 A 
ATOM     23  C   UNL     1       5.119   2.679  -2.744  0.00  0.00    +0.000 A 
BRANCH  22  24
ATOM     24  C   UNL     1       6.521   3.398  -4.705  0.00  0.00    +0.000 A 
ATOM     25  C   UNL     1       6.721   4.333  -5.723  0.00  0.00    +0.000 A 
ATOM     26  C   UNL     1       7.462   3.978  -6.848  0.00  0.00    +0.000 A 
ATOM     27  C   UNL     1       7.985   2.696  -6.939  0.00  0.00    +0.000 A 
ATOM     28  C   UNL     1       7.739   1.820  -5.898  0.00  0.00    +0.000 A 
ATOM     29  N   UNL     1       7.023   2.139  -4.796  0.00  0.00    +0.000 NA
ENDBRANCH  22  24
ENDBRANCH  16  17
ENDBRANCH   1  16
TORSDOF 6
