REMARK  Name = 
REMARK  5 active torsions:
REMARK  status: ('A' for Active; 'I' for Inactive)
REMARK    1  A    between atoms: C_2  and  C_3
REMARK    2  A    between atoms: N_7  and  C_8
REMARK    3  A    between atoms: C_8  and  C_9
REMARK    4  A    between atoms: C_13  and  O_14
REMARK    5  A    between atoms: O_14  and  C_15
REMARK                            x       y       z     vdW  Elec       q    Type
REMARK                         _______ _______ _______ _____ _____    ______ ____
ROOT
ATOM      1  C   UNL     1       4.342   1.210   0.034  0.00  0.00    +0.000 C 
ATOM      2  C   UNL     1       4.564   2.617   0.590  0.00  0.00    +0.000 C 
ATOM      3  C   UNL     1       4.066   2.449  -0.806  0.00  0.00    +0.000 C 
ENDROOT
BRANCH   1   8
ATOM      4  C   UNL     1       0.285   0.978   3.188  0.00  0.00    +0.000 A 
ATOM      5  C   UNL     1       1.041   2.006   2.696  0.00  0.00    +0.000 A 
ATOM      6  N   UNL     1       2.003   1.827   1.771  0.00  0.00    +0.000 NA
ATOM      7  C   UNL     1       2.218   0.589   1.299  0.00  0.00    +0.000 A 
ATOM      8  N   UNL     1       3.200   0.348   0.344  0.00  0.00    +0.000 N 
ATOM      9  N   UNL     1       1.491  -0.469   1.696  0.00  0.00    +0.000 NA
ATOM     10  C   UNL     1       0.553  -0.255   2.647  0.00  0.00    +0.000 A 
ATOM     11  H   UNL     1       3.124  -0.588  -0.025  0.00  0.00    +0.000 HD
BRANCH   4  13
ATOM     12  N   UNL     1      -1.508   1.334   5.005  0.00  0.00    +0.000 NA
ATOM     13  C   UNL     1      -0.704   1.172   4.183  0.00  0.00    +0.000 C 
ENDBRANCH   4  13
ENDBRANCH   1   8
BRANCH   1  14
ATOM     14  C   UNL     1       5.664   0.468  -0.167  0.00  0.00    +0.000 A 
ATOM     15  C   UNL     1       6.190   0.237  -1.443  0.00  0.00    +0.000 A 
ATOM     16  C   UNL     1       7.541  -0.064  -1.608  0.00  0.00    +0.000 A 
ATOM     17  C   UNL     1       8.377  -0.193  -0.497  0.00  0.00    +0.000 A 
ATOM     18  C   UNL     1       7.844  -0.140   0.786  0.00  0.00    +0.000 A 
ATOM     19  C   UNL     1       6.490   0.181   0.937  0.00  0.00    +0.000 A 
BRANCH  18  20
ATOM     20  O   UNL     1       8.509  -0.294   1.963  0.00  0.00    +0.000 OA
BRANCH  20  21
ATOM     21  C   UNL     1       9.806  -0.865   2.008  0.00  0.00    +0.000 C 
ATOM     22  F   UNL     1      10.149  -1.556   0.902  0.00  0.00    +0.000 F 
ATOM     23  F   UNL     1      10.721   0.105   2.222  0.00  0.00    +0.000 F 
ATOM     24  F   UNL     1       9.853  -1.723   3.053  0.00  0.00    +0.000 F 
ENDBRANCH  20  21
ENDBRANCH  18  20
ENDBRANCH   1  14
TORSDOF 5
