REMARK  Name = 
REMARK  6 active torsions:
REMARK  status: ('A' for Active; 'I' for Inactive)
REMARK    1  A    between atoms: C_2  and  C_25
REMARK    2  A    between atoms: N_3  and  C_4
REMARK    3  A    between atoms: C_4  and  C_5
REMARK    4  A    between atoms: C_8  and  C_9
REMARK    5  A    between atoms: C_9  and  N_10
REMARK    6  A    between atoms: C_11  and  C_13
REMARK                            x       y       z     vdW  Elec       q    Type
REMARK                         _______ _______ _______ _____ _____    ______ ____
ROOT
ATOM      1  C   UNL     1       3.317  -3.034   1.868  0.00  0.00    +0.000 A 
ATOM      2  C   UNL     1       4.438  -2.574   2.559  0.00  0.00    +0.000 A 
ATOM      3  C   UNL     1       5.298  -3.498   3.153  0.00  0.00    +0.000 A 
ATOM      4  C   UNL     1       5.035  -4.863   3.037  0.00  0.00    +0.000 A 
ATOM      5  C   UNL     1       3.886  -5.229   2.345  0.00  0.00    +0.000 A 
ATOM      6  N   UNL     1       3.034  -4.356   1.755  0.00  0.00    +0.000 NA
ENDROOT
BRANCH   1   7
ATOM      7  C   UNL     1       2.362  -2.061   1.214  0.00  0.00    +0.000 C 
BRANCH   7  10
ATOM      8  O   UNL     1       4.010   0.104   0.611  0.00  0.00    +0.000 OA
ATOM      9  C   UNL     1       3.592  -0.578  -0.324  0.00  0.00    +0.000 C 
ATOM     10  N   UNL     1       2.772  -1.660  -0.119  0.00  0.00    +0.000 N 
ATOM     11  H   UNL     1       2.535  -2.249  -0.909  0.00  0.00    +0.000 HD
BRANCH   9  12
ATOM     12  C   UNL     1       3.920  -0.289  -1.705  0.00  0.00    +0.000 A 
ATOM     13  C   UNL     1       4.765   0.670  -2.234  0.00  0.00    +0.000 A 
ATOM     14  C   UNL     1       4.697   0.550  -3.640  0.00  0.00    +0.000 A 
ATOM     15  C   UNL     1       3.816  -0.476  -3.891  0.00  0.00    +0.000 A 
ATOM     16  O   UNL     1       3.344  -1.000  -2.727  0.00  0.00    +0.000 OA
ENDBRANCH   9  12
ENDBRANCH   7  10
ENDBRANCH   1   7
BRANCH   4  17
ATOM     17  C   UNL     1       5.925  -5.900   3.654  0.00  0.00    +0.000 C 
BRANCH  17  18
ATOM     18  N   UNL     1       5.519  -6.217   4.999  0.00  0.00    +0.000 N 
ATOM     19  C   UNL     1       6.233  -7.094   5.776  0.00  0.00    +0.000 C 
ATOM     20  O   UNL     1       7.281  -7.602   5.388  0.00  0.00    +0.000 OA
ATOM     21  H   UNL     1       4.562  -5.996   5.257  0.00  0.00    +0.000 HD
BRANCH  19  22
ATOM     22  C   UNL     1       5.708  -7.348   7.124  0.00  0.00    +0.000 A 
ATOM     23  C   UNL     1       6.563  -7.792   8.125  0.00  0.00    +0.000 A 
ATOM     24  S   UNL     1       5.801  -7.986   9.639  0.00  0.00    +0.000 S 
ATOM     25  C   UNL     1       4.290  -7.539   8.998  0.00  0.00    +0.000 A 
ATOM     26  N   UNL     1       3.175  -7.521   9.778  0.00  0.00    +0.000 NA
ATOM     27  C   UNL     1       2.092  -7.198   9.153  0.00  0.00    +0.000 A 
ATOM     28  N   UNL     1       2.023  -6.883   7.821  0.00  0.00    +0.000 N 
ATOM     29  C   UNL     1       3.127  -6.852   7.004  0.00  0.00    +0.000 A 
ATOM     30  O   UNL     1       3.042  -6.513   5.828  0.00  0.00    +0.000 OA
ATOM     31  C   UNL     1       4.370  -7.226   7.652  0.00  0.00    +0.000 A 
ATOM     32  H   UNL     1       1.145  -6.625   7.395  0.00  0.00    +0.000 HD
ENDBRANCH  19  22
ENDBRANCH  17  18
ENDBRANCH   4  17
TORSDOF 6
