REMARK  Name = 
REMARK  7 active torsions:
REMARK  status: ('A' for Active; 'I' for Inactive)
REMARK    1  A    between atoms: C_1  and  C_2
REMARK    2  A    between atoms: C_2  and  C_3
REMARK    3  A    between atoms: C_2  and  C_17
REMARK    4  A    between atoms: C_3  and  N_4
REMARK    5  A    between atoms: C_5  and  C_7
REMARK    6  A    between atoms: C_20  and  C_21
REMARK    7  A    between atoms: C_21  and  N_22
REMARK                            x       y       z     vdW  Elec       q    Type
REMARK                         _______ _______ _______ _____ _____    ______ ____
ROOT
ATOM      1  C   UNL     1       2.883   0.916  -1.167  0.00  0.00    +0.000 C 
ATOM      2  C   UNL     1       2.615   0.048   0.079  0.00  0.00    +0.000 C 
ENDROOT
BRANCH   2   3
ATOM      3  C   UNL     1       2.973   0.758   1.397  0.00  0.00    +0.000 A 
ATOM      4  C   UNL     1       2.913   2.156   1.522  0.00  0.00    +0.000 A 
ATOM      5  C   UNL     1       3.206   2.798   2.730  0.00  0.00    +0.000 A 
ATOM      6  C   UNL     1       3.562   2.063   3.863  0.00  0.00    +0.000 A 
ATOM      7  C   UNL     1       3.588   0.670   3.768  0.00  0.00    +0.000 A 
ATOM      8  C   UNL     1       3.295   0.032   2.556  0.00  0.00    +0.000 A 
BRANCH   6   9
ATOM      9  C   UNL     1       3.857   2.747   5.171  0.00  0.00    +0.000 C 
BRANCH   9  10
ATOM     10  N   UNL     1       2.650   2.942   5.940  0.00  0.00    +0.000 N 
ATOM     11  C   UNL     1       2.735   3.491   7.190  0.00  0.00    +0.000 C 
ATOM     12  O   UNL     1       3.812   3.747   7.723  0.00  0.00    +0.000 OA
ATOM     13  N   UNL     1       1.533   3.737   7.804  0.00  0.00    +0.000 N 
ATOM     14  C   UNL     1       0.201   3.345   7.382  0.00  0.00    +0.000 C 
ATOM     15  C   UNL     1      -0.695   4.326   8.117  0.00  0.00    +0.000 C 
ATOM     16  C   UNL     1       0.016   4.518   9.453  0.00  0.00    +0.000 C 
ATOM     17  C   UNL     1       1.495   4.330   9.130  0.00  0.00    +0.000 C 
ATOM     18  H   UNL     1       1.832   3.189   5.409  0.00  0.00    +0.000 HD
ENDBRANCH   9  10
ENDBRANCH   6   9
ENDBRANCH   2   3
BRANCH   2  19
ATOM     19  C   UNL     1       3.335  -1.317  -0.098  0.00  0.00    +0.000 C 
BRANCH  19  20
ATOM     20  N   UNL     1       2.947  -2.039  -1.295  0.00  0.00    +0.000 N 
ATOM     21  C   UNL     1       1.819  -2.818  -1.358  0.00  0.00    +0.000 C 
ATOM     22  O   UNL     1       1.045  -2.925  -0.411  0.00  0.00    +0.000 OA
ATOM     23  H   UNL     1       3.634  -2.094  -2.040  0.00  0.00    +0.000 HD
BRANCH  21  24
ATOM     24  C   UNL     1       1.547  -3.468  -2.647  0.00  0.00    +0.000 A 
ATOM     25  C   UNL     1       0.255  -3.874  -2.953  0.00  0.00    +0.000 A 
ATOM     26  S   UNL     1       0.100  -4.544  -4.514  0.00  0.00    +0.000 S 
ATOM     27  C   UNL     1       1.764  -4.364  -4.816  0.00  0.00    +0.000 A 
ATOM     28  N   UNL     1       2.309  -4.765  -5.999  0.00  0.00    +0.000 NA
ATOM     29  C   UNL     1       3.590  -4.614  -6.075  0.00  0.00    +0.000 A 
ATOM     30  N   UNL     1       4.376  -4.099  -5.076  0.00  0.00    +0.000 N 
ATOM     31  C   UNL     1       3.863  -3.633  -3.888  0.00  0.00    +0.000 A 
ATOM     32  O   UNL     1       4.588  -3.108  -3.048  0.00  0.00    +0.000 OA
ATOM     33  C   UNL     1       2.429  -3.797  -3.743  0.00  0.00    +0.000 A 
ATOM     34  H   UNL     1       5.371  -4.001  -5.203  0.00  0.00    +0.000 HD
ENDBRANCH  21  24
ENDBRANCH  19  20
ENDBRANCH   2  19
TORSDOF 6
