REMARK  Name = 
REMARK  9 active torsions:
REMARK  status: ('A' for Active; 'I' for Inactive)
REMARK    1  A    between atoms: C_1  and  C_2
REMARK    2  A    between atoms: C_2  and  C_3
REMARK    3  A    between atoms: C_3  and  N_4
REMARK    4  A    between atoms: N_4  and  C_5
REMARK    5  A    between atoms: C_5  and  C_6
REMARK    6  A    between atoms: C_9  and  C_10
REMARK    7  A    between atoms: C_10  and  O_11
REMARK    8  A    between atoms: O_11  and  C_12
REMARK    9  A    between atoms: C_20  and  C_22
REMARK                            x       y       z     vdW  Elec       q    Type
REMARK                         _______ _______ _______ _____ _____    ______ ____
ROOT
ATOM      1  N   UNL     1       4.741   0.846  -1.013  0.00  0.00    +0.000 N 
ATOM      2  C   UNL     1       5.133   0.246  -2.235  0.00  0.00    +0.000 C 
ATOM      3  O   UNL     1       4.620   0.657  -3.277  0.00  0.00    +0.000 OA
ENDROOT
BRANCH   2   4
ATOM      4  C   UNL     1       6.099  -0.885  -2.320  0.00  0.00    +0.000 A 
ATOM      5  C   UNL     1       6.536  -1.700  -1.288  0.00  0.00    +0.000 A 
ATOM      6  S   UNL     1       7.509  -3.018  -1.749  0.00  0.00    +0.000 S 
ATOM      7  C   UNL     1       7.399  -2.576  -3.377  0.00  0.00    +0.000 A 
ATOM      8  N   UNL     1       7.986  -3.352  -4.324  0.00  0.00    +0.000 NA
ATOM      9  C   UNL     1       7.801  -2.941  -5.532  0.00  0.00    +0.000 A 
ATOM     10  N   UNL     1       7.110  -1.807  -5.868  0.00  0.00    +0.000 N 
ATOM     11  C   UNL     1       6.626  -0.912  -4.931  0.00  0.00    +0.000 A 
ATOM     12  O   UNL     1       6.282   0.208  -5.291  0.00  0.00    +0.000 OA
ATOM     13  C   UNL     1       6.687  -1.400  -3.560  0.00  0.00    +0.000 A 
ATOM     14  H   UNL     1       7.082  -1.489  -6.825  0.00  0.00    +0.000 HD
ENDBRANCH   2   4
BRANCH   1  15
ATOM     15  C   UNL     1       3.765   1.955  -1.085  0.00  0.00    +0.000 C 
BRANCH  15  17
ATOM     16  C   UNL     1       5.485   3.751  -1.747  0.00  0.00    +0.000 C 
ATOM     17  C   UNL     1       4.358   3.349  -0.807  0.00  0.00    +0.000 C 
ENDBRANCH  15  17
ENDBRANCH   1  15
BRANCH   1  18
ATOM     18  C   UNL     1       5.280   0.573   0.319  0.00  0.00    +0.000 C 
BRANCH  18  19
ATOM     19  C   UNL     1       4.430  -0.321   1.207  0.00  0.00    +0.000 A 
ATOM     20  C   UNL     1       3.939  -1.579   0.821  0.00  0.00    +0.000 A 
ATOM     21  C   UNL     1       3.215  -2.384   1.713  0.00  0.00    +0.000 A 
ATOM     22  C   UNL     1       2.899  -1.919   2.992  0.00  0.00    +0.000 A 
ATOM     23  C   UNL     1       3.418  -0.687   3.402  0.00  0.00    +0.000 A 
ATOM     24  C   UNL     1       4.178   0.094   2.525  0.00  0.00    +0.000 A 
BRANCH  22  25
ATOM     25  C   UNL     1       1.940  -2.680   3.877  0.00  0.00    +0.000 C 
BRANCH  25  26
ATOM     26  O   UNL     1       2.618  -3.582   4.745  0.00  0.00    +0.000 OA
BRANCH  26  27
ATOM     27  C   UNL     1       1.812  -4.303   5.586  0.00  0.00    +0.000 A 
ATOM     28  C   UNL     1       0.425  -4.204   5.697  0.00  0.00    +0.000 A 
ATOM     29  C   UNL     1      -0.263  -5.008   6.609  0.00  0.00    +0.000 A 
ATOM     30  C   UNL     1       0.469  -5.891   7.385  0.00  0.00    +0.000 A 
ATOM     31  N   UNL     1       1.807  -6.020   7.308  0.00  0.00    +0.000 NA
ATOM     32  C   UNL     1       2.446  -5.224   6.415  0.00  0.00    +0.000 A 
ENDBRANCH  26  27
ENDBRANCH  25  26
ENDBRANCH  22  25
ENDBRANCH  18  19
ENDBRANCH   1  18
TORSDOF 8
