REMARK  Name = 
REMARK  5 active torsions:
REMARK  status: ('A' for Active; 'I' for Inactive)
REMARK    1  A    between atoms: C_2  and  C_19
REMARK    2  A    between atoms: N_3  and  C_4
REMARK    3  A    between atoms: C_4  and  C_5
REMARK    4  A    between atoms: C_8  and  O_9
REMARK    5  A    between atoms: O_9  and  C_10
REMARK                            x       y       z     vdW  Elec       q    Type
REMARK                         _______ _______ _______ _____ _____    ______ ____
ROOT
ATOM      1  O   UNL     1       2.879  -2.274   0.705  0.00  0.00    +0.000 OA
ATOM      2  C   UNL     1       3.243  -1.199   0.236  0.00  0.00    +0.000 C 
ATOM      3  N   UNL     1       2.925  -0.801  -1.036  0.00  0.00    +0.000 N 
ATOM      4  H   UNL     1       3.417  -0.013  -1.441  0.00  0.00    +0.000 HD
ENDROOT
BRANCH   2   5
ATOM      5  C   UNL     1       4.001  -0.232   1.040  0.00  0.00    +0.000 A 
ATOM      6  C   UNL     1       3.944  -0.290   2.426  0.00  0.00    +0.000 A 
ATOM      7  S   UNL     1       4.857   0.925   3.198  0.00  0.00    +0.000 S 
ATOM      8  C   UNL     1       5.403   1.542   1.709  0.00  0.00    +0.000 A 
ATOM      9  N   UNL     1       6.260   2.596   1.658  0.00  0.00    +0.000 NA
ATOM     10  C   UNL     1       6.623   2.930   0.465  0.00  0.00    +0.000 A 
ATOM     11  N   UNL     1       6.202   2.312  -0.683  0.00  0.00    +0.000 N 
ATOM     12  C   UNL     1       5.280   1.294  -0.684  0.00  0.00    +0.000 A 
ATOM     13  O   UNL     1       4.827   0.853  -1.736  0.00  0.00    +0.000 OA
ATOM     14  C   UNL     1       4.871   0.848   0.635  0.00  0.00    +0.000 A 
ATOM     15  H   UNL     1       6.503   2.641  -1.588  0.00  0.00    +0.000 HD
ENDBRANCH   2   5
BRANCH   3  16
ATOM     16  C   UNL     1       2.259  -1.664  -1.975  0.00  0.00    +0.000 C 
BRANCH  16  17
ATOM     17  C   UNL     1       3.257  -2.404  -2.826  0.00  0.00    +0.000 A 
ATOM     18  C   UNL     1       3.764  -3.632  -2.387  0.00  0.00    +0.000 A 
ATOM     19  C   UNL     1       4.673  -4.341  -3.169  0.00  0.00    +0.000 A 
ATOM     20  C   UNL     1       5.059  -3.848  -4.417  0.00  0.00    +0.000 A 
ATOM     21  C   UNL     1       4.618  -2.591  -4.831  0.00  0.00    +0.000 A 
ATOM     22  C   UNL     1       3.722  -1.869  -4.036  0.00  0.00    +0.000 A 
BRANCH  20  23
ATOM     23  O   UNL     1       5.920  -4.516  -5.260  0.00  0.00    +0.000 OA
BRANCH  23  24
ATOM     24  C   UNL     1       5.788  -5.899  -5.362  0.00  0.00    +0.000 A 
ATOM     25  N   UNL     1       4.577  -6.460  -5.129  0.00  0.00    +0.000 NA
ATOM     26  C   UNL     1       4.521  -7.795  -5.194  0.00  0.00    +0.000 A 
ATOM     27  N   UNL     1       5.542  -8.605  -5.504  0.00  0.00    +0.000 NA
ATOM     28  C   UNL     1       6.717  -7.992  -5.773  0.00  0.00    +0.000 A 
ATOM     29  C   UNL     1       6.905  -6.629  -5.721  0.00  0.00    +0.000 A 
ATOM     30 CL   UNL     1       8.435  -5.936  -6.064  0.00  0.00    +0.000 Cl
ENDBRANCH  23  24
ENDBRANCH  20  23
ENDBRANCH  16  17
ENDBRANCH   3  16
TORSDOF 5
