REMARK  Name = 
REMARK  8 active torsions:
REMARK  status: ('A' for Active; 'I' for Inactive)
REMARK    1  A    between atoms: C_1  and  O_2
REMARK    2  A    between atoms: O_2  and  C_3
REMARK    3  A    between atoms: C_10  and  C_11
REMARK    4  A    between atoms: N_13  and  C_14
REMARK    5  A    between atoms: C_14  and  C_15
REMARK    6  A    between atoms: C_18  and  S_19
REMARK    7  A    between atoms: S_19  and  C_20
REMARK    8  A    between atoms: C_20  and  C_21
REMARK                            x       y       z     vdW  Elec       q    Type
REMARK                         _______ _______ _______ _____ _____    ______ ____
ROOT
ATOM      1  C   UNL     1       2.794  -2.845  -2.003  0.00  0.00    +0.000 C 
ENDROOT
BRANCH   1   2
ATOM      2  C   UNL     1       1.666  -3.297  -1.111  0.00  0.00    +0.000 A 
ATOM      3  C   UNL     1       1.590  -4.621  -0.658  0.00  0.00    +0.000 A 
ATOM      4  C   UNL     1       0.609  -5.007   0.268  0.00  0.00    +0.000 A 
ATOM      5  C   UNL     1      -0.313  -4.079   0.761  0.00  0.00    +0.000 A 
ATOM      6  C   UNL     1      -0.285  -2.777   0.246  0.00  0.00    +0.000 A 
ATOM      7  C   UNL     1       0.690  -2.390  -0.682  0.00  0.00    +0.000 A 
BRANCH   5   8
ATOM      8  S   UNL     1      -1.563  -4.478   1.982  0.00  0.00    +0.000 S 
BRANCH   8   9
ATOM      9  C   UNL     1      -0.655  -5.584   3.117  0.00  0.00    +0.000 C 
BRANCH   9  10
ATOM     10  C   UNL     1      -1.484  -5.989   4.317  0.00  0.00    +0.000 A 
ATOM     11  C   UNL     1      -2.387  -7.062   4.228  0.00  0.00    +0.000 A 
ATOM     12  C   UNL     1      -3.120  -7.479   5.344  0.00  0.00    +0.000 A 
ATOM     13  C   UNL     1      -2.963  -6.826   6.563  0.00  0.00    +0.000 A 
ATOM     14  C   UNL     1      -2.087  -5.752   6.652  0.00  0.00    +0.000 A 
ATOM     15  F   UNL     1      -1.937  -5.122   7.825  0.00  0.00    +0.000 F 
ATOM     16  C   UNL     1      -1.354  -5.325   5.545  0.00  0.00    +0.000 A 
ENDBRANCH   9  10
ENDBRANCH   8   9
ENDBRANCH   5   8
ENDBRANCH   1   2
BRANCH   1  19
ATOM     17  C   UNL     1       3.421  -2.591  -4.348  0.00  0.00    +0.000 C 
ATOM     18  O   UNL     1       4.508  -2.129  -4.011  0.00  0.00    +0.000 OA
ATOM     19  N   UNL     1       2.498  -2.974  -3.408  0.00  0.00    +0.000 N 
ATOM     20  H   UNL     1       1.604  -3.357  -3.683  0.00  0.00    +0.000 HD
BRANCH  17  28
ATOM     21  C   UNL     1       0.647  -3.806  -6.003  0.00  0.00    +0.000 A 
ATOM     22  N   UNL     1      -0.264  -4.255  -6.891  0.00  0.00    +0.000 NA
ATOM     23  C   UNL     1       0.026  -4.167  -8.191  0.00  0.00    +0.000 A 
ATOM     24  N   UNL     1       1.135  -3.672  -8.731  0.00  0.00    +0.000 NA
ATOM     25  C   UNL     1       2.022  -3.250  -7.814  0.00  0.00    +0.000 A 
ATOM     26  S   UNL     1       3.495  -2.580  -8.326  0.00  0.00    +0.000 S 
ATOM     27  C   UNL     1       3.996  -2.335  -6.723  0.00  0.00    +0.000 A 
ATOM     28  C   UNL     1       3.071  -2.751  -5.770  0.00  0.00    +0.000 A 
ATOM     29  C   UNL     1       1.882  -3.285  -6.429  0.00  0.00    +0.000 A 
BRANCH  21  31
ATOM     30  C   UNL     1      -1.068  -3.909  -4.423  0.00  0.00    +0.000 C 
ATOM     31  O   UNL     1       0.340  -3.889  -4.661  0.00  0.00    +0.000 OA
ENDBRANCH  21  31
ENDBRANCH  17  28
ENDBRANCH   1  19
TORSDOF 7
