REMARK  Name = 
REMARK  7 active torsions:
REMARK  status: ('A' for Active; 'I' for Inactive)
REMARK    1  A    between atoms: C_2  and  C_21
REMARK    2  A    between atoms: N_3  and  C_4
REMARK    3  A    between atoms: C_4  and  C_5
REMARK    4  A    between atoms: C_9  and  C_10
REMARK    5  A    between atoms: C_10  and  N_11
REMARK    6  A    between atoms: N_11  and  C_12
REMARK    7  A    between atoms: C_12  and  C_13
REMARK                            x       y       z     vdW  Elec       q    Type
REMARK                         _______ _______ _______ _____ _____    ______ ____
ROOT
ATOM      1  C   UNL     1       3.127  -2.515   2.630  0.00  0.00    +0.000 A 
ATOM      2  C   UNL     1       3.025  -3.906   2.703  0.00  0.00    +0.000 A 
ATOM      3  C   UNL     1       3.878  -4.588   3.554  0.00  0.00    +0.000 A 
ATOM      4  N   UNL     1       4.816  -3.991   4.320  0.00  0.00    +0.000 NA
ATOM      5  C   UNL     1       4.930  -2.641   4.221  0.00  0.00    +0.000 A 
ATOM      6  C   UNL     1       4.118  -1.880   3.384  0.00  0.00    +0.000 A 
ENDROOT
BRANCH   1   7
ATOM      7  C   UNL     1       2.199  -1.707   1.765  0.00  0.00    +0.000 C 
BRANCH   7  10
ATOM      8  O   UNL     1       3.662   0.483   0.781  0.00  0.00    +0.000 OA
ATOM      9  C   UNL     1       3.436  -0.464   0.032  0.00  0.00    +0.000 C 
ATOM     10  N   UNL     1       2.707  -1.555   0.427  0.00  0.00    +0.000 N 
ATOM     11  H   UNL     1       2.674  -2.376  -0.168  0.00  0.00    +0.000 HD
BRANCH   9  12
ATOM     12  C   UNL     1       3.901  -0.465  -1.361  0.00  0.00    +0.000 A 
ATOM     13  C   UNL     1       4.174   0.737  -2.000  0.00  0.00    +0.000 A 
ATOM     14  S   UNL     1       4.738   0.547  -3.598  0.00  0.00    +0.000 S 
ATOM     15  C   UNL     1       4.667  -1.149  -3.481  0.00  0.00    +0.000 A 
ATOM     16  N   UNL     1       5.071  -1.938  -4.509  0.00  0.00    +0.000 NA
ATOM     17  C   UNL     1       5.001  -3.207  -4.269  0.00  0.00    +0.000 A 
ATOM     18  N   UNL     1       4.541  -3.757  -3.102  0.00  0.00    +0.000 N 
ATOM     19  C   UNL     1       4.042  -2.998  -2.069  0.00  0.00    +0.000 A 
ATOM     20  O   UNL     1       3.486  -3.521  -1.110  0.00  0.00    +0.000 OA
ATOM     21  C   UNL     1       4.172  -1.564  -2.257  0.00  0.00    +0.000 A 
ATOM     22  H   UNL     1       4.469  -4.757  -2.997  0.00  0.00    +0.000 HD
ENDBRANCH   9  12
ENDBRANCH   7  10
ENDBRANCH   1   7
BRANCH   5  23
ATOM     23  C   UNL     1       5.996  -1.967   5.064  0.00  0.00    +0.000 C 
BRANCH  23  24
ATOM     24  N   UNL     1       7.353  -2.492   4.859  0.00  0.00    +0.000 NA
ATOM     25  H   UNL     1       7.302  -3.507   4.990  0.00  0.00    +0.000 HD
BRANCH  24  26
ATOM     26  C   UNL     1       7.821  -2.262   3.484  0.00  0.00    +0.000 C 
BRANCH  26  27
ATOM     27  C   UNL     1       9.236  -2.766   3.287  0.00  0.00    +0.000 A 
ATOM     28  N   UNL     1       9.351  -4.075   2.909  0.00  0.00    +0.000 NA
ATOM     29  C   UNL     1      10.593  -4.579   2.756  0.00  0.00    +0.000 A 
ATOM     30  C   UNL     1      11.748  -3.845   2.955  0.00  0.00    +0.000 A 
ATOM     31  C   UNL     1      11.623  -2.514   3.341  0.00  0.00    +0.000 A 
ATOM     32  C   UNL     1      10.354  -1.961   3.518  0.00  0.00    +0.000 A 
ATOM     33 CL   UNL     1      10.248  -0.310   4.006  0.00  0.00    +0.000 Cl
ENDBRANCH  26  27
ENDBRANCH  24  26
ENDBRANCH  23  24
ENDBRANCH   5  23
TORSDOF 7
