REMARK  Name = 
REMARK  5 active torsions:
REMARK  status: ('A' for Active; 'I' for Inactive)
REMARK    1  A    between atoms: N_1  and  C_2
REMARK    2  A    between atoms: C_2  and  C_3
REMARK    3  A    between atoms: C_6  and  O_7
REMARK    4  A    between atoms: O_7  and  C_8
REMARK    5  A    between atoms: C_8  and  C_9
REMARK                            x       y       z     vdW  Elec       q    Type
REMARK                         _______ _______ _______ _____ _____    ______ ____
ROOT
ATOM      1  C   UNL     1       2.945  -1.179   0.665  0.00  0.00    +0.000 A 
ATOM      2  C   UNL     1       3.506  -1.191   1.951  0.00  0.00    +0.000 A 
ATOM      3  C   UNL     1       3.796  -2.400   2.589  0.00  0.00    +0.000 A 
ATOM      4  C   UNL     1       3.514  -3.611   1.957  0.00  0.00    +0.000 A 
ATOM      5  C   UNL     1       3.018  -3.605   0.652  0.00  0.00    +0.000 A 
ATOM      6  C   UNL     1       2.722  -2.399   0.016  0.00  0.00    +0.000 A 
ENDROOT
BRANCH   1   7
ATOM      7  C   UNL     1       2.559   0.114  -0.004  0.00  0.00    +0.000 C 
BRANCH   7   8
ATOM      8  N   UNL     1       3.708   0.987  -0.196  0.00  0.00    +0.000 NA
ATOM      9  H   UNL     1       3.433   1.770  -0.785  0.00  0.00    +0.000 HD
ATOM     10  H   UNL     1       4.425   0.477  -0.710  0.00  0.00    +0.000 HD
ENDBRANCH   7   8
ENDBRANCH   1   7
BRANCH   4  11
ATOM     11  O   UNL     1       3.748  -4.742   2.695  0.00  0.00    +0.000 OA
BRANCH  11  12
ATOM     12  C   UNL     1       2.965  -5.875   2.304  0.00  0.00    +0.000 C 
BRANCH  12  13
ATOM     13  C   UNL     1       2.846  -6.864   3.428  0.00  0.00    +0.000 A 
ATOM     14  C   UNL     1       3.861  -7.088   4.351  0.00  0.00    +0.000 A 
ATOM     15  C   UNL     1       3.658  -8.047   5.326  0.00  0.00    +0.000 A 
ATOM     16  N   UNL     1       2.527  -8.779   5.408  0.00  0.00    +0.000 NA
ATOM     17  N   UNL     1       1.539  -8.579   4.502  0.00  0.00    +0.000 NA
ATOM     18  C   UNL     1       1.705  -7.646   3.541  0.00  0.00    +0.000 A 
ENDBRANCH  12  13
ENDBRANCH  11  12
ENDBRANCH   4  11
TORSDOF 5
