REMARK  Name = 
REMARK  7 active torsions:
REMARK  status: ('A' for Active; 'I' for Inactive)
REMARK    1  A    between atoms: C_2  and  C_4
REMARK    2  A    between atoms: C_7  and  N_8
REMARK    3  A    between atoms: N_8  and  C_9
REMARK    4  A    between atoms: C_9  and  C_10
REMARK    5  A    between atoms: C_10  and  C_11
REMARK    6  A    between atoms: C_15  and  O_16
REMARK    7  A    between atoms: O_16  and  C_17
REMARK                            x       y       z     vdW  Elec       q    Type
REMARK                         _______ _______ _______ _____ _____    ______ ____
ROOT
ATOM      1  C   UNL     1       4.902   0.008  -6.051  0.00  0.00    +0.000 C 
ENDROOT
BRANCH   1   2
ATOM      2  N   UNL     1       5.263  -0.720  -4.829  0.00  0.00    +0.000 N 
ATOM      3  H   UNL     1       5.469  -1.702  -4.998  0.00  0.00    +0.000 HD
BRANCH   2   7
ATOM      4  C   UNL     1       3.235  -0.243  -1.219  0.00  0.00    +0.000 A 
ATOM      5  C   UNL     1       3.198   0.808  -2.125  0.00  0.00    +0.000 A 
ATOM      6  C   UNL     1       3.851   0.656  -3.351  0.00  0.00    +0.000 A 
ATOM      7  C   UNL     1       4.508  -0.535  -3.664  0.00  0.00    +0.000 A 
ATOM      8  C   UNL     1       4.498  -1.516  -2.660  0.00  0.00    +0.000 A 
ATOM      9  N   UNL     1       3.876  -1.418  -1.457  0.00  0.00    +0.000 NA
BRANCH   4  11
ATOM     10  N   UNL     1       2.701  -1.154   0.967  0.00  0.00    +0.000 N 
ATOM     11  C   UNL     1       2.564  -0.093   0.111  0.00  0.00    +0.000 C 
ATOM     12  O   UNL     1       1.938   0.908   0.430  0.00  0.00    +0.000 OA
ATOM     13  H   UNL     1       2.313  -1.090   1.897  0.00  0.00    +0.000 HD
ATOM     14  H   UNL     1       3.276  -1.944   0.701  0.00  0.00    +0.000 HD
ENDBRANCH   4  11
ENDBRANCH   2   7
ENDBRANCH   1   2
BRANCH   1  15
ATOM     15  C   UNL     1       5.842  -0.398  -7.198  0.00  0.00    +0.000 C 
BRANCH  15  16
ATOM     16  C   UNL     1       5.547   0.317  -8.492  0.00  0.00    +0.000 A 
ATOM     17  C   UNL     1       6.116   1.564  -8.744  0.00  0.00    +0.000 A 
ATOM     18  N   UNL     1       5.897   2.282  -9.864  0.00  0.00    +0.000 NA
ATOM     19  C   UNL     1       5.081   1.724 -10.787  0.00  0.00    +0.000 A 
ATOM     20  C   UNL     1       4.475   0.481 -10.654  0.00  0.00    +0.000 A 
ATOM     21  C   UNL     1       4.699  -0.226  -9.474  0.00  0.00    +0.000 A 
BRANCH  20  22
ATOM     22  O   UNL     1       3.680   0.088 -11.697  0.00  0.00    +0.000 OA
BRANCH  22  23
ATOM     23  C   UNL     1       3.395  -1.314 -11.893  0.00  0.00    +0.000 C 
ATOM     24  C   UNL     1       4.545  -2.248 -12.339  0.00  0.00    +0.000 C 
ATOM     25  N   UNL     1       3.627  -2.890 -13.307  0.00  0.00    +0.000 NA
ATOM     26  C   UNL     1       2.793  -1.668 -13.278  0.00  0.00    +0.000 C 
ATOM     27  H   UNL     1       3.149  -3.714 -12.941  0.00  0.00    +0.000 HD
ENDBRANCH  22  23
ENDBRANCH  20  22
ENDBRANCH  15  16
ENDBRANCH   1  15
TORSDOF 7
