REMARK  Name = 
REMARK  5 active torsions:
REMARK  status: ('A' for Active; 'I' for Inactive)
REMARK    1  A    between atoms: C_2  and  C_4
REMARK    2  A    between atoms: C_7  and  O_8
REMARK    3  A    between atoms: O_8  and  C_9
REMARK    4  A    between atoms: C_9  and  C_10
REMARK    5  A    between atoms: C_14  and  C_15
REMARK                            x       y       z     vdW  Elec       q    Type
REMARK                         _______ _______ _______ _____ _____    ______ ____
ROOT
ATOM      1  C   UNL     1       6.214  -5.075   0.724  0.00  0.00    +0.000 C 
ENDROOT
BRANCH   1   2
ATOM      2  C   UNL     1       6.751  -6.468   0.568  0.00  0.00    +0.000 A 
ATOM      3  C   UNL     1       5.947  -7.573   0.813  0.00  0.00    +0.000 A 
ATOM      4  N   UNL     1       6.364  -8.847   0.683  0.00  0.00    +0.000 NA
ATOM      5  C   UNL     1       7.649  -9.033   0.294  0.00  0.00    +0.000 A 
ATOM      6  C   UNL     1       8.559  -8.014  -0.001  0.00  0.00    +0.000 A 
ATOM      7  C   UNL     1       8.069  -6.707   0.148  0.00  0.00    +0.000 A 
BRANCH   6   8
ATOM      8  C   UNL     1       9.941  -8.297  -0.438  0.00  0.00    +0.000 A 
ATOM      9  C   UNL     1      10.268  -9.437  -1.188  0.00  0.00    +0.000 A 
ATOM     10  N   UNL     1      11.514  -9.770  -1.612  0.00  0.00    +0.000 NA
ATOM     11  C   UNL     1      12.508  -8.917  -1.282  0.00  0.00    +0.000 A 
ATOM     12  C   UNL     1      12.301  -7.760  -0.557  0.00  0.00    +0.000 A 
ATOM     13  F   UNL     1      13.323  -6.947  -0.264  0.00  0.00    +0.000 F 
ATOM     14  C   UNL     1      11.015  -7.448  -0.130  0.00  0.00    +0.000 A 
ENDBRANCH   6   8
ENDBRANCH   1   2
BRANCH   1  15
ATOM     15  O   UNL     1       6.996  -4.381   1.698  0.00  0.00    +0.000 OA
BRANCH  15  19
ATOM     16  C   UNL     1       6.055  -0.554   2.709  0.00  0.00    +0.000 A 
ATOM     17  N   UNL     1       5.262  -1.117   1.766  0.00  0.00    +0.000 NA
ATOM     18  C   UNL     1       5.574  -2.387   1.428  0.00  0.00    +0.000 A 
ATOM     19  C   UNL     1       6.618  -3.105   1.982  0.00  0.00    +0.000 A 
ATOM     20  C   UNL     1       7.348  -2.419   2.933  0.00  0.00    +0.000 A 
ATOM     21  N   UNL     1       7.096  -1.150   3.316  0.00  0.00    +0.000 NA
BRANCH  16  23
ATOM     22  N   UNL     1       4.636   1.423   2.462  0.00  0.00    +0.000 N 
ATOM     23  C   UNL     1       5.720   0.868   3.104  0.00  0.00    +0.000 C 
ATOM     24  O   UNL     1       6.347   1.514   3.935  0.00  0.00    +0.000 OA
ATOM     25  H   UNL     1       4.360   2.365   2.699  0.00  0.00    +0.000 HD
ATOM     26  H   UNL     1       4.108   0.884   1.785  0.00  0.00    +0.000 HD
ENDBRANCH  16  23
ENDBRANCH  15  19
ENDBRANCH   1  15
TORSDOF 5
