REMARK  Name = 
REMARK  4 active torsions:
REMARK  status: ('A' for Active; 'I' for Inactive)
REMARK    1  A    between atoms: N_1  and  C_2
REMARK    2  A    between atoms: C_2  and  C_3
REMARK    3  A    between atoms: C_6  and  C_7
REMARK    4  A    between atoms: C_7  and  C_8
REMARK                            x       y       z     vdW  Elec       q    Type
REMARK                         _______ _______ _______ _____ _____    ______ ____
ROOT
ATOM      1  C   UNL     1       3.928   1.582   1.047  0.00  0.00    +0.000 A 
ATOM      2  C   UNL     1       4.684   0.600   1.698  0.00  0.00    +0.000 A 
ATOM      3  C   UNL     1       4.644   0.498   3.085  0.00  0.00    +0.000 A 
ATOM      4  C   UNL     1       3.832   1.370   3.808  0.00  0.00    +0.000 A 
ATOM      5  N   UNL     1       3.059   2.298   3.190  0.00  0.00    +0.000 NA
ATOM      6  C   UNL     1       3.131   2.388   1.847  0.00  0.00    +0.000 A 
ENDROOT
BRANCH   1   7
ATOM      7  C   UNL     1       4.009   1.794  -0.437  0.00  0.00    +0.000 C 
BRANCH   7   8
ATOM      8  N   UNL     1       3.643   0.605  -1.195  0.00  0.00    +0.000 NA
ATOM      9  H   UNL     1       3.677   0.820  -2.189  0.00  0.00    +0.000 HD
ATOM     10  H   UNL     1       2.673   0.365  -0.988  0.00  0.00    +0.000 HD
ENDBRANCH   7   8
ENDBRANCH   1   7
BRANCH   4  11
ATOM     11  C   UNL     1       3.705   1.241   5.300  0.00  0.00    +0.000 C 
BRANCH  11  12
ATOM     12  C   UNL     1       4.495   2.313   5.974  0.00  0.00    +0.000 A 
ATOM     13  C   UNL     1       5.591   2.115   6.799  0.00  0.00    +0.000 A 
ATOM     14  O   UNL     1       5.894   3.243   7.491  0.00  0.00    +0.000 OA
ATOM     15  C   UNL     1       5.024   4.206   7.081  0.00  0.00    +0.000 A 
ATOM     16  C   UNL     1       4.923   5.491   7.586  0.00  0.00    +0.000 A 
ATOM     17  N   UNL     1       4.024   6.342   7.026  0.00  0.00    +0.000 NA
ATOM     18  C   UNL     1       3.268   5.899   5.993  0.00  0.00    +0.000 A 
ATOM     19  C   UNL     1       3.293   4.606   5.483  0.00  0.00    +0.000 A 
ATOM     20  C   UNL     1       4.202   3.714   6.074  0.00  0.00    +0.000 A 
ENDBRANCH  11  12
ENDBRANCH   4  11
TORSDOF 4
