REMARK  Name = 
REMARK  4 active torsions:
REMARK  status: ('A' for Active; 'I' for Inactive)
REMARK    1  A    between atoms: C_2  and  C_4
REMARK    2  A    between atoms: N_8  and  C_9
REMARK    3  A    between atoms: C_9  and  C_10
REMARK    4  A    between atoms: C_12  and  C_13
REMARK                            x       y       z     vdW  Elec       q    Type
REMARK                         _______ _______ _______ _____ _____    ______ ____
ROOT
ATOM      1  C   UNL     1       5.185  -1.633  -5.718  0.00  0.00    +0.000 C 
ATOM      2  C   UNL     1       5.201  -0.253  -6.357  0.00  0.00    +0.000 C 
ATOM      3  C   UNL     1       3.917  -1.013  -6.292  0.00  0.00    +0.000 C 
ENDROOT
BRANCH   1   8
ATOM      4  C   UNL     1       8.586  -0.315  -2.081  0.00  0.00    +0.000 A 
ATOM      5  C   UNL     1       8.784  -0.657  -3.416  0.00  0.00    +0.000 A 
ATOM      6  C   UNL     1       7.707  -1.143  -4.162  0.00  0.00    +0.000 A 
ATOM      7  C   UNL     1       6.454  -1.263  -3.565  0.00  0.00    +0.000 A 
ATOM      8  N   UNL     1       5.328  -1.725  -4.252  0.00  0.00    +0.000 N 
ATOM      9  N   UNL     1       6.257  -0.957  -2.266  0.00  0.00    +0.000 NA
ATOM     10  C   UNL     1       7.319  -0.502  -1.549  0.00  0.00    +0.000 A 
ATOM     11  H   UNL     1       4.517  -1.600  -3.655  0.00  0.00    +0.000 HD
BRANCH   4  13
ATOM     12  N   UNL     1      10.680   0.891  -1.821  0.00  0.00    +0.000 N 
ATOM     13  C   UNL     1       9.657   0.216  -1.212  0.00  0.00    +0.000 C 
ATOM     14  O   UNL     1       9.616   0.091   0.003  0.00  0.00    +0.000 OA
ATOM     15  H   UNL     1      11.352   1.336  -1.209  0.00  0.00    +0.000 HD
ATOM     16  H   UNL     1      10.623   1.225  -2.772  0.00  0.00    +0.000 HD
ENDBRANCH   4  13
ENDBRANCH   1   8
BRANCH   1  17
ATOM     17  C   UNL     1       5.714  -2.850  -6.498  0.00  0.00    +0.000 A 
ATOM     18  C   UNL     1       5.258  -4.138  -6.185  0.00  0.00    +0.000 A 
ATOM     19  C   UNL     1       5.687  -5.263  -6.907  0.00  0.00    +0.000 A 
ATOM     20  C   UNL     1       6.582  -5.027  -7.954  0.00  0.00    +0.000 A 
ATOM     21  C   UNL     1       6.995  -3.731  -8.217  0.00  0.00    +0.000 A 
ATOM     22  N   UNL     1       6.594  -2.655  -7.513  0.00  0.00    +0.000 NA
BRANCH  19  23
ATOM     23  C   UNL     1       5.207  -6.626  -6.583  0.00  0.00    +0.000 A 
ATOM     24  C   UNL     1       4.895  -7.024  -5.274  0.00  0.00    +0.000 A 
ATOM     25  C   UNL     1       4.442  -8.318  -5.008  0.00  0.00    +0.000 A 
ATOM     26  C   UNL     1       4.317  -9.201  -6.063  0.00  0.00    +0.000 A 
ATOM     27  N   UNL     1       4.604  -8.878  -7.339  0.00  0.00    +0.000 NA
ATOM     28  C   UNL     1       5.032  -7.609  -7.562  0.00  0.00    +0.000 A 
ENDBRANCH  19  23
ENDBRANCH   1  17
TORSDOF 4
