REMARK  Name = 
REMARK  13 active torsions:
REMARK  status: ('A' for Active; 'I' for Inactive)
REMARK    1  A    between atoms: C_1  and  N_2
REMARK    2  A    between atoms: N_2  and  C_3
REMARK    3  A    between atoms: N_2  and  C_4
REMARK    4  A    between atoms: C_4  and  C_5
REMARK    5  A    between atoms: C_5  and  C_6
REMARK    6  A    between atoms: C_6  and  C_7
REMARK    7  A    between atoms: N_9  and  C_10
REMARK    8  A    between atoms: C_10  and  C_11
REMARK    9  A    between atoms: C_11  and  C_12
REMARK   10  A    between atoms: C_11  and  C_23
REMARK   11  A    between atoms: C_12  and  O_13
REMARK   12  A    between atoms: O_13  and  C_14
REMARK   13  A    between atoms: C_17  and  C_18
REMARK                            x       y       z     vdW  Elec       q    Type
REMARK                         _______ _______ _______ _____ _____    ______ ____
ROOT
ATOM      1  C   UNL     1       9.180   1.669  -5.199  0.00  0.00    +0.000 C 
ENDROOT
BRANCH   1   2
ATOM      2  C   UNL     1      10.707   1.703  -5.192  0.00  0.00    +0.000 A 
ATOM      3  C   UNL     1      11.415   1.496  -6.382  0.00  0.00    +0.000 A 
ATOM      4  C   UNL     1      12.806   1.511  -6.346  0.00  0.00    +0.000 A 
ATOM      5  N   UNL     1      13.526   1.716  -5.229  0.00  0.00    +0.000 NA
ATOM      6  C   UNL     1      12.832   1.924  -4.091  0.00  0.00    +0.000 A 
ATOM      7  C   UNL     1      11.447   1.941  -4.028  0.00  0.00    +0.000 A 
ENDBRANCH   1   2
BRANCH   1   8
ATOM      8  C   UNL     1       8.558   1.165  -3.883  0.00  0.00    +0.000 C 
BRANCH   8  11
ATOM      9  C   UNL     1       8.778  -0.661  -2.246  0.00  0.00    +0.000 C 
ATOM     10  O   UNL     1       8.084  -0.092  -1.410  0.00  0.00    +0.000 OA
ATOM     11  N   UNL     1       9.086  -0.121  -3.470  0.00  0.00    +0.000 N 
ATOM     12  H   UNL     1       9.578  -0.710  -4.141  0.00  0.00    +0.000 HD
BRANCH   9  13
ATOM     13  C   UNL     1       9.341  -2.046  -2.027  0.00  0.00    +0.000 C 
BRANCH  13  14
ATOM     14  C   UNL     1       8.430  -3.123  -2.616  0.00  0.00    +0.000 C 
BRANCH  14  15
ATOM     15  C   UNL     1       8.296  -3.090  -4.148  0.00  0.00    +0.000 C 
BRANCH  15  17
ATOM     16  C   UNL     1      10.281  -4.389  -4.654  0.00  0.00    +0.000 C 
ATOM     17  N   UNL     1       9.591  -3.108  -4.855  0.00  0.00    +0.000 NA
ATOM     18  C   UNL     1       9.387  -2.895  -6.292  0.00  0.00    +0.000 C 
ENDBRANCH  15  17
ENDBRANCH  14  15
ENDBRANCH  13  14
ENDBRANCH   9  13
ENDBRANCH   8  11
ENDBRANCH   1   8
BRANCH   1  19
ATOM     19  C   UNL     1       8.631   3.064  -5.551  0.00  0.00    +0.000 C 
BRANCH  19  20
ATOM     20  O   UNL     1       7.200   3.047  -5.660  0.00  0.00    +0.000 OA
BRANCH  20  21
ATOM     21  C   UNL     1       6.618   4.236  -6.015  0.00  0.00    +0.000 A 
ATOM     22  C   UNL     1       7.294   5.439  -6.217  0.00  0.00    +0.000 A 
ATOM     23  C   UNL     1       6.589   6.574  -6.610  0.00  0.00    +0.000 A 
ATOM     24  C   UNL     1       5.217   6.474  -6.787  0.00  0.00    +0.000 A 
ATOM     25  N   UNL     1       4.511   5.328  -6.584  0.00  0.00    +0.000 NA
ATOM     26  C   UNL     1       5.236   4.243  -6.198  0.00  0.00    +0.000 A 
BRANCH  24  27
ATOM     27  C   UNL     1       4.458   7.681  -7.248  0.00  0.00    +0.000 C 
ATOM     28  N   UNL     1       3.111   7.510  -7.407  0.00  0.00    +0.000 N 
ATOM     29  O   UNL     1       5.003   8.753  -7.478  0.00  0.00    +0.000 OA
ATOM     30  H   UNL     1       2.694   6.606  -7.221  0.00  0.00    +0.000 HD
ATOM     31  H   UNL     1       2.549   8.282  -7.737  0.00  0.00    +0.000 HD
ENDBRANCH  24  27
ENDBRANCH  20  21
ENDBRANCH  19  20
ENDBRANCH   1  19
TORSDOF 11
