REMARK  Name = 
REMARK  5 active torsions:
REMARK  status: ('A' for Active; 'I' for Inactive)
REMARK    1  A    between atoms: N_1  and  C_2
REMARK    2  A    between atoms: C_2  and  C_3
REMARK    3  A    between atoms: N_7  and  C_8
REMARK    4  A    between atoms: C_8  and  C_9
REMARK    5  A    between atoms: C_9  and  C_10
REMARK                            x       y       z     vdW  Elec       q    Type
REMARK                         _______ _______ _______ _____ _____    ______ ____
ROOT
ATOM      1  C   UNL     1       2.817  -0.094   1.520  0.00  0.00    +0.000 A 
ATOM      2  C   UNL     1       3.551   0.844   2.208  0.00  0.00    +0.000 A 
ATOM      3  N   UNL     1       4.108   0.627   3.414  0.00  0.00    +0.000 NA
ATOM      4  C   UNL     1       3.928  -0.581   3.965  0.00  0.00    +0.000 A 
ATOM      5  N   UNL     1       4.453  -0.855   5.225  0.00  0.00    +0.000 N 
ATOM      6  N   UNL     1       3.227  -1.565   3.386  0.00  0.00    +0.000 NA
ATOM      7  C   UNL     1       2.694  -1.301   2.172  0.00  0.00    +0.000 A 
ATOM      8  H   UNL     1       3.918  -1.640   5.580  0.00  0.00    +0.000 HD
ENDROOT
BRANCH   1   9
ATOM      9  C   UNL     1       2.181   0.198   0.202  0.00  0.00    +0.000 C 
BRANCH   9  10
ATOM     10  N   UNL     1       3.164   0.598  -0.797  0.00  0.00    +0.000 NA
ATOM     11  H   UNL     1       2.695   0.768  -1.686  0.00  0.00    +0.000 HD
ATOM     12  H   UNL     1       3.815  -0.169  -0.961  0.00  0.00    +0.000 HD
ENDBRANCH   9  10
ENDBRANCH   1   9
BRANCH   5  13
ATOM     13  C   UNL     1       4.525   0.321   6.083  0.00  0.00    +0.000 C 
BRANCH  13  14
ATOM     14  C   UNL     1       5.117  -0.043   7.448  0.00  0.00    +0.000 C 
BRANCH  14  15
ATOM     15  C   UNL     1       5.200   1.154   8.363  0.00  0.00    +0.000 A 
ATOM     16  C   UNL     1       4.134   1.489   9.203  0.00  0.00    +0.000 A 
ATOM     17  C   UNL     1       4.251   2.607  10.015  0.00  0.00    +0.000 A 
ATOM     18  N   UNL     1       5.338   3.406  10.044  0.00  0.00    +0.000 NA
ATOM     19  C   UNL     1       6.354   3.073   9.220  0.00  0.00    +0.000 A 
ATOM     20  C   UNL     1       6.332   1.976   8.371  0.00  0.00    +0.000 A 
ENDBRANCH  14  15
ENDBRANCH  13  14
ENDBRANCH   5  13
TORSDOF 5
