REMARK  Name = 
REMARK  6 active torsions:
REMARK  status: ('A' for Active; 'I' for Inactive)
REMARK    1  A    between atoms: C_4  and  O_5
REMARK    2  A    between atoms: O_5  and  C_6
REMARK    3  A    between atoms: C_6  and  C_7
REMARK    4  A    between atoms: C_7  and  C_8
REMARK    5  A    between atoms: C_12  and  N_13
REMARK    6  A    between atoms: N_13  and  C_14
REMARK                            x       y       z     vdW  Elec       q    Type
REMARK                         _______ _______ _______ _____ _____    ______ ____
ROOT
ATOM      1  C   UNL     1      -0.613  -6.051   0.202  0.00  0.00    +0.000 A 
ATOM      2  C   UNL     1       0.777  -6.011   0.397  0.00  0.00    +0.000 A 
ATOM      3  C   UNL     1       1.525  -7.182   0.504  0.00  0.00    +0.000 A 
ATOM      4  C   UNL     1       0.901  -8.421   0.399  0.00  0.00    +0.000 A 
ATOM      5  C   UNL     1      -0.478  -8.502   0.202  0.00  0.00    +0.000 A 
ATOM      6  C   UNL     1      -1.227  -7.314   0.123  0.00  0.00    +0.000 A 
ENDROOT
BRANCH   5   7
ATOM      7  N   UNL     1      -1.152  -9.741   0.097  0.00  0.00    +0.000 N 
ATOM      8  H   UNL     1      -1.785  -9.852   0.887  0.00  0.00    +0.000 HD
BRANCH   7   9
ATOM      9  C   UNL     1      -0.550 -10.981  -0.326  0.00  0.00    +0.000 C 
ATOM     10  C   UNL     1      -1.526 -12.174  -0.245  0.00  0.00    +0.000 C 
ATOM     11  N   UNL     1      -0.450 -12.994   0.351  0.00  0.00    +0.000 NA
ATOM     12  C   UNL     1       0.263 -11.753   0.733  0.00  0.00    +0.000 C 
ATOM     13  H   UNL     1       0.055 -13.552  -0.339  0.00  0.00    +0.000 HD
ENDBRANCH   7   9
ENDBRANCH   5   7
BRANCH   1  14
ATOM     14  C   UNL     1      -1.456  -4.791   0.057  0.00  0.00    +0.000 C 
BRANCH  14  15
ATOM     15  C   UNL     1      -0.646  -3.499   0.205  0.00  0.00    +0.000 C 
BRANCH  15  16
ATOM     16  O   UNL     1      -1.435  -2.306   0.099  0.00  0.00    +0.000 OA
BRANCH  16  20
ATOM     17  C   UNL     1       0.959   1.024   0.575  0.00  0.00    +0.000 A 
ATOM     18  C   UNL     1      -0.406   1.180   0.351  0.00  0.00    +0.000 A 
ATOM     19  C   UNL     1      -1.214   0.055   0.190  0.00  0.00    +0.000 A 
ATOM     20  C   UNL     1      -0.616  -1.191   0.258  0.00  0.00    +0.000 A 
ATOM     21  N   UNL     1       0.710  -1.365   0.474  0.00  0.00    +0.000 NA
ATOM     22  C   UNL     1       1.467  -0.261   0.630  0.00  0.00    +0.000 A 
ENDBRANCH  16  20
ENDBRANCH  15  16
ENDBRANCH  14  15
ENDBRANCH   1  14
TORSDOF 6
