REMARK  Name = 
REMARK  5 active torsions:
REMARK  status: ('A' for Active; 'I' for Inactive)
REMARK    1  A    between atoms: N_1  and  C_2
REMARK    2  A    between atoms: C_2  and  C_3
REMARK    3  A    between atoms: C_3  and  C_4
REMARK    4  A    between atoms: N_13  and  C_14
REMARK    5  A    between atoms: C_14  and  C_15
REMARK                            x       y       z     vdW  Elec       q    Type
REMARK                         _______ _______ _______ _____ _____    ______ ____
ROOT
ATOM      1  C   UNL     1       4.137   0.902   2.079  0.00  0.00    +0.000 C 
ATOM      2  C   UNL     1       3.934   2.210   2.376  0.00  0.00    +0.000 C 
ATOM      3  N   UNL     1       4.356   2.780   3.566  0.00  0.00    +0.000 NA
ATOM      4  C   UNL     1       4.657   1.903   4.493  0.00  0.00    +0.000 C 
ATOM      5  C   UNL     1       4.868   2.323   5.892  0.00  0.00    +0.000 C 
ATOM      6  C   UNL     1       5.014   1.390   6.831  0.00  0.00    +0.000 C 
ATOM      7  C   UNL     1       4.991  -0.039   6.437  0.00  0.00    +0.000 C 
ATOM      8  N   UNL     1       4.931  -0.508   5.242  0.00  0.00    +0.000 NA
ATOM      9  C   UNL     1       4.845   0.409   4.231  0.00  0.00    +0.000 C 
ATOM     10  N   UNL     1       5.045   0.149   2.870  0.00  0.00    +0.000 N 
ENDROOT
BRANCH   1  11
ATOM     11  C   UNL     1       2.932   0.133   1.542  0.00  0.00    +0.000 C 
BRANCH  11  12
ATOM     12  C   UNL     1       2.617   0.184   0.051  0.00  0.00    +0.000 C 
BRANCH  12  13
ATOM     13  N   UNL     1       1.343  -0.508  -0.188  0.00  0.00    +0.000 NA
ATOM     14  H   UNL     1       1.080  -0.439  -1.167  0.00  0.00    +0.000 HD
ATOM     15  H   UNL     1       0.597  -0.053   0.346  0.00  0.00    +0.000 HD
ENDBRANCH  12  13
ENDBRANCH  11  12
ENDBRANCH   1  11
BRANCH  10  16
ATOM     16  C   UNL     1       6.499   0.284   2.504  0.00  0.00    +0.000 C 
BRANCH  16  17
ATOM     17  C   UNL     1       7.319  -0.987   2.660  0.00  0.00    +0.000 A 
ATOM     18  C   UNL     1       6.780  -2.234   2.358  0.00  0.00    +0.000 A 
ATOM     19  C   UNL     1       7.612  -3.352   2.359  0.00  0.00    +0.000 A 
ATOM     20  C   UNL     1       8.960  -3.203   2.663  0.00  0.00    +0.000 A 
ATOM     21  C   UNL     1       9.421  -1.936   2.971  0.00  0.00    +0.000 A 
ATOM     22  N   UNL     1       8.639  -0.831   2.965  0.00  0.00    +0.000 NA
ENDBRANCH  16  17
ENDBRANCH  10  16
TORSDOF 5
