REMARK  Name = 
REMARK  5 active torsions:
REMARK  status: ('A' for Active; 'I' for Inactive)
REMARK    1  A    between atoms: C_1  and  C_2
REMARK    2  A    between atoms: C_2  and  C_3
REMARK    3  A    between atoms: C_7  and  C_8
REMARK    4  A    between atoms: C_8  and  C_9
REMARK    5  A    between atoms: C_9  and  N_10
REMARK                            x       y       z     vdW  Elec       q    Type
REMARK                         _______ _______ _______ _____ _____    ______ ____
ROOT
ATOM      1  C   UNL     1       2.878   0.007   1.550  0.00  0.00    +0.000 A 
ATOM      2  C   UNL     1       2.606   1.099   2.396  0.00  0.00    +0.000 A 
ATOM      3  C   UNL     1       3.017   1.098   3.730  0.00  0.00    +0.000 A 
ATOM      4  C   UNL     1       3.690  -0.003   4.253  0.00  0.00    +0.000 A 
ATOM      5  C   UNL     1       3.971  -1.106   3.441  0.00  0.00    +0.000 A 
ATOM      6  C   UNL     1       3.584  -1.080   2.090  0.00  0.00    +0.000 A 
ENDROOT
BRANCH   1   8
ATOM      7  C   UNL     1       0.827   0.047   0.070  0.00  0.00    +0.000 C 
ATOM      8  C   UNL     1       2.357   0.014   0.118  0.00  0.00    +0.000 C 
ATOM      9  C   UNL     1       2.993   1.090  -0.728  0.00  0.00    +0.000 C 
ATOM     10  C   UNL     1       3.647   0.541  -1.756  0.00  0.00    +0.000 C 
ATOM     11  N   UNL     1       3.563  -0.823  -1.804  0.00  0.00    +0.000 NA
ATOM     12  C   UNL     1       2.842  -1.125  -0.763  0.00  0.00    +0.000 C 
ATOM     13  F   UNL     1       2.528  -2.399  -0.517  0.00  0.00    +0.000 F 
ENDBRANCH   1   8
BRANCH   5  14
ATOM     14  C   UNL     1       4.584  -2.361   4.021  0.00  0.00    +0.000 C 
BRANCH  14  15
ATOM     15  C   UNL     1       3.484  -3.337   4.460  0.00  0.00    +0.000 C 
BRANCH  15  16
ATOM     16  N   UNL     1       4.060  -4.556   5.008  0.00  0.00    +0.000 N 
ATOM     17  C   UNL     1       3.116  -5.504   5.387  0.00  0.00    +0.000 A 
ATOM     18  N   UNL     1       1.935  -5.575   4.750  0.00  0.00    +0.000 NA
ATOM     19  C   UNL     1       1.069  -6.530   5.150  0.00  0.00    +0.000 A 
ATOM     20  C   UNL     1       1.339  -7.417   6.161  0.00  0.00    +0.000 A 
ATOM     21 CL   UNL     1       0.231  -8.629   6.633  0.00  0.00    +0.000 Cl
ATOM     22  C   UNL     1       2.563  -7.258   6.761  0.00  0.00    +0.000 A 
ATOM     23  N   UNL     1       3.460  -6.310   6.400  0.00  0.00    +0.000 NA
ATOM     24  H   UNL     1       4.688  -4.446   5.798  0.00  0.00    +0.000 HD
ENDBRANCH  15  16
ENDBRANCH  14  15
ENDBRANCH   5  14
TORSDOF 4
