REMARK  Name = 
REMARK  3 active torsions:
REMARK  status: ('A' for Active; 'I' for Inactive)
REMARK    1  A    between atoms: C_2  and  C_4
REMARK    2  A    between atoms: C_7  and  C_8
REMARK    3  A    between atoms: C_8  and  C_9
REMARK                            x       y       z     vdW  Elec       q    Type
REMARK                         _______ _______ _______ _____ _____    ______ ____
ROOT
ATOM      1  C   UNL     1       3.120   0.104   1.132  0.00  0.00    +0.000 A 
ATOM      2  C   UNL     1       2.656  -0.694   2.184  0.00  0.00    +0.000 A 
ATOM      3  C   UNL     1       3.368  -0.756   3.389  0.00  0.00    +0.000 A 
ATOM      4  C   UNL     1       4.560  -0.032   3.553  0.00  0.00    +0.000 A 
ATOM      5  C   UNL     1       5.017   0.760   2.489  0.00  0.00    +0.000 A 
ATOM      6  C   UNL     1       4.306   0.827   1.287  0.00  0.00    +0.000 A 
ENDROOT
BRANCH   1   8
ATOM      7  N   UNL     1       1.041   0.010  -0.129  0.00  0.00    +0.000 N 
ATOM      8  C   UNL     1       2.398   0.187  -0.166  0.00  0.00    +0.000 C 
ATOM      9  O   UNL     1       2.975   0.437  -1.213  0.00  0.00    +0.000 OA
ATOM     10  H   UNL     1       0.543   0.169  -0.996  0.00  0.00    +0.000 HD
ATOM     11  H   UNL     1       0.516   0.057   0.731  0.00  0.00    +0.000 HD
ENDBRANCH   1   8
BRANCH   4  12
ATOM     12  C   UNL     1       5.348  -0.091   4.846  0.00  0.00    +0.000 C 
BRANCH  12  13
ATOM     13  C   UNL     1       6.403  -1.175   4.906  0.00  0.00    +0.000 A 
ATOM     14  C   UNL     1       7.709  -0.933   4.451  0.00  0.00    +0.000 A 
ATOM     15  C   UNL     1       8.677  -1.940   4.490  0.00  0.00    +0.000 A 
ATOM     16  C   UNL     1       8.357  -3.198   4.996  0.00  0.00    +0.000 A 
ATOM     17  C   UNL     1       7.071  -3.445   5.472  0.00  0.00    +0.000 A 
ATOM     18  C   UNL     1       6.098  -2.442   5.424  0.00  0.00    +0.000 A 
ENDBRANCH  12  13
ENDBRANCH   4  12
TORSDOF 3
