REMARK  Name = 
REMARK  5 active torsions:
REMARK  status: ('A' for Active; 'I' for Inactive)
REMARK    1  A    between atoms: C_2  and  C_5
REMARK    2  A    between atoms: C_7  and  N_8
REMARK    3  A    between atoms: N_8  and  C_9
REMARK    4  A    between atoms: C_9  and  C_10
REMARK    5  A    between atoms: C_17  and  C_18
REMARK                            x       y       z     vdW  Elec       q    Type
REMARK                         _______ _______ _______ _____ _____    ______ ____
ROOT
ATOM      1  C   UNL     1       2.807  -1.295   0.152  0.00  0.00    +0.000 A 
ATOM      2  C   UNL     1       1.974  -2.376  -0.143  0.00  0.00    +0.000 A 
ATOM      3  C   UNL     1       2.422  -3.674   0.072  0.00  0.00    +0.000 A 
ATOM      4  N   UNL     1       3.656  -3.920   0.548  0.00  0.00    +0.000 NA
ATOM      5  C   UNL     1       4.495  -2.882   0.804  0.00  0.00    +0.000 A 
ATOM      6  C   UNL     1       4.097  -1.561   0.617  0.00  0.00    +0.000 A 
ENDROOT
BRANCH   5   7
ATOM      7  C   UNL     1       5.837  -3.247   1.286  0.00  0.00    +0.000 A 
ATOM      8  C   UNL     1       6.479  -4.420   0.864  0.00  0.00    +0.000 A 
ATOM      9  C   UNL     1       7.752  -4.744   1.335  0.00  0.00    +0.000 A 
ATOM     10  C   UNL     1       8.361  -3.881   2.227  0.00  0.00    +0.000 A 
ATOM     11  N   UNL     1       7.792  -2.740   2.667  0.00  0.00    +0.000 NA
ATOM     12  C   UNL     1       6.552  -2.460   2.192  0.00  0.00    +0.000 A 
ENDBRANCH   5   7
BRANCH   1  14
ATOM     13  F   UNL     1       1.048   0.231  -0.426  0.00  0.00    +0.000 F 
ATOM     14  C   UNL     1       2.332   0.125   0.013  0.00  0.00    +0.000 C 
ATOM     15  F   UNL     1       3.089   0.843  -0.860  0.00  0.00    +0.000 F 
ATOM     16  F   UNL     1       2.380   0.802   1.194  0.00  0.00    +0.000 F 
ENDBRANCH   1  14
BRANCH   3  17
ATOM     17  N   UNL     1       1.531  -4.716  -0.158  0.00  0.00    +0.000 N 
ATOM     18  H   UNL     1       1.161  -4.736  -1.099  0.00  0.00    +0.000 HD
BRANCH  17  19
ATOM     19  C   UNL     1       1.772  -6.001   0.477  0.00  0.00    +0.000 C 
BRANCH  19  20
ATOM     20  C   UNL     1       2.772  -6.905  -0.172  0.00  0.00    +0.000 A 
ATOM     21  C   UNL     1       3.436  -7.856   0.586  0.00  0.00    +0.000 A 
ATOM     22  N   UNL     1       4.280  -8.780   0.085  0.00  0.00    +0.000 NA
ATOM     23  C   UNL     1       4.454  -8.741  -1.242  0.00  0.00    +0.000 A 
ATOM     24  N   UNL     1       3.866  -7.880  -2.087  0.00  0.00    +0.000 NA
ATOM     25  C   UNL     1       3.031  -6.979  -1.524  0.00  0.00    +0.000 A 
ENDBRANCH  19  20
ENDBRANCH  17  19
ENDBRANCH   3  17
TORSDOF 5
