REMARK  Name = 
REMARK  5 active torsions:
REMARK  status: ('A' for Active; 'I' for Inactive)
REMARK    1  A    between atoms: C_2  and  C_18
REMARK    2  A    between atoms: N_3  and  C_4
REMARK    3  A    between atoms: C_4  and  C_5
REMARK    4  A    between atoms: C_8  and  C_9
REMARK    5  A    between atoms: C_9  and  C_10
REMARK                            x       y       z     vdW  Elec       q    Type
REMARK                         _______ _______ _______ _____ _____    ______ ____
ROOT
ATOM      1  O   UNL     1       3.984  -0.712  -0.156  0.00  0.00    +0.000 OA
ATOM      2  C   UNL     1       4.407  -1.860  -0.065  0.00  0.00    +0.000 C 
ATOM      3  N   UNL     1       4.699  -2.446   1.138  0.00  0.00    +0.000 N 
ATOM      4  H   UNL     1       5.152  -3.354   1.155  0.00  0.00    +0.000 HD
ENDROOT
BRANCH   2   5
ATOM      5  C   UNL     1       4.614  -2.699  -1.249  0.00  0.00    +0.000 A 
ATOM      6  C   UNL     1       3.905  -2.450  -2.416  0.00  0.00    +0.000 A 
ATOM      7  S   UNL     1       4.333  -3.487  -3.703  0.00  0.00    +0.000 S 
ATOM      8  C   UNL     1       5.494  -4.288  -2.748  0.00  0.00    +0.000 A 
ATOM      9  N   UNL     1       6.275  -5.268  -3.265  0.00  0.00    +0.000 NA
ATOM     10  C   UNL     1       7.132  -5.766  -2.433  0.00  0.00    +0.000 A 
ATOM     11  N   UNL     1       7.266  -5.383  -1.125  0.00  0.00    +0.000 N 
ATOM     12  C   UNL     1       6.450  -4.447  -0.543  0.00  0.00    +0.000 A 
ATOM     13  O   UNL     1       6.508  -4.231   0.663  0.00  0.00    +0.000 OA
ATOM     14  C   UNL     1       5.519  -3.807  -1.449  0.00  0.00    +0.000 A 
ATOM     15  H   UNL     1       7.925  -5.841  -0.516  0.00  0.00    +0.000 HD
ENDBRANCH   2   5
BRANCH   3  16
ATOM     16  C   UNL     1       4.627  -1.745   2.395  0.00  0.00    +0.000 C 
BRANCH  16  17
ATOM     17  C   UNL     1       3.228  -1.815   3.032  0.00  0.00    +0.000 C 
ATOM     18  C   UNL     1       2.768  -3.253   3.327  0.00  0.00    +0.000 C 
ATOM     19  C   UNL     1       3.587  -3.903   4.442  0.00  0.00    +0.000 C 
ATOM     20  C   UNL     1       3.544  -3.094   5.752  0.00  0.00    +0.000 C 
ATOM     21  C   UNL     1       3.950  -1.630   5.482  0.00  0.00    +0.000 C 
ATOM     22  C   UNL     1       3.188  -0.981   4.322  0.00  0.00    +0.000 C 
BRANCH  20  23
ATOM     23  C   UNL     1       2.171  -3.156   6.468  0.00  0.00    +0.000 C 
BRANCH  23  24
ATOM     24  C   UNL     1       1.698  -4.547   6.825  0.00  0.00    +0.000 A 
ATOM     25  C   UNL     1       2.419  -5.374   7.691  0.00  0.00    +0.000 A 
ATOM     26  C   UNL     1       1.948  -6.658   7.931  0.00  0.00    +0.000 A 
ATOM     27  N   UNL     1       0.813  -7.158   7.399  0.00  0.00    +0.000 NA
ATOM     28  C   UNL     1       0.111  -6.332   6.596  0.00  0.00    +0.000 A 
ATOM     29  C   UNL     1       0.506  -5.039   6.285  0.00  0.00    +0.000 A 
ENDBRANCH  23  24
ENDBRANCH  20  23
ENDBRANCH  16  17
ENDBRANCH   3  16
TORSDOF 5
