REMARK  Name = 
REMARK  12 active torsions:
REMARK  status: ('A' for Active; 'I' for Inactive)
REMARK    1  A    between atoms: N_1  and  C_2
REMARK    2  A    between atoms: C_2  and  C_3
REMARK    3  A    between atoms: C_3  and  C_4
REMARK    4  A    between atoms: C_4  and  C_5
REMARK    5  A    between atoms: C_5  and  N_6
REMARK    6  A    between atoms: N_9  and  C_10
REMARK    7  A    between atoms: C_10  and  C_11
REMARK    8  A    between atoms: C_11  and  N_12
REMARK    9  A    between atoms: C_11  and  C_13
REMARK   10  A    between atoms: C_16  and  C_17
REMARK   11  A    between atoms: C_17  and  N_18
REMARK   12  A    between atoms: C_19  and  C_21
REMARK                            x       y       z     vdW  Elec       q    Type
REMARK                         _______ _______ _______ _____ _____    ______ ____
ROOT
ATOM      1  C   UNL     1      10.555  -4.011   5.187  0.00  0.00    +0.000 A 
ATOM      2  C   UNL     1      11.278  -4.528   6.260  0.00  0.00    +0.000 A 
ATOM      3  C   UNL     1      12.658  -4.405   6.255  0.00  0.00    +0.000 A 
ATOM      4  C   UNL     1      13.287  -3.767   5.184  0.00  0.00    +0.000 A 
ATOM      5  C   UNL     1      12.486  -3.285   4.157  0.00  0.00    +0.000 A 
ATOM      6  N   UNL     1      11.146  -3.396   4.127  0.00  0.00    +0.000 NA
ENDROOT
BRANCH   1   7
ATOM      7  C   UNL     1       9.046  -4.152   5.146  0.00  0.00    +0.000 C 
BRANCH   7   8
ATOM      8  N   UNL     1       8.652  -5.039   4.034  0.00  0.00    +0.000 NA
ATOM      9  H   UNL     1       8.905  -4.565   3.165  0.00  0.00    +0.000 HD
ATOM     10  H   UNL     1       7.650  -5.188   4.031  0.00  0.00    +0.000 HD
ENDBRANCH   7   8
BRANCH   7  11
ATOM     11  C   UNL     1       8.401  -2.732   5.066  0.00  0.00    +0.000 C 
BRANCH  11  15
ATOM     12  N   UNL     1       6.021  -1.215   7.467  0.00  0.00    +0.000 NA
ATOM     13  C   UNL     1       6.727  -2.508   7.645  0.00  0.00    +0.000 C 
ATOM     14  C   UNL     1       8.261  -2.386   7.512  0.00  0.00    +0.000 C 
ATOM     15  N   UNL     1       8.685  -1.830   6.213  0.00  0.00    +0.000 NA
ATOM     16  C   UNL     1       8.012  -0.526   6.023  0.00  0.00    +0.000 C 
ATOM     17  C   UNL     1       6.474  -0.592   6.198  0.00  0.00    +0.000 C 
BRANCH  12  18
ATOM     18  C   UNL     1       6.285  -0.364   8.637  0.00  0.00    +0.000 C 
BRANCH  18  19
ATOM     19  C   UNL     1       5.570   0.980   8.579  0.00  0.00    +0.000 C 
BRANCH  19  20
ATOM     20  C   UNL     1       5.924   1.794   9.814  0.00  0.00    +0.000 C 
BRANCH  20  21
ATOM     21  C   UNL     1       5.254   3.157   9.751  0.00  0.00    +0.000 C 
BRANCH  21  22
ATOM     22  N   UNL     1       5.619   3.914  10.939  0.00  0.00    +0.000 NA
ATOM     23  H   UNL     1       5.213   4.856  10.877  0.00  0.00    +0.000 HD
ATOM     24  H   UNL     1       6.622   4.042  10.975  0.00  0.00    +0.000 HD
ENDBRANCH  21  22
ENDBRANCH  20  21
ENDBRANCH  19  20
ENDBRANCH  18  19
ENDBRANCH  12  18
ENDBRANCH  11  15
ENDBRANCH   7  11
ENDBRANCH   1   7
BRANCH   4  25
ATOM     25  C   UNL     1      14.778  -3.677   5.071  0.00  0.00    +0.000 C 
BRANCH  25  26
ATOM     26  N   UNL     1      15.294  -4.819   4.366  0.00  0.00    +0.000 N 
ATOM     27  C   UNL     1      16.641  -5.001   4.191  0.00  0.00    +0.000 C 
ATOM     28  O   UNL     1      17.468  -4.226   4.653  0.00  0.00    +0.000 OA
ATOM     29  H   UNL     1      14.647  -5.320   3.766  0.00  0.00    +0.000 HD
BRANCH  27  30
ATOM     30  C   UNL     1      17.036  -6.219   3.472  0.00  0.00    +0.000 A 
ATOM     31  C   UNL     1      18.295  -6.761   3.685  0.00  0.00    +0.000 A 
ATOM     32  S   UNL     1      18.575  -8.199   2.810  0.00  0.00    +0.000 S 
ATOM     33  C   UNL     1      17.043  -8.118   2.078  0.00  0.00    +0.000 A 
ATOM     34  N   UNL     1      16.648  -9.052   1.175  0.00  0.00    +0.000 NA
ATOM     35  C   UNL     1      15.470  -8.861   0.680  0.00  0.00    +0.000 A 
ATOM     36  N   UNL     1      14.647  -7.811   1.015  0.00  0.00    +0.000 N 
ATOM     37  C   UNL     1      14.987  -6.864   1.950  0.00  0.00    +0.000 A 
ATOM     38  O   UNL     1      14.213  -5.964   2.267  0.00  0.00    +0.000 OA
ATOM     39  C   UNL     1      16.314  -7.027   2.519  0.00  0.00    +0.000 A 
ATOM     40  H   UNL     1      13.728  -7.725   0.606  0.00  0.00    +0.000 HD
ENDBRANCH  27  30
ENDBRANCH  25  26
ENDBRANCH   4  25
TORSDOF 12
