REMARK  Name = 
REMARK  8 active torsions:
REMARK  status: ('A' for Active; 'I' for Inactive)
REMARK    1  A    between atoms: C_2  and  C_3
REMARK    2  A    between atoms: C_3  and  N_4
REMARK    3  A    between atoms: C_3  and  C_28
REMARK    4  A    between atoms: N_4  and  C_5
REMARK    5  A    between atoms: C_5  and  C_6
REMARK    6  A    between atoms: C_9  and  C_10
REMARK    7  A    between atoms: C_10  and  N_11
REMARK    8  A    between atoms: C_12  and  C_14
REMARK                            x       y       z     vdW  Elec       q    Type
REMARK                         _______ _______ _______ _____ _____    ______ ____
ROOT
ATOM      1  C   UNL     1       4.362   2.767   2.662  0.00  0.00    +0.000 A 
ATOM      2  N   UNL     1       4.843   2.017   3.689  0.00  0.00    +0.000 NA
ATOM      3  C   UNL     1       5.141   2.660   4.842  0.00  0.00    +0.000 A 
ATOM      4  C   UNL     1       4.962   4.026   5.046  0.00  0.00    +0.000 A 
ATOM      5  C   UNL     1       4.501   4.781   3.961  0.00  0.00    +0.000 A 
ATOM      6  C   UNL     1       4.194   4.142   2.767  0.00  0.00    +0.000 A 
ATOM      7  F   UNL     1       3.704   4.851   1.739  0.00  0.00    +0.000 F 
ENDROOT
BRANCH   1   8
ATOM      8  C   UNL     1       3.916   2.049   1.410  0.00  0.00    +0.000 C 
BRANCH   8   9
ATOM      9  N   UNL     1       4.629   2.482   0.192  0.00  0.00    +0.000 NA
ATOM     10  H   UNL     1       4.493   3.484   0.066  0.00  0.00    +0.000 HD
BRANCH   9  11
ATOM     11  C   UNL     1       4.157   1.752  -1.008  0.00  0.00    +0.000 C 
BRANCH  11  12
ATOM     12  C   UNL     1       4.903   2.278  -2.257  0.00  0.00    +0.000 C 
ATOM     13  C   UNL     1       4.421   1.594  -3.548  0.00  0.00    +0.000 C 
ATOM     14  C   UNL     1       5.169   2.145  -4.754  0.00  0.00    +0.000 C 
ATOM     15  O   UNL     1       6.576   1.984  -4.591  0.00  0.00    +0.000 OA
ATOM     16  C   UNL     1       7.079   2.689  -3.459  0.00  0.00    +0.000 C 
ATOM     17  C   UNL     1       6.439   2.178  -2.173  0.00  0.00    +0.000 C 
ENDBRANCH  11  12
BRANCH  11  19
ATOM     18  N   UNL     1       4.526  -0.981  -0.650  0.00  0.00    +0.000 NA
ATOM     19  C   UNL     1       4.359   0.258  -0.812  0.00  0.00    +0.000 C 
ENDBRANCH  11  19
ENDBRANCH   9  11
ENDBRANCH   8   9
ENDBRANCH   1   8
BRANCH   4  20
ATOM     20  C   UNL     1       5.225   4.641   6.390  0.00  0.00    +0.000 C 
BRANCH  20  21
ATOM     21  N   UNL     1       6.583   5.093   6.539  0.00  0.00    +0.000 N 
ATOM     22  C   UNL     1       7.582   4.267   6.986  0.00  0.00    +0.000 C 
ATOM     23  O   UNL     1       7.380   3.090   7.275  0.00  0.00    +0.000 OA
ATOM     24  H   UNL     1       6.737   6.096   6.552  0.00  0.00    +0.000 HD
BRANCH  22  25
ATOM     25  C   UNL     1       8.926   4.851   7.044  0.00  0.00    +0.000 A 
ATOM     26  C   UNL     1      10.040   4.029   6.937  0.00  0.00    +0.000 A 
ATOM     27  S   UNL     1      11.519   4.874   6.984  0.00  0.00    +0.000 S 
ATOM     28  C   UNL     1      10.723   6.364   7.213  0.00  0.00    +0.000 A 
ATOM     29  N   UNL     1      11.425   7.512   7.384  0.00  0.00    +0.000 NA
ATOM     30  C   UNL     1      10.711   8.573   7.599  0.00  0.00    +0.000 A 
ATOM     31  N   UNL     1      11.307   9.764   7.819  0.00  0.00    +0.000 N 
ATOM     32  N   UNL     1       9.340   8.559   7.624  0.00  0.00    +0.000 N 
ATOM     33  C   UNL     1       8.578   7.433   7.402  0.00  0.00    +0.000 A 
ATOM     34  O   UNL     1       7.356   7.486   7.348  0.00  0.00    +0.000 OA
ATOM     35  C   UNL     1       9.350   6.220   7.214  0.00  0.00    +0.000 A 
ATOM     36  H   UNL     1      12.307   9.799   7.653  0.00  0.00    +0.000 HD
ATOM     37  H   UNL     1      10.811  10.642   7.813  0.00  0.00    +0.000 HD
ATOM     38  H   UNL     1       8.831   9.412   7.782  0.00  0.00    +0.000 HD
ENDBRANCH  22  25
ENDBRANCH  20  21
ENDBRANCH   4  20
TORSDOF 8
