REMARK  Name = 
REMARK  8 active torsions:
REMARK  status: ('A' for Active; 'I' for Inactive)
REMARK    1  A    between atoms: C_1  and  O_2
REMARK    2  A    between atoms: O_2  and  C_3
REMARK    3  A    between atoms: C_9  and  C_10
REMARK    4  A    between atoms: C_10  and  C_11
REMARK    5  A    between atoms: C_11  and  O_12
REMARK    6  A    between atoms: O_12  and  C_13
REMARK    7  A    between atoms: C_17  and  C_18
REMARK    8  A    between atoms: C_18  and  O_20
REMARK                            x       y       z     vdW  Elec       q    Type
REMARK                         _______ _______ _______ _____ _____    ______ ____
ROOT
ATOM      1  C   UNL     1       6.420   3.541   0.719  0.00  0.00    +0.000 C 
ENDROOT
BRANCH   1   2
ATOM      2  C   UNL     1       7.209   2.357   1.277  0.00  0.00    +0.000 C 
BRANCH   2   9
ATOM      3  C   UNL     1       3.246  -0.543   1.061  0.00  0.00    +0.000 C 
ATOM      4  O   UNL     1       2.606  -1.483   1.519  0.00  0.00    +0.000 OA
ATOM      5  N   UNL     1       4.628  -0.480   1.055  0.00  0.00    +0.000 N 
ATOM      6  C   UNL     1       5.406  -1.593   1.577  0.00  0.00    +0.000 C 
ATOM      7  C   UNL     1       6.266  -1.129   2.746  0.00  0.00    +0.000 C 
ATOM      8  C   UNL     1       7.137   0.066   2.347  0.00  0.00    +0.000 C 
ATOM      9  C   UNL     1       6.296   1.207   1.743  0.00  0.00    +0.000 C 
ATOM     10  C   UNL     1       5.399   0.672   0.609  0.00  0.00    +0.000 C 
BRANCH   3  12
ATOM     11  C   UNL     1       1.239   0.524   0.454  0.00  0.00    +0.000 C 
ATOM     12  O   UNL     1       2.667   0.556   0.500  0.00  0.00    +0.000 OA
ENDBRANCH   3  12
ENDBRANCH   2   9
ENDBRANCH   1   2
BRANCH   1  13
ATOM     13  O   UNL     1       7.315   4.587   0.341  0.00  0.00    +0.000 OA
BRANCH  13  14
ATOM     14  C   UNL     1       6.734   5.697  -0.210  0.00  0.00    +0.000 A 
ATOM     15  C   UNL     1       7.600   6.690  -0.658  0.00  0.00    +0.000 A 
ATOM     16  N   UNL     1       7.199   7.862  -1.210  0.00  0.00    +0.000 NA
ATOM     17  C   UNL     1       5.863   8.059  -1.314  0.00  0.00    +0.000 A 
ATOM     18  C   UNL     1       4.918   7.123  -0.919  0.00  0.00    +0.000 A 
ATOM     19  C   UNL     1       5.363   5.927  -0.346  0.00  0.00    +0.000 A 
BRANCH  18  20
ATOM     20  C   UNL     1       3.490   7.463  -1.058  0.00  0.00    +0.000 C 
ATOM     21  O   UNL     1       3.084   8.612  -1.009  0.00  0.00    +0.000 OA
BRANCH  20  22
ATOM     22  O   UNL     1       2.680   6.405  -1.270  0.00  0.00    +0.000 OA
ATOM     23  H   UNL     1       3.121   5.563  -1.486  0.00  0.00    +0.000 HD
ENDBRANCH  20  22
ENDBRANCH  18  20
ENDBRANCH  13  14
ENDBRANCH   1  13
TORSDOF 7
