REMARK  Name = 
REMARK  7 active torsions:
REMARK  status: ('A' for Active; 'I' for Inactive)
REMARK    1  A    between atoms: C_1  and  C_2
REMARK    2  A    between atoms: C_2  and  C_3
REMARK    3  A    between atoms: C_7  and  C_8
REMARK    4  A    between atoms: C_8  and  C_9
REMARK    5  A    between atoms: C_9  and  N_10
REMARK    6  A    between atoms: C_14  and  C_15
REMARK    7  A    between atoms: C_25  and  C_26
REMARK                            x       y       z     vdW  Elec       q    Type
REMARK                         _______ _______ _______ _____ _____    ______ ____
ROOT
ATOM      1  C   UNL     1       2.986   0.018   1.421  0.00  0.00    +0.000 A 
ATOM      2  C   UNL     1       2.621   1.069   2.281  0.00  0.00    +0.000 A 
ATOM      3  C   UNL     1       3.004   1.064   3.627  0.00  0.00    +0.000 A 
ATOM      4  C   UNL     1       3.725  -0.006   4.153  0.00  0.00    +0.000 A 
ATOM      5  C   UNL     1       4.087  -1.075   3.330  0.00  0.00    +0.000 A 
ATOM      6  C   UNL     1       3.738  -1.038   1.970  0.00  0.00    +0.000 A 
ENDROOT
BRANCH   1   8
ATOM      7  C   UNL     1       3.395  -0.777  -1.008  0.00  0.00    +0.000 C 
ATOM      8  C   UNL     1       2.456  -0.086  -0.009  0.00  0.00    +0.000 C 
ATOM      9  C   UNL     1       1.113  -0.782   0.008  0.00  0.00    +0.000 C 
ATOM     10  C   UNL     1       0.163   0.038  -0.442  0.00  0.00    +0.000 C 
ATOM     11  N   UNL     1       0.633   1.257  -0.836  0.00  0.00    +0.000 NA
ATOM     12  C   UNL     1       1.924   1.209  -0.619  0.00  0.00    +0.000 C 
BRANCH  12  13
ATOM     13  C   UNL     1       2.871   2.327  -0.971  0.00  0.00    +0.000 C 
ATOM     14  F   UNL     1       4.172   2.040  -0.695  0.00  0.00    +0.000 F 
ATOM     15  F   UNL     1       2.830   2.632  -2.297  0.00  0.00    +0.000 F 
ATOM     16  F   UNL     1       2.587   3.477  -0.300  0.00  0.00    +0.000 F 
ENDBRANCH  12  13
ENDBRANCH   1   8
BRANCH   5  17
ATOM     17  C   UNL     1       4.699  -2.333   3.909  0.00  0.00    +0.000 C 
BRANCH  17  18
ATOM     18  C   UNL     1       3.586  -3.348   4.204  0.00  0.00    +0.000 C 
BRANCH  18  19
ATOM     19  N   UNL     1       4.122  -4.619   4.714  0.00  0.00    +0.000 N 
ATOM     20  C   UNL     1       3.099  -5.551   4.987  0.00  0.00    +0.000 A 
ATOM     21  C   UNL     1       3.414  -6.810   5.502  0.00  0.00    +0.000 A 
ATOM     22  N   UNL     1       2.487  -7.762   5.801  0.00  0.00    +0.000 NA
ATOM     23  C   UNL     1       1.190  -7.425   5.548  0.00  0.00    +0.000 A 
ATOM     24  C   UNL     1       0.877  -6.185   5.016  0.00  0.00    +0.000 A 
ATOM     25  N   UNL     1       1.809  -5.244   4.726  0.00  0.00    +0.000 NA
ATOM     26  H   UNL     1       4.681  -4.487   5.552  0.00  0.00    +0.000 HD
BRANCH  23  27
ATOM     27  C   UNL     1       0.048  -8.371   5.844  0.00  0.00    +0.000 C 
ATOM     28  F   UNL     1       0.426  -9.579   6.346  0.00  0.00    +0.000 F 
ATOM     29  F   UNL     1      -0.831  -7.850   6.751  0.00  0.00    +0.000 F 
ATOM     30  F   UNL     1      -0.701  -8.645   4.736  0.00  0.00    +0.000 F 
ENDBRANCH  23  27
ENDBRANCH  18  19
ENDBRANCH  17  18
ENDBRANCH   5  17
TORSDOF 6
