REMARK  Name = 
REMARK  7 active torsions:
REMARK  status: ('A' for Active; 'I' for Inactive)
REMARK    1  A    between atoms: C_1  and  C_2
REMARK    2  A    between atoms: C_7  and  N_8
REMARK    3  A    between atoms: N_8  and  C_9
REMARK    4  A    between atoms: C_9  and  C_10
REMARK    5  A    between atoms: C_10  and  C_11
REMARK    6  A    between atoms: C_10  and  C_12
REMARK    7  A    between atoms: C_16  and  C_17
REMARK                            x       y       z     vdW  Elec       q    Type
REMARK                         _______ _______ _______ _____ _____    ______ ____
ROOT
ATOM      1  C   UNL     1       7.207   3.953   0.130  0.00  0.00    +0.000 C 
ATOM      2  C   UNL     1       6.698   4.701   1.368  0.00  0.00    +0.000 C 
ENDROOT
BRANCH   1   3
ATOM      3  C   UNL     1       8.726   4.021   0.068  0.00  0.00    +0.000 A 
ATOM      4  C   UNL     1       9.531   3.436   1.041  0.00  0.00    +0.000 A 
ATOM      5  N   UNL     1      10.877   3.479   1.038  0.00  0.00    +0.000 NA
ATOM      6  C   UNL     1      11.460   4.160   0.023  0.00  0.00    +0.000 A 
ATOM      7  C   UNL     1      10.781   4.794  -1.021  0.00  0.00    +0.000 A 
ATOM      8  C   UNL     1       9.379   4.691  -0.979  0.00  0.00    +0.000 A 
BRANCH   7   9
ATOM      9  C   UNL     1      11.494   5.555  -2.074  0.00  0.00    +0.000 A 
ATOM     10  C   UNL     1      12.785   5.188  -2.508  0.00  0.00    +0.000 A 
ATOM     11  C   UNL     1      13.478   5.944  -3.460  0.00  0.00    +0.000 A 
ATOM     12  C   UNL     1      12.882   7.070  -4.007  0.00  0.00    +0.000 A 
ATOM     13  F   UNL     1      13.546   7.798  -4.913  0.00  0.00    +0.000 F 
ATOM     14  C   UNL     1      11.606   7.451  -3.622  0.00  0.00    +0.000 A 
ATOM     15  C   UNL     1      10.921   6.702  -2.660  0.00  0.00    +0.000 A 
ENDBRANCH   7   9
ENDBRANCH   1   3
BRANCH   1  16
ATOM     16  C   UNL     1       6.740   2.485   0.094  0.00  0.00    +0.000 C 
BRANCH  16  17
ATOM     17  N   UNL     1       5.302   2.342   0.000  0.00  0.00    +0.000 N 
ATOM     18  H   UNL     1       4.674   3.134   0.045  0.00  0.00    +0.000 HD
BRANCH  17  25
ATOM     19  C   UNL     1       1.121   0.104  -0.162  0.00  0.00    +0.000 C 
ATOM     20  C   UNL     1       2.616   0.001  -0.110  0.00  0.00    +0.000 A 
ATOM     21  C   UNL     1       3.233  -1.235  -0.116  0.00  0.00    +0.000 A 
ATOM     22  C   UNL     1       4.611  -1.258  -0.072  0.00  0.00    +0.000 A 
ATOM     23  F   UNL     1       5.255  -2.433  -0.079  0.00  0.00    +0.000 F 
ATOM     24  C   UNL     1       5.342  -0.084  -0.030  0.00  0.00    +0.000 A 
ATOM     25  C   UNL     1       4.664   1.123  -0.025  0.00  0.00    +0.000 A 
ATOM     26  N   UNL     1       3.316   1.168  -0.062  0.00  0.00    +0.000 NA
ENDBRANCH  17  25
ENDBRANCH  16  17
ENDBRANCH   1  16
TORSDOF 5
