REMARK  Name = 
REMARK  6 active torsions:
REMARK  status: ('A' for Active; 'I' for Inactive)
REMARK    1  A    between atoms: C_1  and  C_2
REMARK    2  A    between atoms: C_4  and  C_5
REMARK    3  A    between atoms: C_9  and  C_10
REMARK    4  A    between atoms: C_10  and  O_11
REMARK    5  A    between atoms: O_11  and  C_12
REMARK    6  A    between atoms: C_14  and  C_15
REMARK                            x       y       z     vdW  Elec       q    Type
REMARK                         _______ _______ _______ _____ _____    ______ ____
ROOT
ATOM      1  C   UNL     1      -2.026  -2.401  -0.007  0.00  0.00    +0.000 A 
ATOM      2  C   UNL     1      -2.937  -2.701  -1.023  0.00  0.00    +0.000 A 
ATOM      3  N   UNL     1      -3.721  -3.807  -1.075  0.00  0.00    +0.000 NA
ATOM      4  C   UNL     1      -3.610  -4.677  -0.051  0.00  0.00    +0.000 A 
ATOM      5  C   UNL     1      -2.741  -4.506   1.016  0.00  0.00    +0.000 A 
ATOM      6  C   UNL     1      -1.948  -3.350   1.027  0.00  0.00    +0.000 A 
ENDROOT
BRANCH   1  10
ATOM      7  C   UNL     1       0.437   1.257   2.416  0.00  0.00    +0.000 C 
ATOM      8  C   UNL     1      -0.019   0.602   1.147  0.00  0.00    +0.000 A 
ATOM      9  C   UNL     1      -0.799  -0.552   1.180  0.00  0.00    +0.000 A 
ATOM     10  C   UNL     1      -1.203  -1.169  -0.014  0.00  0.00    +0.000 A 
ATOM     11  C   UNL     1      -0.790  -0.561  -1.207  0.00  0.00    +0.000 A 
ATOM     12  C   UNL     1      -0.026   0.595  -1.154  0.00  0.00    +0.000 A 
ATOM     13  N   UNL     1       0.369   1.184  -0.008  0.00  0.00    +0.000 NA
ENDBRANCH   1  10
BRANCH   5  14
ATOM     14  C   UNL     1      -2.656  -5.530   2.115  0.00  0.00    +0.000 C 
BRANCH  14  15
ATOM     15  O   UNL     1      -3.586  -5.202   3.150  0.00  0.00    +0.000 OA
BRANCH  15  16
ATOM     16  C   UNL     1      -3.624  -6.170   4.139  0.00  0.00    +0.000 A 
ATOM     17  C   UNL     1      -4.499  -5.966   5.185  0.00  0.00    +0.000 A 
ATOM     18  C   UNL     1      -4.537  -6.961   6.143  0.00  0.00    +0.000 A 
ATOM     19  C   UNL     1      -5.461  -6.886   7.321  0.00  0.00    +0.000 C 
ATOM     20  N   UNL     1      -3.767  -8.065   6.064  0.00  0.00    +0.000 NA
ATOM     21  C   UNL     1      -2.950  -8.152   5.007  0.00  0.00    +0.000 A 
ATOM     22  N   UNL     1      -2.833  -7.251   4.027  0.00  0.00    +0.000 NA
ENDBRANCH  15  16
ENDBRANCH  14  15
ENDBRANCH   5  14
TORSDOF 4
