REMARK  Name = 
REMARK  2 active torsions:
REMARK  status: ('A' for Active; 'I' for Inactive)
REMARK    1  A    between atoms: N_9  and  C_10
REMARK    2  A    between atoms: C_10  and  C_11
REMARK                            x       y       z     vdW  Elec       q    Type
REMARK                         _______ _______ _______ _____ _____    ______ ____
ROOT
ATOM      1  C   UNL     1       2.078   0.752  -0.063  0.00  0.00    +0.000 A 
ATOM      2  C   UNL     1       1.985  -0.633  -0.085  0.00  0.00    +0.000 A 
ATOM      3  N   UNL     1       0.838  -1.351  -0.063  0.00  0.00    +0.000 NA
ATOM      4  C   UNL     1      -0.267  -0.578  -0.010  0.00  0.00    +0.000 A 
ATOM      5  C   UNL     1      -0.315   0.813   0.009  0.00  0.00    +0.000 A 
ATOM      6  C   UNL     1       0.906   1.507  -0.018  0.00  0.00    +0.000 A 
ATOM      7  C   UNL     1      -1.686   1.181   0.044  0.00  0.00    +0.000 A 
ATOM      8  C   UNL     1      -2.432   0.020   0.059  0.00  0.00    +0.000 A 
ATOM      9  N   UNL     1      -1.559  -1.043   0.046  0.00  0.00    +0.000 N 
ENDROOT
BRANCH   9  10
ATOM     10  C   UNL     1      -1.942  -2.446  -0.006  0.00  0.00    +0.000 C 
BRANCH  10  11
ATOM     11  C   UNL     1      -2.065  -3.070   1.356  0.00  0.00    +0.000 A 
ATOM     12  C   UNL     1      -3.288  -3.526   1.846  0.00  0.00    +0.000 A 
ATOM     13  C   UNL     1      -3.315  -4.151   3.080  0.00  0.00    +0.000 A 
ATOM     14  N   UNL     1      -2.210  -4.331   3.829  0.00  0.00    +0.000 NA
ATOM     15  N   UNL     1      -1.014  -3.883   3.366  0.00  0.00    +0.000 NA
ATOM     16  C   UNL     1      -0.953  -3.272   2.162  0.00  0.00    +0.000 A 
ENDBRANCH  10  11
ENDBRANCH   9  10
TORSDOF 2
