REMARK  Name = 
REMARK  6 active torsions:
REMARK  status: ('A' for Active; 'I' for Inactive)
REMARK    1  A    between atoms: C_2  and  C_19
REMARK    2  A    between atoms: N_3  and  C_4
REMARK    3  A    between atoms: C_4  and  C_5
REMARK    4  A    between atoms: C_8  and  C_9
REMARK    5  A    between atoms: C_9  and  O_10
REMARK    6  A    between atoms: C_9  and  C_11
REMARK                            x       y       z     vdW  Elec       q    Type
REMARK                         _______ _______ _______ _____ _____    ______ ____
ROOT
ATOM      1  C   UNL     1       2.187   2.312   0.901  0.00  0.00    +0.000 C 
ENDROOT
BRANCH   1   2
ATOM      2  C   UNL     1       3.114   3.441   1.268  0.00  0.00    +0.000 A 
ATOM      3  C   UNL     1       2.792   4.763   0.932  0.00  0.00    +0.000 A 
ATOM      4  C   UNL     1       3.619   5.823   1.321  0.00  0.00    +0.000 A 
ATOM      5  C   UNL     1       4.796   5.580   2.047  0.00  0.00    +0.000 A 
ATOM      6  C   UNL     1       5.139   4.249   2.328  0.00  0.00    +0.000 A 
ATOM      7  C   UNL     1       4.313   3.191   1.943  0.00  0.00    +0.000 A 
BRANCH   5   8
ATOM      8  C   UNL     1       5.695   6.729   2.478  0.00  0.00    +0.000 C 
BRANCH   8   9
ATOM      9  C   UNL     1       6.727   7.093   1.419  0.00  0.00    +0.000 A 
ATOM     10  C   UNL     1       6.445   8.068   0.463  0.00  0.00    +0.000 A 
ATOM     11  C   UNL     1       7.370   8.301  -0.551  0.00  0.00    +0.000 A 
ATOM     12  C   UNL     1       8.552   7.570  -0.577  0.00  0.00    +0.000 A 
ATOM     13  C   UNL     1       8.776   6.649   0.433  0.00  0.00    +0.000 A 
ATOM     14  N   UNL     1       7.901   6.398   1.432  0.00  0.00    +0.000 NA
ENDBRANCH   8   9
BRANCH   8  15
ATOM     15  O   UNL     1       6.363   6.368   3.696  0.00  0.00    +0.000 OA
ATOM     16  H   UNL     1       7.261   6.107   3.407  0.00  0.00    +0.000 HD
ENDBRANCH   8  15
ENDBRANCH   5   8
ENDBRANCH   1   2
BRANCH   1  19
ATOM     17  O   UNL     1       0.855   0.181  -0.269  0.00  0.00    +0.000 OA
ATOM     18  C   UNL     1       1.720   0.752  -0.923  0.00  0.00    +0.000 C 
ATOM     19  N   UNL     1       2.480   1.774  -0.401  0.00  0.00    +0.000 N 
ATOM     20  H   UNL     1       3.007   2.371  -1.027  0.00  0.00    +0.000 HD
BRANCH  18  21
ATOM     21  C   UNL     1       2.047   0.344  -2.291  0.00  0.00    +0.000 A 
ATOM     22  C   UNL     1       1.816  -0.961  -2.710  0.00  0.00    +0.000 A 
ATOM     23  S   UNL     1       2.252  -1.231  -4.337  0.00  0.00    +0.000 S 
ATOM     24  C   UNL     1       2.726   0.391  -4.543  0.00  0.00    +0.000 A 
ATOM     25  N   UNL     1       3.177   0.844  -5.744  0.00  0.00    +0.000 NA
ATOM     26  C   UNL     1       3.477   2.103  -5.757  0.00  0.00    +0.000 A 
ATOM     27  N   UNL     1       3.372   2.943  -4.680  0.00  0.00    +0.000 N 
ATOM     28  C   UNL     1       2.952   2.522  -3.446  0.00  0.00    +0.000 A 
ATOM     29  O   UNL     1       2.919   3.293  -2.492  0.00  0.00    +0.000 OA
ATOM     30  C   UNL     1       2.580   1.122  -3.379  0.00  0.00    +0.000 A 
ATOM     31  H   UNL     1       3.638   3.915  -4.756  0.00  0.00    +0.000 HD
ENDBRANCH  18  21
ENDBRANCH   1  19
TORSDOF 6
