REMARK  Name = 
REMARK  5 active torsions:
REMARK  status: ('A' for Active; 'I' for Inactive)
REMARK    1  A    between atoms: C_2  and  C_4
REMARK    2  A    between atoms: C_7  and  N_8
REMARK    3  A    between atoms: N_8  and  C_9
REMARK    4  A    between atoms: C_9  and  C_10
REMARK    5  A    between atoms: C_14  and  C_15
REMARK                            x       y       z     vdW  Elec       q    Type
REMARK                         _______ _______ _______ _____ _____    ______ ____
ROOT
ATOM      1  N   UNL     1       5.537  -2.529  -4.078  0.00  0.00    +0.000 N 
ATOM      2  H   UNL     1       4.697  -3.049  -4.348  0.00  0.00    +0.000 HD
ENDROOT
BRANCH   1   6
ATOM      3  C   UNL     1       4.450   0.518  -1.532  0.00  0.00    +0.000 A 
ATOM      4  N   UNL     1       4.208   0.680  -2.854  0.00  0.00    +0.000 NA
ATOM      5  C   UNL     1       4.595  -0.352  -3.636  0.00  0.00    +0.000 A 
ATOM      6  C   UNL     1       5.219  -1.507  -3.184  0.00  0.00    +0.000 A 
ATOM      7  C   UNL     1       5.375  -1.550  -1.809  0.00  0.00    +0.000 A 
ATOM      8  N   UNL     1       5.018  -0.561  -0.964  0.00  0.00    +0.000 NA
BRANCH   3  10
ATOM      9  N   UNL     1       3.409   2.713  -1.244  0.00  0.00    +0.000 N 
ATOM     10  C   UNL     1       4.010   1.647  -0.623  0.00  0.00    +0.000 C 
ATOM     11  O   UNL     1       4.160   1.638   0.594  0.00  0.00    +0.000 OA
ATOM     12  H   UNL     1       3.070   3.479  -0.683  0.00  0.00    +0.000 HD
ATOM     13  H   UNL     1       3.268   2.706  -2.248  0.00  0.00    +0.000 HD
ENDBRANCH   3  10
ENDBRANCH   1   6
BRANCH   1  14
ATOM     14  C   UNL     1       6.591  -3.476  -3.708  0.00  0.00    +0.000 C 
BRANCH  14  15
ATOM     15  C   UNL     1       7.112  -4.146  -4.966  0.00  0.00    +0.000 A 
ATOM     16  C   UNL     1       8.103  -3.523  -5.719  0.00  0.00    +0.000 A 
ATOM     17  C   UNL     1       8.528  -4.120  -6.899  0.00  0.00    +0.000 A 
ATOM     18  C   UNL     1       7.947  -5.317  -7.304  0.00  0.00    +0.000 A 
ATOM     19  C   UNL     1       6.951  -5.894  -6.514  0.00  0.00    +0.000 A 
ATOM     20  N   UNL     1       6.529  -5.312  -5.350  0.00  0.00    +0.000 NA
BRANCH  19  21
ATOM     21  C   UNL     1       6.308  -7.205  -6.952  0.00  0.00    +0.000 C 
ATOM     22  F   UNL     1       6.811  -7.687  -8.129  0.00  0.00    +0.000 F 
ATOM     23  F   UNL     1       6.481  -8.212  -6.048  0.00  0.00    +0.000 F 
ATOM     24  F   UNL     1       4.963  -7.101  -7.150  0.00  0.00    +0.000 F 
ENDBRANCH  19  21
ENDBRANCH  14  15
ENDBRANCH   1  14
TORSDOF 5
