REMARK  Name = 
REMARK  6 active torsions:
REMARK  status: ('A' for Active; 'I' for Inactive)
REMARK    1  A    between atoms: C_2  and  C_20
REMARK    2  A    between atoms: N_3  and  C_4
REMARK    3  A    between atoms: C_4  and  C_5
REMARK    4  A    between atoms: C_8  and  C_9
REMARK    5  A    between atoms: C_9  and  C_10
REMARK    6  A    between atoms: C_11  and  C_12
REMARK                            x       y       z     vdW  Elec       q    Type
REMARK                         _______ _______ _______ _____ _____    ______ ____
ROOT
ATOM      1  C   UNL     1       2.173  -2.543  -0.188  0.00  0.00    +0.000 C 
ENDROOT
BRANCH   1   2
ATOM      2  C   UNL     1       3.184  -3.651  -0.232  0.00  0.00    +0.000 A 
ATOM      3  C   UNL     1       4.555  -3.403  -0.337  0.00  0.00    +0.000 A 
ATOM      4  C   UNL     1       5.454  -4.469  -0.377  0.00  0.00    +0.000 A 
ATOM      5  C   UNL     1       4.962  -5.770  -0.312  0.00  0.00    +0.000 A 
ATOM      6  N   UNL     1       3.636  -6.033  -0.188  0.00  0.00    +0.000 NA
ATOM      7  C   UNL     1       2.787  -4.977  -0.142  0.00  0.00    +0.000 A 
BRANCH   5   8
ATOM      8  C   UNL     1       5.904  -6.954  -0.365  0.00  0.00    +0.000 C 
BRANCH   8   9
ATOM      9  C   UNL     1       6.338  -7.424   0.994  0.00  0.00    +0.000 C 
ATOM     10  C   UNL     1       7.599  -7.547   1.440  0.00  0.00    +0.000 C 
BRANCH  10  11
ATOM     11  C   UNL     1       7.905  -8.082   2.779  0.00  0.00    +0.000 A 
ATOM     12  C   UNL     1       9.209  -8.204   3.259  0.00  0.00    +0.000 A 
ATOM     13  N   UNL     1       9.504  -8.711   4.484  0.00  0.00    +0.000 NA
ATOM     14  C   UNL     1       8.438  -9.102   5.218  0.00  0.00    +0.000 A 
ATOM     15  C   UNL     1       7.141  -8.987   4.752  0.00  0.00    +0.000 A 
ATOM     16  N   UNL     1       6.852  -8.476   3.537  0.00  0.00    +0.000 NA
ENDBRANCH  10  11
ENDBRANCH   8   9
ENDBRANCH   5   8
ENDBRANCH   1   2
BRANCH   1  19
ATOM     17  O   UNL     1       0.085  -3.317   1.559  0.00  0.00    +0.000 OA
ATOM     18  C   UNL     1       0.938  -2.531   1.958  0.00  0.00    +0.000 C 
ATOM     19  N   UNL     1       1.953  -2.075   1.155  0.00  0.00    +0.000 N 
ATOM     20  H   UNL     1       2.726  -1.574   1.578  0.00  0.00    +0.000 HD
BRANCH  18  21
ATOM     21  C   UNL     1       0.902  -1.972   3.317  0.00  0.00    +0.000 A 
ATOM     22  C   UNL     1      -0.292  -1.923   4.025  0.00  0.00    +0.000 A 
ATOM     23  S   UNL     1      -0.135  -1.229   5.577  0.00  0.00    +0.000 S 
ATOM     24  C   UNL     1       1.540  -1.011   5.373  0.00  0.00    +0.000 A 
ATOM     25  N   UNL     1       2.307  -0.481   6.364  0.00  0.00    +0.000 NA
ATOM     26  C   UNL     1       3.566  -0.408   6.085  0.00  0.00    +0.000 A 
ATOM     27  N   UNL     1       4.128  -0.805   4.901  0.00  0.00    +0.000 N 
ATOM     28  C   UNL     1       3.383  -1.269   3.845  0.00  0.00    +0.000 A 
ATOM     29  O   UNL     1       3.901  -1.467   2.750  0.00  0.00    +0.000 OA
ATOM     30  C   UNL     1       1.969  -1.427   4.126  0.00  0.00    +0.000 A 
ATOM     31  H   UNL     1       5.115  -0.687   4.726  0.00  0.00    +0.000 HD
ENDBRANCH  18  21
ENDBRANCH   1  19
TORSDOF 6
