REMARK  Name = 
REMARK  9 active torsions:
REMARK  status: ('A' for Active; 'I' for Inactive)
REMARK    1  A    between atoms: C_1  and  O_2
REMARK    2  A    between atoms: O_2  and  C_3
REMARK    3  A    between atoms: C_10  and  C_11
REMARK    4  A    between atoms: N_13  and  C_14
REMARK    5  A    between atoms: C_14  and  C_15
REMARK    6  A    between atoms: C_18  and  N_19
REMARK    7  A    between atoms: N_19  and  C_20
REMARK    8  A    between atoms: C_20  and  C_21
REMARK    9  A    between atoms: C_21  and  N_22
REMARK                            x       y       z     vdW  Elec       q    Type
REMARK                         _______ _______ _______ _____ _____    ______ ____
ROOT
ATOM      1  C   UNL     1       2.737   2.535  -2.291  0.00  0.00    +0.000 C 
ENDROOT
BRANCH   1   2
ATOM      2  C   UNL     1       1.545   1.763  -2.798  0.00  0.00    +0.000 A 
ATOM      3  C   UNL     1       1.621   0.380  -2.984  0.00  0.00    +0.000 A 
ATOM      4  C   UNL     1       0.497  -0.346  -3.397  0.00  0.00    +0.000 A 
ATOM      5  C   UNL     1      -0.734   0.282  -3.616  0.00  0.00    +0.000 A 
ATOM      6  C   UNL     1      -0.768   1.679  -3.548  0.00  0.00    +0.000 A 
ATOM      7  C   UNL     1       0.350   2.413  -3.129  0.00  0.00    +0.000 A 
BRANCH   5   8
ATOM      8  N   UNL     1      -1.905  -0.401  -3.976  0.00  0.00    +0.000 N 
ATOM      9  H   UNL     1      -2.039  -0.424  -4.988  0.00  0.00    +0.000 HD
BRANCH   8  10
ATOM     10  C   UNL     1      -2.090  -1.735  -3.392  0.00  0.00    +0.000 C 
BRANCH  10  11
ATOM     11  C   UNL     1      -3.403  -2.394  -3.872  0.00  0.00    +0.000 C 
BRANCH  11  12
ATOM     12  N   UNL     1      -3.518  -2.618  -5.334  0.00  0.00    +0.000 NA
ATOM     13  C   UNL     1      -2.442  -3.478  -5.852  0.00  0.00    +0.000 C 
ATOM     14  C   UNL     1      -2.565  -3.665  -7.365  0.00  0.00    +0.000 C 
ATOM     15  C   UNL     1      -3.920  -4.244  -7.744  0.00  0.00    +0.000 C 
ATOM     16  C   UNL     1      -5.041  -3.414  -7.133  0.00  0.00    +0.000 C 
ATOM     17  C   UNL     1      -4.835  -3.216  -5.630  0.00  0.00    +0.000 C 
ENDBRANCH  11  12
ENDBRANCH  10  11
ENDBRANCH   8  10
ENDBRANCH   5   8
ENDBRANCH   1   2
BRANCH   1  20
ATOM     18  C   UNL     1       4.737   3.659  -3.182  0.00  0.00    +0.000 C 
ATOM     19  O   UNL     1       5.148   3.914  -2.056  0.00  0.00    +0.000 OA
ATOM     20  N   UNL     1       3.563   2.988  -3.379  0.00  0.00    +0.000 N 
ATOM     21  H   UNL     1       3.216   2.834  -4.315  0.00  0.00    +0.000 HD
BRANCH  18  29
ATOM     22  C   UNL     1       4.261   3.140  -6.553  0.00  0.00    +0.000 A 
ATOM     23  N   UNL     1       4.317   3.088  -7.899  0.00  0.00    +0.000 NA
ATOM     24  C   UNL     1       5.343   3.689  -8.507  0.00  0.00    +0.000 A 
ATOM     25  N   UNL     1       6.343   4.348  -7.928  0.00  0.00    +0.000 NA
ATOM     26  C   UNL     1       6.246   4.381  -6.588  0.00  0.00    +0.000 A 
ATOM     27  S   UNL     1       7.439   5.178  -5.681  0.00  0.00    +0.000 S 
ATOM     28  C   UNL     1       6.659   4.795  -4.222  0.00  0.00    +0.000 A 
ATOM     29  C   UNL     1       5.487   4.063  -4.385  0.00  0.00    +0.000 A 
ATOM     30  C   UNL     1       5.243   3.816  -5.807  0.00  0.00    +0.000 A 
BRANCH  22  32
ATOM     31  C   UNL     1       2.590   1.505  -6.694  0.00  0.00    +0.000 C 
ATOM     32  O   UNL     1       3.184   2.549  -5.927  0.00  0.00    +0.000 OA
ENDBRANCH  22  32
ENDBRANCH  18  29
ENDBRANCH   1  20
TORSDOF 8
