REMARK  Name = 
REMARK  5 active torsions:
REMARK  status: ('A' for Active; 'I' for Inactive)
REMARK    1  A    between atoms: C_2  and  C_18
REMARK    2  A    between atoms: N_3  and  C_4
REMARK    3  A    between atoms: C_4  and  C_5
REMARK    4  A    between atoms: N_8  and  C_9
REMARK    5  A    between atoms: C_9  and  C_10
REMARK                            x       y       z     vdW  Elec       q    Type
REMARK                         _______ _______ _______ _____ _____    ______ ____
ROOT
ATOM      1  O   UNL     1      -0.317   0.165   3.532  0.00  0.00    +0.000 OA
ATOM      2  C   UNL     1       0.138   1.155   2.975  0.00  0.00    +0.000 C 
ATOM      3  N   UNL     1       1.403   1.193   2.421  0.00  0.00    +0.000 N 
ATOM      4  H   UNL     1       1.750   2.068   2.058  0.00  0.00    +0.000 HD
ENDROOT
BRANCH   2   5
ATOM      5  C   UNL     1      -0.639   2.385   2.793  0.00  0.00    +0.000 A 
ATOM      6  C   UNL     1      -0.561   3.170   1.651  0.00  0.00    +0.000 A 
ATOM      7  S   UNL     1      -1.641   4.493   1.664  0.00  0.00    +0.000 S 
ATOM      8  C   UNL     1      -2.260   4.045   3.185  0.00  0.00    +0.000 A 
ATOM      9  N   UNL     1      -3.259   4.760   3.770  0.00  0.00    +0.000 NA
ATOM     10  C   UNL     1      -3.646   4.291   4.909  0.00  0.00    +0.000 A 
ATOM     11  N   UNL     1      -3.113   3.186   5.521  0.00  0.00    +0.000 N 
ATOM     12  C   UNL     1      -2.037   2.487   5.014  0.00  0.00    +0.000 A 
ATOM     13  O   UNL     1      -1.473   1.633   5.687  0.00  0.00    +0.000 OA
ATOM     14  C   UNL     1      -1.626   2.926   3.693  0.00  0.00    +0.000 A 
ATOM     15  H   UNL     1      -3.417   2.908   6.441  0.00  0.00    +0.000 HD
ENDBRANCH   2   5
BRANCH   3  16
ATOM     16  C   UNL     1       2.312   0.061   2.458  0.00  0.00    +0.000 C 
BRANCH  16  17
ATOM     17  C   UNL     1       3.269   0.101   3.663  0.00  0.00    +0.000 C 
ATOM     18  C   UNL     1       4.195   1.322   3.664  0.00  0.00    +0.000 C 
ATOM     19  C   UNL     1       5.244   1.276   2.546  0.00  0.00    +0.000 C 
ATOM     20  N   UNL     1       6.036   0.040   2.521  0.00  0.00    +0.000 NA
ATOM     21  C   UNL     1       5.209  -1.178   2.604  0.00  0.00    +0.000 C 
ATOM     22  C   UNL     1       4.159  -1.146   3.721  0.00  0.00    +0.000 C 
BRANCH  20  23
ATOM     23  C   UNL     1       6.929  -0.046   1.328  0.00  0.00    +0.000 C 
BRANCH  23  24
ATOM     24  C   UNL     1       7.923   1.129   1.128  0.00  0.00    +0.000 C 
ATOM     25  C   UNL     1       8.721   1.008  -0.193  0.00  0.00    +0.000 C 
ATOM     26  C   UNL     1      10.063   0.284  -0.075  0.00  0.00    +0.000 C 
ATOM     27  C   UNL     1      10.845   0.727   1.152  0.00  0.00    +0.000 C 
ATOM     28  N   UNL     1      10.034   0.493   2.347  0.00  0.00    +0.000 NA
ATOM     29  C   UNL     1       8.850   1.355   2.334  0.00  0.00    +0.000 C 
ATOM     30  H   UNL     1      10.588   0.709   3.176  0.00  0.00    +0.000 HD
ENDBRANCH  23  24
ENDBRANCH  20  23
ENDBRANCH  16  17
ENDBRANCH   3  16
TORSDOF 5
