REMARK  Name = 
REMARK  7 active torsions:
REMARK  status: ('A' for Active; 'I' for Inactive)
REMARK    1  A    between atoms: N_1  and  C_2
REMARK    2  A    between atoms: C_2  and  C_3
REMARK    3  A    between atoms: C_7  and  O_8
REMARK    4  A    between atoms: O_8  and  C_9
REMARK    5  A    between atoms: C_9  and  C_10
REMARK    6  A    between atoms: C_10  and  C_11
REMARK    7  A    between atoms: C_15  and  C_16
REMARK                            x       y       z     vdW  Elec       q    Type
REMARK                         _______ _______ _______ _____ _____    ______ ____
ROOT
ATOM      1  C   UNL     1       2.424  -5.910   1.358  0.00  0.00    +0.000 C 
ENDROOT
BRANCH   1   2
ATOM      2  O   UNL     1       2.561  -4.811   0.449  0.00  0.00    +0.000 OA
BRANCH   2   7
ATOM      3  C   UNL     1       3.624  -1.320   0.494  0.00  0.00    +0.000 A 
ATOM      4  C   UNL     1       4.105  -1.183   1.802  0.00  0.00    +0.000 A 
ATOM      5  C   UNL     1       4.087  -2.265   2.680  0.00  0.00    +0.000 A 
ATOM      6  C   UNL     1       3.579  -3.497   2.265  0.00  0.00    +0.000 A 
ATOM      7  C   UNL     1       3.091  -3.656   0.967  0.00  0.00    +0.000 A 
ATOM      8  C   UNL     1       3.122  -2.568   0.087  0.00  0.00    +0.000 A 
BRANCH   3   9
ATOM      9  C   UNL     1       3.605  -0.135  -0.439  0.00  0.00    +0.000 C 
BRANCH   9  10
ATOM     10  N   UNL     1       4.930   0.454  -0.599  0.00  0.00    +0.000 NA
ATOM     11  H   UNL     1       4.888   1.176  -1.316  0.00  0.00    +0.000 HD
ATOM     12  H   UNL     1       5.565  -0.263  -0.948  0.00  0.00    +0.000 HD
ENDBRANCH   9  10
ENDBRANCH   3   9
ENDBRANCH   2   7
ENDBRANCH   1   2
BRANCH   1  13
ATOM     13  C   UNL     1       1.763  -7.076   0.637  0.00  0.00    +0.000 C 
BRANCH  13  14
ATOM     14  C   UNL     1       1.619  -8.246   1.568  0.00  0.00    +0.000 A 
ATOM     15  N   UNL     1       0.503  -8.306   2.319  0.00  0.00    +0.000 NA
ATOM     16  C   UNL     1       0.390  -9.344   3.173  0.00  0.00    +0.000 A 
ATOM     17  C   UNL     1       1.348 -10.313   3.311  0.00  0.00    +0.000 A 
ATOM     18  C   UNL     1       2.455 -10.155   2.510  0.00  0.00    +0.000 A 
ATOM     19  N   UNL     1       2.627  -9.132   1.632  0.00  0.00    +0.000 NA
BRANCH  18  20
ATOM     20  C   UNL     1       3.561 -11.160   2.593  0.00  0.00    +0.000 C 
ATOM     21  N   UNL     1       4.629 -10.935   1.768  0.00  0.00    +0.000 N 
ATOM     22  O   UNL     1       3.519 -12.123   3.347  0.00  0.00    +0.000 OA
ATOM     23  H   UNL     1       4.629 -10.135   1.146  0.00  0.00    +0.000 HD
ATOM     24  H   UNL     1       5.403 -11.583   1.768  0.00  0.00    +0.000 HD
ENDBRANCH  18  20
ENDBRANCH  13  14
ENDBRANCH   1  13
TORSDOF 7
