REMARK  Name = 
REMARK  6 active torsions:
REMARK  status: ('A' for Active; 'I' for Inactive)
REMARK    1  A    between atoms: C_1  and  C_2
REMARK    2  A    between atoms: C_2  and  C_3
REMARK    3  A    between atoms: C_2  and  C_4
REMARK    4  A    between atoms: C_2  and  C_5
REMARK    5  A    between atoms: N_7  and  C_8
REMARK    6  A    between atoms: C_8  and  C_9
REMARK                            x       y       z     vdW  Elec       q    Type
REMARK                         _______ _______ _______ _____ _____    ______ ____
ROOT
ATOM      1  C   UNL     1       2.871   1.055  -0.763  0.00  0.00    +0.000 A 
ATOM      2  C   UNL     1       2.484   2.356  -0.476  0.00  0.00    +0.000 A 
ATOM      3  N   UNL     1       3.059   3.215  -1.371  0.00  0.00    +0.000 N 
ATOM      4  C   UNL     1       3.765   2.502  -2.313  0.00  0.00    +0.000 A 
ATOM      5  C   UNL     1       4.460   2.931  -3.443  0.00  0.00    +0.000 A 
ATOM      6  N   UNL     1       5.080   2.027  -4.231  0.00  0.00    +0.000 NA
ATOM      7  C   UNL     1       5.024   0.726  -3.890  0.00  0.00    +0.000 A 
ATOM      8  C   UNL     1       4.360   0.230  -2.779  0.00  0.00    +0.000 A 
ATOM      9  C   UNL     1       3.686   1.148  -1.953  0.00  0.00    +0.000 A 
ENDROOT
BRANCH   1  11
ATOM     10  C   UNL     1       0.889  -0.275   0.025  0.00  0.00    +0.000 C 
ATOM     11  C   UNL     1       2.429  -0.154   0.069  0.00  0.00    +0.000 C 
ATOM     12  C   UNL     1       2.869   0.038   1.539  0.00  0.00    +0.000 C 
ATOM     13  C   UNL     1       3.009  -1.497  -0.405  0.00  0.00    +0.000 C 
ENDBRANCH   1  11
BRANCH   3  14
ATOM     14  C   UNL     1       2.849   4.660  -1.362  0.00  0.00    +0.000 C 
BRANCH  14  15
ATOM     15  C   UNL     1       3.878   5.398  -0.550  0.00  0.00    +0.000 A 
ATOM     16  C   UNL     1       4.043   5.159   0.814  0.00  0.00    +0.000 A 
ATOM     17  N   UNL     1       4.881   5.880   1.597  0.00  0.00    +0.000 NA
ATOM     18  C   UNL     1       5.565   6.857   0.966  0.00  0.00    +0.000 A 
ATOM     19  C   UNL     1       5.422   7.100  -0.388  0.00  0.00    +0.000 A 
ATOM     20  N   UNL     1       4.577   6.387  -1.170  0.00  0.00    +0.000 NA
ENDBRANCH  14  15
ENDBRANCH   3  14
TORSDOF 3
