REMARK  Name = 
REMARK  5 active torsions:
REMARK  status: ('A' for Active; 'I' for Inactive)
REMARK    1  A    between atoms: C_2  and  C_4
REMARK    2  A    between atoms: C_7  and  O_8
REMARK    3  A    between atoms: O_8  and  C_9
REMARK    4  A    between atoms: C_9  and  C_10
REMARK    5  A    between atoms: C_14  and  C_15
REMARK                            x       y       z     vdW  Elec       q    Type
REMARK                         _______ _______ _______ _____ _____    ______ ____
ROOT
ATOM      1  C   UNL     1       4.882  -2.123   5.657  0.00  0.00    +0.000 C 
ENDROOT
BRANCH   1   2
ATOM      2  C   UNL     1       5.769  -2.162   6.872  0.00  0.00    +0.000 A 
ATOM      3  C   UNL     1       6.128  -3.384   7.427  0.00  0.00    +0.000 A 
ATOM      4  N   UNL     1       6.882  -3.516   8.536  0.00  0.00    +0.000 NA
ATOM      5  C   UNL     1       7.293  -2.370   9.130  0.00  0.00    +0.000 A 
ATOM      6  C   UNL     1       6.981  -1.078   8.696  0.00  0.00    +0.000 A 
ATOM      7  C   UNL     1       6.191  -1.003   7.538  0.00  0.00    +0.000 A 
BRANCH   6   8
ATOM      8  C   UNL     1       7.456   0.123   9.409  0.00  0.00    +0.000 A 
ATOM      9  C   UNL     1       7.624   0.150  10.802  0.00  0.00    +0.000 A 
ATOM     10  C   UNL     1       8.099   1.294  11.443  0.00  0.00    +0.000 A 
ATOM     11  C   UNL     1       8.388   2.405  10.673  0.00  0.00    +0.000 A 
ATOM     12  N   UNL     1       8.233   2.442   9.335  0.00  0.00    +0.000 NA
ATOM     13  C   UNL     1       7.779   1.309   8.743  0.00  0.00    +0.000 A 
ENDBRANCH   6   8
ENDBRANCH   1   2
BRANCH   1  14
ATOM     14  O   UNL     1       5.175  -0.977   4.849  0.00  0.00    +0.000 OA
BRANCH  14  18
ATOM     15  C   UNL     1       2.829  -0.793   1.522  0.00  0.00    +0.000 A 
ATOM     16  C   UNL     1       3.771   0.204   1.716  0.00  0.00    +0.000 A 
ATOM     17  C   UNL     1       4.567   0.138   2.856  0.00  0.00    +0.000 A 
ATOM     18  C   UNL     1       4.374  -0.918   3.727  0.00  0.00    +0.000 A 
ATOM     19  N   UNL     1       3.441  -1.874   3.511  0.00  0.00    +0.000 NA
ATOM     20  N   UNL     1       2.657  -1.814   2.398  0.00  0.00    +0.000 NA
BRANCH  15  22
ATOM     21  N   UNL     1       1.011  -1.802   0.272  0.00  0.00    +0.000 N 
ATOM     22  C   UNL     1       1.943  -0.800   0.326  0.00  0.00    +0.000 C 
ATOM     23  O   UNL     1       2.036   0.042  -0.559  0.00  0.00    +0.000 OA
ATOM     24  H   UNL     1       0.384  -1.851  -0.519  0.00  0.00    +0.000 HD
ATOM     25  H   UNL     1       0.936  -2.485   1.017  0.00  0.00    +0.000 HD
ENDBRANCH  15  22
ENDBRANCH  14  18
ENDBRANCH   1  14
TORSDOF 5
