REMARK  Name = 
REMARK  5 active torsions:
REMARK  status: ('A' for Active; 'I' for Inactive)
REMARK    1  A    between atoms: C_2  and  C_3
REMARK    2  A    between atoms: C_8  and  C_9
REMARK    3  A    between atoms: C_9  and  O_10
REMARK    4  A    between atoms: O_10  and  C_11
REMARK    5  A    between atoms: C_16  and  C_17
REMARK                            x       y       z     vdW  Elec       q    Type
REMARK                         _______ _______ _______ _____ _____    ______ ____
ROOT
ATOM      1  C   UNL     1       2.729   3.471   0.034  0.00  0.00    +0.000 A 
ATOM      2  C   UNL     1       2.476   4.506   0.924  0.00  0.00    +0.000 A 
ATOM      3  C   UNL     1       3.366   5.569   0.996  0.00  0.00    +0.000 A 
ATOM      4  F   UNL     1       3.120   6.578   1.844  0.00  0.00    +0.000 F 
ATOM      5  C   UNL     1       4.504   5.619   0.191  0.00  0.00    +0.000 A 
ATOM      6  C   UNL     1       4.799   4.570  -0.693  0.00  0.00    +0.000 A 
ATOM      7  C   UNL     1       3.902   3.486  -0.726  0.00  0.00    +0.000 A 
ENDROOT
BRANCH   6   8
ATOM      8  C   UNL     1       5.993   4.578  -1.571  0.00  0.00    +0.000 A 
ATOM      9  C   UNL     1       7.203   5.172  -1.169  0.00  0.00    +0.000 A 
ATOM     10  C   UNL     1       8.332   5.150  -1.996  0.00  0.00    +0.000 A 
ATOM     11  C   UNL     1       8.267   4.524  -3.233  0.00  0.00    +0.000 A 
ATOM     12  F   UNL     1       9.352   4.492  -4.017  0.00  0.00    +0.000 F 
ATOM     13  C   UNL     1       7.093   3.930  -3.666  0.00  0.00    +0.000 A 
ATOM     14  C   UNL     1       5.964   3.968  -2.845  0.00  0.00    +0.000 A 
ENDBRANCH   6   8
BRANCH   1  15
ATOM     15  O   UNL     1       1.784   2.482  -0.031  0.00  0.00    +0.000 OA
BRANCH  15  16
ATOM     16  C   UNL     1       1.760   1.742  -1.259  0.00  0.00    +0.000 C 
BRANCH  16  22
ATOM     17  C   UNL     1       0.222  -0.267  -1.615  0.00  0.00    +0.000 A 
ATOM     18  N   UNL     1      -1.001  -0.840  -1.766  0.00  0.00    +0.000 NA
ATOM     19  C   UNL     1      -2.077  -0.026  -1.706  0.00  0.00    +0.000 A 
ATOM     20  C   UNL     1      -1.997   1.341  -1.518  0.00  0.00    +0.000 A 
ATOM     21  C   UNL     1      -0.738   1.908  -1.370  0.00  0.00    +0.000 A 
ATOM     22  C   UNL     1       0.409   1.100  -1.404  0.00  0.00    +0.000 A 
BRANCH  17  24
ATOM     23  N   UNL     1       2.252  -1.884  -1.815  0.00  0.00    +0.000 NA
ATOM     24  C   UNL     1       1.326  -1.190  -1.721  0.00  0.00    +0.000 C 
ENDBRANCH  17  24
ENDBRANCH  16  22
ENDBRANCH  15  16
ENDBRANCH   1  15
TORSDOF 5
