REMARK  Name = 
REMARK  6 active torsions:
REMARK  status: ('A' for Active; 'I' for Inactive)
REMARK    1  A    between atoms: C_1  and  C_2
REMARK    2  A    between atoms: C_6  and  C_7
REMARK    3  A    between atoms: C_11  and  C_12
REMARK    4  A    between atoms: C_12  and  N_13
REMARK    5  A    between atoms: C_16  and  C_17
REMARK    6  A    between atoms: C_19  and  C_20
REMARK                            x       y       z     vdW  Elec       q    Type
REMARK                         _______ _______ _______ _____ _____    ______ ____
ROOT
ATOM      1  C   UNL     1      -4.607   4.210   1.761  0.00  0.00    +0.000 C 
ATOM      2  C   UNL     1      -6.034   4.108   1.239  0.00  0.00    +0.000 C 
ATOM      3  C   UNL     1      -5.528   5.418   1.733  0.00  0.00    +0.000 C 
ENDROOT
BRANCH   1   4
ATOM      4  N   UNL     1      -4.276   3.566   3.049  0.00  0.00    +0.000 N 
ATOM      5  C   UNL     1      -3.477   4.169   4.037  0.00  0.00    +0.000 A 
ATOM      6  C   UNL     1      -3.526   5.533   4.327  0.00  0.00    +0.000 A 
ATOM      7  C   UNL     1      -2.782   6.066   5.387  0.00  0.00    +0.000 A 
ATOM      8  C   UNL     1      -2.848   7.525   5.725  0.00  0.00    +0.000 C 
ATOM      9  C   UNL     1      -1.985   5.204   6.130  0.00  0.00    +0.000 A 
ATOM     10  C   UNL     1      -1.982   3.863   5.782  0.00  0.00    +0.000 A 
ATOM     11  N   UNL     1      -2.710   3.327   4.758  0.00  0.00    +0.000 NA
ATOM     12  H   UNL     1      -3.963   2.600   2.991  0.00  0.00    +0.000 HD
BRANCH  10  13
ATOM     13  C   UNL     1      -1.143   2.903   6.572  0.00  0.00    +0.000 C 
ATOM     14  N   UNL     1      -1.204   1.600   6.164  0.00  0.00    +0.000 N 
ATOM     15  O   UNL     1      -0.454   3.250   7.521  0.00  0.00    +0.000 OA
ATOM     16  H   UNL     1      -1.793   1.345   5.382  0.00  0.00    +0.000 HD
ATOM     17  H   UNL     1      -0.672   0.897   6.661  0.00  0.00    +0.000 HD
ENDBRANCH  10  13
ENDBRANCH   1   4
BRANCH   1  22
ATOM     18  C   UNL     1      -1.484   4.992  -0.364  0.00  0.00    +0.000 A 
ATOM     19  C   UNL     1      -1.417   3.842  -1.170  0.00  0.00    +0.000 A 
ATOM     20  C   UNL     1      -2.366   2.823  -1.049  0.00  0.00    +0.000 A 
ATOM     21  C   UNL     1      -3.393   2.932  -0.110  0.00  0.00    +0.000 A 
ATOM     22  C   UNL     1      -3.511   4.065   0.708  0.00  0.00    +0.000 A 
ATOM     23  C   UNL     1      -2.552   5.079   0.549  0.00  0.00    +0.000 A 
BRANCH  18  29
ATOM     24  C   UNL     1       1.845   7.831  -2.882  0.00  0.00    +0.000 C 
ATOM     25  C   UNL     1       1.125   7.464  -1.624  0.00  0.00    +0.000 A 
ATOM     26  C   UNL     1       1.361   8.136  -0.434  0.00  0.00    +0.000 A 
ATOM     27  N   UNL     1       0.757   7.838   0.731  0.00  0.00    +0.000 NA
ATOM     28  C   UNL     1      -0.130   6.815   0.702  0.00  0.00    +0.000 A 
ATOM     29  C   UNL     1      -0.478   6.071  -0.430  0.00  0.00    +0.000 A 
ATOM     30  C   UNL     1       0.182   6.427  -1.613  0.00  0.00    +0.000 A 
ENDBRANCH  18  29
ENDBRANCH   1  22
TORSDOF 4
