REMARK  Name = 
REMARK  5 active torsions:
REMARK  status: ('A' for Active; 'I' for Inactive)
REMARK    1  A    between atoms: C_2  and  C_4
REMARK    2  A    between atoms: C_7  and  C_8
REMARK    3  A    between atoms: C_8  and  C_9
REMARK    4  A    between atoms: C_9  and  C_10
REMARK    5  A    between atoms: C_17  and  O_18
REMARK                            x       y       z     vdW  Elec       q    Type
REMARK                         _______ _______ _______ _____ _____    ______ ____
ROOT
ATOM      1  C   UNL     1       5.460   3.803  -2.371  0.00  0.00    +0.000 C 
ENDROOT
BRANCH   1   5
ATOM      2  C   UNL     1       2.787   6.688  -3.880  0.00  0.00    +0.000 A 
ATOM      3  N   UNL     1       3.542   6.031  -4.793  0.00  0.00    +0.000 NA
ATOM      4  C   UNL     1       4.411   5.134  -4.287  0.00  0.00    +0.000 A 
ATOM      5  C   UNL     1       4.576   4.879  -2.939  0.00  0.00    +0.000 A 
ATOM      6  C   UNL     1       3.742   5.613  -2.112  0.00  0.00    +0.000 A 
ATOM      7  N   UNL     1       2.847   6.520  -2.548  0.00  0.00    +0.000 NA
BRANCH   2   9
ATOM      8  N   UNL     1       1.724   7.776  -5.796  0.00  0.00    +0.000 N 
ATOM      9  C   UNL     1       1.745   7.639  -4.424  0.00  0.00    +0.000 C 
ATOM     10  O   UNL     1       0.942   8.254  -3.730  0.00  0.00    +0.000 OA
ATOM     11  H   UNL     1       1.025   8.371  -6.217  0.00  0.00    +0.000 HD
ATOM     12  H   UNL     1       2.372   7.252  -6.370  0.00  0.00    +0.000 HD
ENDBRANCH   2   9
ENDBRANCH   1   5
BRANCH   1  13
ATOM     13  C   UNL     1       6.788   3.601  -3.093  0.00  0.00    +0.000 C 
ATOM     14  C   UNL     1       6.826   2.633  -4.268  0.00  0.00    +0.000 C 
ATOM     15  C   UNL     1       7.413   2.208  -2.963  0.00  0.00    +0.000 C 
BRANCH  13  16
ATOM     16  C   UNL     1       7.743   4.788  -3.081  0.00  0.00    +0.000 A 
ATOM     17  C   UNL     1       8.554   5.105  -1.999  0.00  0.00    +0.000 A 
ATOM     18  N   UNL     1       9.439   6.127  -1.962  0.00  0.00    +0.000 NA
ATOM     19  C   UNL     1       9.519   6.861  -3.079  0.00  0.00    +0.000 A 
ATOM     20  N   UNL     1       8.798   6.678  -4.191  0.00  0.00    +0.000 NA
ATOM     21  C   UNL     1       7.928   5.645  -4.156  0.00  0.00    +0.000 A 
ENDBRANCH  13  16
BRANCH  15  22
ATOM     22  O   UNL     1       8.847   2.143  -2.906  0.00  0.00    +0.000 OA
ATOM     23  H   UNL     1       9.240   1.865  -3.751  0.00  0.00    +0.000 HD
ENDBRANCH  15  22
ENDBRANCH   1  13
TORSDOF 5
