REMARK  Name = 
REMARK  7 active torsions:
REMARK  status: ('A' for Active; 'I' for Inactive)
REMARK    1  A    between atoms: C_2  and  C_3
REMARK    2  A    between atoms: C_7  and  C_8
REMARK    3  A    between atoms: N_10  and  C_11
REMARK    4  A    between atoms: C_11  and  C_12
REMARK    5  A    between atoms: C_15  and  C_16
REMARK    6  A    between atoms: C_16  and  N_17
REMARK    7  A    between atoms: C_18  and  C_20
REMARK                            x       y       z     vdW  Elec       q    Type
REMARK                         _______ _______ _______ _____ _____    ______ ____
ROOT
ATOM      1  C   UNL     1       3.973   6.090   1.404  0.00  0.00    +0.000 A 
ATOM      2  C   UNL     1       5.124   6.648   1.957  0.00  0.00    +0.000 A 
ATOM      3  C   UNL     1       5.003   7.663   2.910  0.00  0.00    +0.000 A 
ATOM      4  C   UNL     1       3.741   8.115   3.305  0.00  0.00    +0.000 A 
ATOM      5  C   UNL     1       2.650   7.507   2.687  0.00  0.00    +0.000 A 
ATOM      6  N   UNL     1       2.735   6.504   1.772  0.00  0.00    +0.000 NA
ENDROOT
BRANCH   1   7
ATOM      7  C   UNL     1       4.078   4.973   0.384  0.00  0.00    +0.000 C 
BRANCH   7  10
ATOM      8  C   UNL     1       4.206   2.531   0.192  0.00  0.00    +0.000 C 
ATOM      9  O   UNL     1       4.295   2.600  -1.032  0.00  0.00    +0.000 OA
ATOM     10  N   UNL     1       4.084   3.648   0.990  0.00  0.00    +0.000 N 
ATOM     11  H   UNL     1       3.657   3.561   1.903  0.00  0.00    +0.000 HD
BRANCH   8  16
ATOM     12  C   UNL     1       4.562   0.014  -0.003  0.00  0.00    +0.000 C 
ATOM     13  C   UNL     1       5.114  -1.069   0.921  0.00  0.00    +0.000 C 
ATOM     14  C   UNL     1       5.664  -0.342   2.147  0.00  0.00    +0.000 C 
ATOM     15  C   UNL     1       5.411   1.144   1.922  0.00  0.00    +0.000 C 
ATOM     16  C   UNL     1       4.252   1.200   0.934  0.00  0.00    +0.000 C 
BRANCH  12  18
ATOM     17  N   UNL     1       2.231  -0.812  -1.276  0.00  0.00    +0.000 NA
ATOM     18  C   UNL     1       3.288  -0.438  -0.699  0.00  0.00    +0.000 C 
ENDBRANCH  12  18
ENDBRANCH   8  16
ENDBRANCH   7  10
ENDBRANCH   1   7
BRANCH   4  19
ATOM     19  C   UNL     1       3.529   9.187   4.348  0.00  0.00    +0.000 C 
BRANCH  19  20
ATOM     20  N   UNL     1       3.469  10.514   3.790  0.00  0.00    +0.000 N 
ATOM     21  C   UNL     1       3.288  11.634   4.565  0.00  0.00    +0.000 C 
ATOM     22  O   UNL     1       3.166  11.590   5.792  0.00  0.00    +0.000 OA
ATOM     23  H   UNL     1       3.174  10.577   2.820  0.00  0.00    +0.000 HD
BRANCH  21  24
ATOM     24  C   UNL     1       3.290  12.909   3.834  0.00  0.00    +0.000 A 
ATOM     25  C   UNL     1       3.718  14.078   4.443  0.00  0.00    +0.000 A 
ATOM     26  S   UNL     1       3.683  15.440   3.410  0.00  0.00    +0.000 S 
ATOM     27  C   UNL     1       3.054  14.518   2.123  0.00  0.00    +0.000 A 
ATOM     28  N   UNL     1       2.758  15.087   0.924  0.00  0.00    +0.000 NA
ATOM     29  C   UNL     1       2.265  14.272   0.052  0.00  0.00    +0.000 A 
ATOM     30  N   UNL     1       2.053  12.934   0.265  0.00  0.00    +0.000 N 
ATOM     31  C   UNL     1       2.387  12.310   1.437  0.00  0.00    +0.000 A 
ATOM     32  O   UNL     1       2.266  11.088   1.570  0.00  0.00    +0.000 OA
ATOM     33  C   UNL     1       2.906  13.187   2.467  0.00  0.00    +0.000 A 
ATOM     34  H   UNL     1       1.691  12.342  -0.469  0.00  0.00    +0.000 HD
ENDBRANCH  21  24
ENDBRANCH  19  20
ENDBRANCH   4  19
TORSDOF 7
