REMARK  Name = 
REMARK  6 active torsions:
REMARK  status: ('A' for Active; 'I' for Inactive)
REMARK    1  A    between atoms: C_2  and  C_25
REMARK    2  A    between atoms: N_3  and  C_4
REMARK    3  A    between atoms: C_4  and  C_5
REMARK    4  A    between atoms: C_8  and  C_9
REMARK    5  A    between atoms: C_9  and  N_10
REMARK    6  A    between atoms: C_11  and  C_13
REMARK                            x       y       z     vdW  Elec       q    Type
REMARK                         _______ _______ _______ _____ _____    ______ ____
ROOT
ATOM      1  C   UNL     1       3.263  -3.014   2.035  0.00  0.00    +0.000 A 
ATOM      2  C   UNL     1       4.292  -2.536   2.858  0.00  0.00    +0.000 A 
ATOM      3  C   UNL     1       5.129  -3.424   3.551  0.00  0.00    +0.000 A 
ATOM      4  C   UNL     1       4.961  -4.812   3.427  0.00  0.00    +0.000 A 
ATOM      5  C   UNL     1       3.930  -5.284   2.604  0.00  0.00    +0.000 A 
ATOM      6  C   UNL     1       3.098  -4.398   1.909  0.00  0.00    +0.000 A 
ENDROOT
BRANCH   1   7
ATOM      7  C   UNL     1       2.334  -2.063   1.324  0.00  0.00    +0.000 C 
BRANCH   7  10
ATOM      8  O   UNL     1       1.006  -0.302  -0.385  0.00  0.00    +0.000 OA
ATOM      9  C   UNL     1       2.089  -0.762  -0.737  0.00  0.00    +0.000 C 
ATOM     10  N   UNL     1       2.816  -1.653   0.028  0.00  0.00    +0.000 N 
ATOM     11  H   UNL     1       3.680  -2.034  -0.347  0.00  0.00    +0.000 HD
BRANCH   9  12
ATOM     12  C   UNL     1       2.689  -0.363  -2.042  0.00  0.00    +0.000 A 
ATOM     13  C   UNL     1       2.043   0.545  -2.866  0.00  0.00    +0.000 A 
ATOM     14  C   UNL     1       2.655   0.897  -4.063  0.00  0.00    +0.000 A 
ATOM     15  C   UNL     1       3.871   0.314  -4.366  0.00  0.00    +0.000 A 
ATOM     16  N   UNL     1       4.480  -0.569  -3.546  0.00  0.00    +0.000 NA
ATOM     17  N   UNL     1       3.884  -0.914  -2.365  0.00  0.00    +0.000 NA
ENDBRANCH   9  12
ENDBRANCH   7  10
ENDBRANCH   1   7
BRANCH   4  18
ATOM     18  C   UNL     1       5.866  -5.794   4.134  0.00  0.00    +0.000 C 
BRANCH  18  19
ATOM     19  N   UNL     1       5.372  -6.203   5.427  0.00  0.00    +0.000 N 
ATOM     20  C   UNL     1       6.084  -7.074   6.223  0.00  0.00    +0.000 C 
ATOM     21  O   UNL     1       7.157  -7.557   5.876  0.00  0.00    +0.000 OA
ATOM     22  H   UNL     1       4.427  -5.980   5.726  0.00  0.00    +0.000 HD
BRANCH  20  23
ATOM     23  C   UNL     1       5.447  -7.367   7.527  0.00  0.00    +0.000 A 
ATOM     24  N   UNL     1       4.281  -6.766   7.882  0.00  0.00    +0.000 NA
ATOM     25  N   UNL     1       4.032  -7.229   9.126  0.00  0.00    +0.000 N 
ATOM     26  C   UNL     1       4.972  -8.103   9.576  0.00  0.00    +0.000 A 
ATOM     27  N   UNL     1       4.964  -8.710  10.788  0.00  0.00    +0.000 NA
ATOM     28  C   UNL     1       5.995  -9.478  10.967  0.00  0.00    +0.000 A 
ATOM     29  N   UNL     1       7.001  -9.680  10.042  0.00  0.00    +0.000 N 
ATOM     30  C   UNL     1       7.012  -9.105   8.780  0.00  0.00    +0.000 A 
ATOM     31  O   UNL     1       7.886  -9.375   7.970  0.00  0.00    +0.000 OA
ATOM     32  C   UNL     1       5.896  -8.223   8.565  0.00  0.00    +0.000 A 
ATOM     33  H   UNL     1       3.205  -6.913   9.618  0.00  0.00    +0.000 HD
ATOM     34  H   UNL     1       7.768 -10.307  10.240  0.00  0.00    +0.000 HD
ENDBRANCH  20  23
ENDBRANCH  18  19
ENDBRANCH   4  18
TORSDOF 6
