REMARK  Name = 
REMARK  5 active torsions:
REMARK  status: ('A' for Active; 'I' for Inactive)
REMARK    1  A    between atoms: C_2  and  C_18
REMARK    2  A    between atoms: N_3  and  C_4
REMARK    3  A    between atoms: C_4  and  C_5
REMARK    4  A    between atoms: C_8  and  C_9
REMARK    5  A    between atoms: C_9  and  C_10
REMARK                            x       y       z     vdW  Elec       q    Type
REMARK                         _______ _______ _______ _____ _____    ______ ____
ROOT
ATOM      1  O   UNL     1       2.273  -2.953  -0.346  0.00  0.00    +0.000 OA
ATOM      2  C   UNL     1       2.869  -1.901  -0.134  0.00  0.00    +0.000 C 
ATOM      3  N   UNL     1       2.806  -0.838  -0.999  0.00  0.00    +0.000 N 
ATOM      4  H   UNL     1       3.453  -0.067  -0.877  0.00  0.00    +0.000 HD
ENDROOT
BRANCH   2   5
ATOM      5  C   UNL     1       3.652  -1.695   1.092  0.00  0.00    +0.000 A 
ATOM      6  C   UNL     1       3.390  -2.468   2.215  0.00  0.00    +0.000 A 
ATOM      7  S   UNL     1       4.376  -2.087   3.553  0.00  0.00    +0.000 S 
ATOM      8  C   UNL     1       5.222  -0.908   2.665  0.00  0.00    +0.000 A 
ATOM      9  N   UNL     1       6.244  -0.208   3.226  0.00  0.00    +0.000 NA
ATOM     10  C   UNL     1       6.828   0.619   2.424  0.00  0.00    +0.000 A 
ATOM     11  N   UNL     1       6.472   0.820   1.115  0.00  0.00    +0.000 N 
ATOM     12  C   UNL     1       5.397   0.195   0.531  0.00  0.00    +0.000 A 
ATOM     13  O   UNL     1       5.019   0.502  -0.596  0.00  0.00    +0.000 OA
ATOM     14  C   UNL     1       4.738  -0.784   1.374  0.00  0.00    +0.000 A 
ATOM     15  H   UNL     1       6.951   1.505   0.549  0.00  0.00    +0.000 HD
ENDBRANCH   2   5
BRANCH   3  16
ATOM     16  C   UNL     1       2.141  -0.916  -2.275  0.00  0.00    +0.000 C 
BRANCH  16  17
ATOM     17  C   UNL     1       3.105  -1.261  -3.370  0.00  0.00    +0.000 A 
ATOM     18  C   UNL     1       3.815  -0.279  -4.064  0.00  0.00    +0.000 A 
ATOM     19  C   UNL     1       4.717  -0.651  -5.059  0.00  0.00    +0.000 A 
ATOM     20  C   UNL     1       4.890  -2.004  -5.338  0.00  0.00    +0.000 A 
ATOM     21  N   UNL     1       4.221  -2.975  -4.667  0.00  0.00    +0.000 NA
ATOM     22  C   UNL     1       3.360  -2.586  -3.699  0.00  0.00    +0.000 A 
BRANCH  20  23
ATOM     23  C   UNL     1       5.883  -2.456  -6.387  0.00  0.00    +0.000 C 
BRANCH  23  24
ATOM     24  C   UNL     1       7.287  -2.634  -5.857  0.00  0.00    +0.000 A 
ATOM     25  C   UNL     1       7.555  -3.566  -4.848  0.00  0.00    +0.000 A 
ATOM     26  C   UNL     1       8.854  -3.692  -4.381  0.00  0.00    +0.000 A 
ATOM     27  N   UNL     1       9.893  -2.970  -4.851  0.00  0.00    +0.000 NA
ATOM     28  C   UNL     1       9.619  -2.089  -5.835  0.00  0.00    +0.000 A 
ATOM     29  C   UNL     1       8.352  -1.887  -6.366  0.00  0.00    +0.000 A 
ENDBRANCH  23  24
ENDBRANCH  20  23
ENDBRANCH  16  17
ENDBRANCH   3  16
TORSDOF 5
