REMARK  Name = 
REMARK  8 active torsions:
REMARK  status: ('A' for Active; 'I' for Inactive)
REMARK    1  A    between atoms: C_1  and  C_2
REMARK    2  A    between atoms: C_2  and  N_3
REMARK    3  A    between atoms: C_2  and  C_25
REMARK    4  A    between atoms: N_3  and  C_4
REMARK    5  A    between atoms: C_4  and  C_5
REMARK    6  A    between atoms: C_8  and  C_9
REMARK    7  A    between atoms: C_9  and  N_10
REMARK    8  A    between atoms: C_11  and  C_13
REMARK                            x       y       z     vdW  Elec       q    Type
REMARK                         _______ _______ _______ _____ _____    ______ ____
ROOT
ATOM      1  C   UNL     1       6.253   2.390   4.312  0.00  0.00    +0.000 C 
ATOM      2  C   UNL     1       5.988   3.172   3.008  0.00  0.00    +0.000 C 
ATOM      3  C   UNL     1       4.504   3.366   2.705  0.00  0.00    +0.000 C 
ATOM      4  C   UNL     1       3.751   4.020   3.873  0.00  0.00    +0.000 C 
ATOM      5  C   UNL     1       3.926   3.148   5.124  0.00  0.00    +0.000 C 
ATOM      6  C   UNL     1       5.396   2.909   5.483  0.00  0.00    +0.000 C 
ENDROOT
BRANCH   1   7
ATOM      7  C   UNL     1       6.064   0.867   4.142  0.00  0.00    +0.000 C 
BRANCH   7   8
ATOM      8  N   UNL     1       6.956   0.360   3.103  0.00  0.00    +0.000 NA
ATOM      9  H   UNL     1       7.922   0.588   3.346  0.00  0.00    +0.000 HD
BRANCH   8  11
ATOM     10  C   UNL     1       5.480  -1.590   2.536  0.00  0.00    +0.000 C 
ATOM     11  C   UNL     1       6.885  -1.100   2.904  0.00  0.00    +0.000 C 
BRANCH  11  12
ATOM     12  C   UNL     1       7.869  -1.529   1.815  0.00  0.00    +0.000 A 
ATOM     13  C   UNL     1       7.805  -0.966   0.539  0.00  0.00    +0.000 A 
ATOM     14  C   UNL     1       8.705  -1.387  -0.434  0.00  0.00    +0.000 A 
ATOM     15  C   UNL     1       9.648  -2.353  -0.112  0.00  0.00    +0.000 A 
ATOM     16  C   UNL     1       9.654  -2.856   1.179  0.00  0.00    +0.000 A 
ATOM     17  N   UNL     1       8.793  -2.469   2.145  0.00  0.00    +0.000 NA
ENDBRANCH  11  12
ENDBRANCH   8  11
ENDBRANCH   7   8
ENDBRANCH   1   7
BRANCH   4  18
ATOM     18  C   UNL     1       4.198   5.468   4.146  0.00  0.00    +0.000 C 
BRANCH  18  19
ATOM     19  N   UNL     1       4.034   6.337   3.002  0.00  0.00    +0.000 N 
ATOM     20  C   UNL     1       2.927   7.114   2.789  0.00  0.00    +0.000 C 
ATOM     21  O   UNL     1       1.938   7.044   3.512  0.00  0.00    +0.000 OA
ATOM     22  H   UNL     1       4.789   6.331   2.321  0.00  0.00    +0.000 HD
BRANCH  20  23
ATOM     23  C   UNL     1       2.998   8.079   1.677  0.00  0.00    +0.000 A 
ATOM     24  C   UNL     1       1.908   8.902   1.422  0.00  0.00    +0.000 A 
ATOM     25  S   UNL     1       2.184  10.048   0.190  0.00  0.00    +0.000 S 
ATOM     26  C   UNL     1       3.771   9.487  -0.049  0.00  0.00    +0.000 A 
ATOM     27  N   UNL     1       4.597  10.096  -0.944  0.00  0.00    +0.000 NA
ATOM     28  C   UNL     1       5.783   9.590  -1.006  0.00  0.00    +0.000 A 
ATOM     29  N   UNL     1       6.210   8.513  -0.276  0.00  0.00    +0.000 N 
ATOM     30  C   UNL     1       5.388   7.822   0.581  0.00  0.00    +0.000 A 
ATOM     31  O   UNL     1       5.767   6.785   1.118  0.00  0.00    +0.000 OA
ATOM     32  C   UNL     1       4.070   8.404   0.759  0.00  0.00    +0.000 A 
ATOM     33  H   UNL     1       7.136   8.133  -0.408  0.00  0.00    +0.000 HD
ENDBRANCH  20  23
ENDBRANCH  18  19
ENDBRANCH   4  18
TORSDOF 7
