REMARK  Name = 
REMARK  5 active torsions:
REMARK  status: ('A' for Active; 'I' for Inactive)
REMARK    1  A    between atoms: C_1  and  S_2
REMARK    2  A    between atoms: S_2  and  C_3
REMARK    3  A    between atoms: C_7  and  C_8
REMARK    4  A    between atoms: N_14  and  C_15
REMARK    5  A    between atoms: C_15  and  C_16
REMARK                            x       y       z     vdW  Elec       q    Type
REMARK                         _______ _______ _______ _____ _____    ______ ____
ROOT
ATOM      1  C   UNL     1       3.213   1.692   0.526  0.00  0.00    +0.000 A 
ATOM      2  N   UNL     1       2.534   2.742   0.114  0.00  0.00    +0.000 NA
ATOM      3  C   UNL     1       3.249   3.824   0.559  0.00  0.00    +0.000 A 
ATOM      4  C   UNL     1       3.016   5.199   0.422  0.00  0.00    +0.000 A 
ATOM      5  C   UNL     1       3.956   6.067   0.995  0.00  0.00    +0.000 A 
ATOM      6  C   UNL     1       5.065   5.519   1.647  0.00  0.00    +0.000 A 
ATOM      7  N   UNL     1       5.333   4.193   1.802  0.00  0.00    +0.000 NA
ATOM      8  C   UNL     1       4.385   3.414   1.246  0.00  0.00    +0.000 A 
ATOM      9  N   UNL     1       4.332   2.043   1.241  0.00  0.00    +0.000 N 
ENDROOT
BRANCH   5  10
ATOM     10  C   UNL     1       3.842   7.546   0.954  0.00  0.00    +0.000 C 
ATOM     11  N   UNL     1       2.754   8.107   0.348  0.00  0.00    +0.000 N 
ATOM     12  O   UNL     1       4.701   8.259   1.456  0.00  0.00    +0.000 OA
ATOM     13  H   UNL     1       1.986   7.603  -0.068  0.00  0.00    +0.000 HD
ATOM     14  H   UNL     1       2.702   9.117   0.357  0.00  0.00    +0.000 HD
ENDBRANCH   5  10
BRANCH   1  16
ATOM     15  C   UNL     1       1.277   0.262  -0.769  0.00  0.00    +0.000 C 
ATOM     16  S   UNL     1       2.787   0.042   0.200  0.00  0.00    +0.000 S 
ENDBRANCH   1  16
BRANCH   9  17
ATOM     17  C   UNL     1       5.356   1.182   1.803  0.00  0.00    +0.000 C 
BRANCH  17  18
ATOM     18  C   UNL     1       5.072   0.769   3.221  0.00  0.00    +0.000 A 
ATOM     19  C   UNL     1       4.824  -0.567   3.558  0.00  0.00    +0.000 A 
ATOM     20  C   UNL     1       4.673  -0.929   4.894  0.00  0.00    +0.000 A 
ATOM     21  C   UNL     1       4.763   0.061   5.857  0.00  0.00    +0.000 A 
ATOM     22  N   UNL     1       4.974   1.362   5.573  0.00  0.00    +0.000 NA
ATOM     23  C   UNL     1       5.123   1.687   4.268  0.00  0.00    +0.000 A 
ENDBRANCH  17  18
ENDBRANCH   9  17
TORSDOF 4
