REMARK  Name = 
REMARK  8 active torsions:
REMARK  status: ('A' for Active; 'I' for Inactive)
REMARK    1  A    between atoms: C_1  and  C_2
REMARK    2  A    between atoms: C_2  and  N_3
REMARK    3  A    between atoms: C_2  and  C_25
REMARK    4  A    between atoms: N_3  and  C_4
REMARK    5  A    between atoms: C_4  and  C_5
REMARK    6  A    between atoms: C_8  and  C_9
REMARK    7  A    between atoms: C_9  and  N_10
REMARK    8  A    between atoms: C_11  and  C_13
REMARK                            x       y       z     vdW  Elec       q    Type
REMARK                         _______ _______ _______ _____ _____    ______ ____
ROOT
ATOM      1  C   UNL     1      -1.101   1.253   0.287  0.00  0.00    +0.000 A 
ATOM      2  N   UNL     1      -1.708   0.181  -0.262  0.00  0.00    +0.000 NA
ATOM      3  C   UNL     1      -3.051   0.218  -0.331  0.00  0.00    +0.000 A 
ATOM      4  C   UNL     1      -3.815   1.270   0.124  0.00  0.00    +0.000 A 
ATOM      5  C   UNL     1      -3.101   2.292   0.712  0.00  0.00    +0.000 A 
ATOM      6  N   UNL     1      -1.754   2.317   0.799  0.00  0.00    +0.000 NA
ENDROOT
BRANCH   1   7
ATOM      7  C   UNL     1       0.421   1.256   0.345  0.00  0.00    +0.000 C 
BRANCH   7   8
ATOM      8  N   UNL     1       1.071   1.276  -0.981  0.00  0.00    +0.000 NA
ATOM      9  H   UNL     1       0.713   2.077  -1.501  0.00  0.00    +0.000 HD
BRANCH   8  11
ATOM     10  C   UNL     1       3.166   0.218  -0.113  0.00  0.00    +0.000 C 
ATOM     11  C   UNL     1       2.535   1.371  -0.909  0.00  0.00    +0.000 C 
BRANCH  11  12
ATOM     12  C   UNL     1       3.182   1.368  -2.292  0.00  0.00    +0.000 A 
ATOM     13  C   UNL     1       4.428   1.994  -2.470  0.00  0.00    +0.000 A 
ATOM     14  C   UNL     1       5.135   1.855  -3.667  0.00  0.00    +0.000 A 
ATOM     15  C   UNL     1       4.599   1.104  -4.709  0.00  0.00    +0.000 A 
ATOM     16  C   UNL     1       3.348   0.508  -4.564  0.00  0.00    +0.000 A 
ATOM     17  C   UNL     1       2.645   0.636  -3.364  0.00  0.00    +0.000 A 
ENDBRANCH  11  12
ENDBRANCH   8  11
ENDBRANCH   7   8
ENDBRANCH   1   7
BRANCH   4  18
ATOM     18  C   UNL     1      -5.301   1.280   0.002  0.00  0.00    +0.000 C 
BRANCH  18  19
ATOM     19  N   UNL     1      -5.933   0.608   1.105  0.00  0.00    +0.000 N 
ATOM     20  C   UNL     1      -7.300   0.562   1.221  0.00  0.00    +0.000 C 
ATOM     21  O   UNL     1      -8.032   1.095   0.392  0.00  0.00    +0.000 OA
ATOM     22  H   UNL     1      -5.369  -0.041   1.647  0.00  0.00    +0.000 HD
BRANCH  20  23
ATOM     23  C   UNL     1      -7.839  -0.083   2.426  0.00  0.00    +0.000 A 
ATOM     24  C   UNL     1      -9.209  -0.096   2.655  0.00  0.00    +0.000 A 
ATOM     25  S   UNL     1      -9.631  -0.645   4.215  0.00  0.00    +0.000 S 
ATOM     26  C   UNL     1      -8.001  -0.925   4.614  0.00  0.00    +0.000 A 
ATOM     27  N   UNL     1      -7.634  -1.313   5.867  0.00  0.00    +0.000 NA
ATOM     28  C   UNL     1      -6.366  -1.509   6.011  0.00  0.00    +0.000 A 
ATOM     29  N   UNL     1      -5.436  -1.399   5.013  0.00  0.00    +0.000 N 
ATOM     30  C   UNL     1      -5.770  -1.068   3.721  0.00  0.00    +0.000 A 
ATOM     31  O   UNL     1      -4.947  -1.103   2.814  0.00  0.00    +0.000 OA
ATOM     32  C   UNL     1      -7.164  -0.711   3.536  0.00  0.00    +0.000 A 
ATOM     33  H   UNL     1      -4.470  -1.644   5.172  0.00  0.00    +0.000 HD
ENDBRANCH  20  23
ENDBRANCH  18  19
ENDBRANCH   4  18
TORSDOF 7
