REMARK  Name = 
REMARK  4 active torsions:
REMARK  status: ('A' for Active; 'I' for Inactive)
REMARK    1  A    between atoms: N_1  and  C_2
REMARK    2  A    between atoms: C_2  and  C_3
REMARK    3  A    between atoms: N_7  and  C_8
REMARK    4  A    between atoms: C_8  and  C_9
REMARK                            x       y       z     vdW  Elec       q    Type
REMARK                         _______ _______ _______ _____ _____    ______ ____
ROOT
ATOM      1  C   UNL     1       2.975   0.386   1.350  0.00  0.00    +0.000 A 
ATOM      2  C   UNL     1       2.961   1.747   1.651  0.00  0.00    +0.000 A 
ATOM      3  C   UNL     1       3.331   2.176   2.924  0.00  0.00    +0.000 A 
ATOM      4  C   UNL     1       3.671   1.237   3.895  0.00  0.00    +0.000 A 
ATOM      5  N   UNL     1       3.929   1.711   5.186  0.00  0.00    +0.000 N 
ATOM      6  N   UNL     1       3.702  -0.082   3.622  0.00  0.00    +0.000 NA
ATOM      7  C   UNL     1       3.367  -0.474   2.368  0.00  0.00    +0.000 A 
ATOM      8  H   UNL     1       4.741   2.319   5.173  0.00  0.00    +0.000 HD
ENDROOT
BRANCH   1   9
ATOM      9  C   UNL     1       2.527  -0.129   0.013  0.00  0.00    +0.000 C 
BRANCH   9  10
ATOM     10  N   UNL     1       3.274   0.474  -1.084  0.00  0.00    +0.000 NA
ATOM     11  H   UNL     1       2.989   0.042  -1.961  0.00  0.00    +0.000 HD
ATOM     12  H   UNL     1       4.264   0.264  -0.969  0.00  0.00    +0.000 HD
ENDBRANCH   9  10
ENDBRANCH   1   9
BRANCH   5  13
ATOM     13  C   UNL     1       3.992   0.703   6.227  0.00  0.00    +0.000 C 
BRANCH  13  14
ATOM     14  C   UNL     1       3.917   1.406   7.563  0.00  0.00    +0.000 A 
ATOM     15  C   UNL     1       2.681   1.777   8.098  0.00  0.00    +0.000 A 
ATOM     16  C   UNL     1       2.648   2.443   9.312  0.00  0.00    +0.000 A 
ATOM     17  N   UNL     1       3.755   2.770  10.017  0.00  0.00    +0.000 NA
ATOM     18  C   UNL     1       4.940   2.419   9.473  0.00  0.00    +0.000 A 
ATOM     19  C   UNL     1       5.074   1.748   8.267  0.00  0.00    +0.000 A 
ENDBRANCH  13  14
ENDBRANCH   5  13
TORSDOF 4
