REMARK  Name = 
REMARK  8 active torsions:
REMARK  status: ('A' for Active; 'I' for Inactive)
REMARK    1  A    between atoms: C_1  and  C_2
REMARK    2  A    between atoms: C_2  and  C_3
REMARK    3  A    between atoms: C_2  and  C_18
REMARK    4  A    between atoms: C_3  and  N_4
REMARK    5  A    between atoms: C_9  and  O_10
REMARK    6  A    between atoms: O_10  and  C_11
REMARK    7  A    between atoms: C_21  and  S_22
REMARK    8  A    between atoms: S_22  and  N_23
REMARK                            x       y       z     vdW  Elec       q    Type
REMARK                         _______ _______ _______ _____ _____    ______ ____
ROOT
ATOM      1  C   UNL     1       3.121   1.412   0.406  0.00  0.00    +0.000 C 
ENDROOT
BRANCH   1   2
ATOM      2  N   UNL     1       2.859   2.437  -0.590  0.00  0.00    +0.000 N 
ATOM      3  C   UNL     1       3.321   3.704  -0.272  0.00  0.00    +0.000 A 
ATOM      4  N   UNL     1       2.585   4.727  -0.725  0.00  0.00    +0.000 NA
ATOM      5  C   UNL     1       3.048   5.968  -0.484  0.00  0.00    +0.000 A 
ATOM      6  C   UNL     1       4.213   6.218   0.189  0.00  0.00    +0.000 A 
ATOM      7  C   UNL     1       4.871   5.101   0.633  0.00  0.00    +0.000 A 
ATOM      8  N   UNL     1       4.451   3.844   0.427  0.00  0.00    +0.000 NA
ATOM      9  H   UNL     1       1.877   2.539  -0.847  0.00  0.00    +0.000 HD
BRANCH   7  10
ATOM     10  O   UNL     1       6.068   5.292   1.294  0.00  0.00    +0.000 OA
BRANCH  10  11
ATOM     11  C   UNL     1       6.434   4.271   2.249  0.00  0.00    +0.000 C 
ATOM     12  C   UNL     1       7.838   4.467   2.865  0.00  0.00    +0.000 C 
ATOM     13  C   UNL     1       8.014   2.940   2.825  0.00  0.00    +0.000 C 
ATOM     14  F   UNL     1       9.239   2.498   2.464  0.00  0.00    +0.000 F 
ATOM     15  F   UNL     1       7.690   2.295   3.970  0.00  0.00    +0.000 F 
ATOM     16  C   UNL     1       6.938   2.906   1.724  0.00  0.00    +0.000 C 
ENDBRANCH  10  11
ENDBRANCH   7  10
ENDBRANCH   1   2
BRANCH   1  18
ATOM     17  C   UNL     1       3.224  -0.426  -1.352  0.00  0.00    +0.000 C 
ATOM     18  C   UNL     1       2.590   0.032  -0.034  0.00  0.00    +0.000 C 
BRANCH  18  19
ATOM     19  C   UNL     1       1.078  -0.042  -0.138  0.00  0.00    +0.000 A 
ATOM     20  C   UNL     1       0.407  -1.214   0.206  0.00  0.00    +0.000 A 
ATOM     21  C   UNL     1      -0.958  -1.301  -0.027  0.00  0.00    +0.000 A 
ATOM     22  C   UNL     1      -1.567  -0.199  -0.590  0.00  0.00    +0.000 A 
ATOM     23  N   UNL     1      -0.923   0.946  -0.905  0.00  0.00    +0.000 NA
ATOM     24  N   UNL     1       0.416   1.015  -0.677  0.00  0.00    +0.000 NA
BRANCH  22  25
ATOM     25  S   UNL     1      -3.283  -0.217  -1.022  0.00  0.00    +0.000 S 
ATOM     26  O   UNL     1      -3.452  -1.186  -2.081  0.00  0.00    +0.000 OA
ATOM     27  O   UNL     1      -4.038  -0.267   0.210  0.00  0.00    +0.000 OA
BRANCH  25  28
ATOM     28  N   UNL     1      -3.566   1.302  -1.705  0.00  0.00    +0.000 NA
ATOM     29  H   UNL     1      -3.043   1.425  -2.571  0.00  0.00    +0.000 HD
ATOM     30  H   UNL     1      -3.416   2.050  -1.027  0.00  0.00    +0.000 HD
ENDBRANCH  25  28
ENDBRANCH  22  25
ENDBRANCH  18  19
ENDBRANCH   1  18
TORSDOF 7
