REMARK  Name = 
REMARK  5 active torsions:
REMARK  status: ('A' for Active; 'I' for Inactive)
REMARK    1  A    between atoms: C_1  and  C_2
REMARK    2  A    between atoms: C_2  and  C_3
REMARK    3  A    between atoms: C_3  and  N_4
REMARK    4  A    between atoms: C_3  and  C_14
REMARK    5  A    between atoms: C_8  and  C_9
REMARK                            x       y       z     vdW  Elec       q    Type
REMARK                         _______ _______ _______ _____ _____    ______ ____
ROOT
ATOM      1  N   UNL     1       2.513   0.287  -0.056  0.00  0.00    +0.000 N 
ATOM      2  C   UNL     1       1.391   0.143   0.762  0.00  0.00    +0.000 A 
ATOM      3  C   UNL     1       1.207   1.033   1.833  0.00  0.00    +0.000 A 
ATOM      4  N   UNL     1       0.195   0.962   2.740  0.00  0.00    +0.000 NA
ATOM      5  C   UNL     1      -0.682  -0.054   2.522  0.00  0.00    +0.000 A 
ATOM      6  C   UNL     1      -0.535  -0.933   1.462  0.00  0.00    +0.000 A 
ATOM      7  N   UNL     1       0.504  -0.858   0.580  0.00  0.00    +0.000 NA
ATOM      8  H   UNL     1       2.547   1.193  -0.507  0.00  0.00    +0.000 HD
ENDROOT
BRANCH   5   9
ATOM      9  C   UNL     1      -1.780  -0.238   3.512  0.00  0.00    +0.000 C 
ATOM     10  N   UNL     1      -1.755   0.587   4.603  0.00  0.00    +0.000 N 
ATOM     11  O   UNL     1      -2.654  -1.085   3.364  0.00  0.00    +0.000 OA
ATOM     12  H   UNL     1      -0.997   1.251   4.720  0.00  0.00    +0.000 HD
ATOM     13  H   UNL     1      -2.451   0.475   5.326  0.00  0.00    +0.000 HD
ENDBRANCH   5   9
BRANCH   1  14
ATOM     14  C   UNL     1       2.941  -0.828  -0.897  0.00  0.00    +0.000 C 
BRANCH  14  15
ATOM     15  C   UNL     1       4.458  -1.009  -0.745  0.00  0.00    +0.000 A 
ATOM     16  C   UNL     1       4.969  -2.234  -0.291  0.00  0.00    +0.000 A 
ATOM     17  C   UNL     1       6.334  -2.513  -0.387  0.00  0.00    +0.000 A 
ATOM     18  C   UNL     1       7.207  -1.567  -0.922  0.00  0.00    +0.000 A 
ATOM     19  C   UNL     1       6.727  -0.318  -1.306  0.00  0.00    +0.000 A 
ATOM     20  C   UNL     1       5.365  -0.032  -1.198  0.00  0.00    +0.000 A 
ENDBRANCH  14  15
BRANCH  14  22
ATOM     21  C   UNL     1       1.222  -0.529  -2.817  0.00  0.00    +0.000 C 
ATOM     22  C   UNL     1       2.677  -0.614  -2.404  0.00  0.00    +0.000 C 
ENDBRANCH  14  22
ENDBRANCH   1  14
TORSDOF 4
