REMARK  Name = 
REMARK  4 active torsions:
REMARK  status: ('A' for Active; 'I' for Inactive)
REMARK    1  A    between atoms: C_2  and  C_5
REMARK    2  A    between atoms: C_9  and  C_10
REMARK    3  A    between atoms: C_10  and  N_11
REMARK    4  A    between atoms: C_16  and  C_17
REMARK                            x       y       z     vdW  Elec       q    Type
REMARK                         _______ _______ _______ _____ _____    ______ ____
ROOT
ATOM      1  N   UNL     1       6.153  -1.746   2.890  0.00  0.00    +0.000 N 
ATOM      2  C   UNL     1       7.226  -1.775   3.768  0.00  0.00    +0.000 A 
ATOM      3  N   UNL     1       7.349  -0.691   4.542  0.00  0.00    +0.000 NA
ATOM      4  C   UNL     1       8.381  -0.666   5.398  0.00  0.00    +0.000 A 
ATOM      5  C   UNL     1       9.283  -1.692   5.524  0.00  0.00    +0.000 A 
ATOM      6  C   UNL     1       9.084  -2.784   4.703  0.00  0.00    +0.000 A 
ATOM      7  N   UNL     1       8.060  -2.824   3.815  0.00  0.00    +0.000 NA
ATOM      8  H   UNL     1       5.501  -1.082   3.299  0.00  0.00    +0.000 HD
ENDROOT
BRANCH   6   9
ATOM      9  C   UNL     1       9.974  -3.960   4.720  0.00  0.00    +0.000 A 
ATOM     10  C   UNL     1      10.703  -4.359   5.853  0.00  0.00    +0.000 A 
ATOM     11  C   UNL     1      11.561  -5.459   5.800  0.00  0.00    +0.000 A 
ATOM     12  C   UNL     1      11.668  -6.151   4.608  0.00  0.00    +0.000 A 
ATOM     13  N   UNL     1      10.981  -5.826   3.496  0.00  0.00    +0.000 NA
ATOM     14  C   UNL     1      10.154  -4.750   3.582  0.00  0.00    +0.000 A 
ENDBRANCH   6   9
BRANCH   1  15
ATOM     15  C   UNL     1       5.563  -3.043   2.608  0.00  0.00    +0.000 C 
BRANCH  15  20
ATOM     16  C   UNL     1       2.400  -2.398   0.565  0.00  0.00    +0.000 A 
ATOM     17  C   UNL     1       1.454  -2.460   1.593  0.00  0.00    +0.000 A 
ATOM     18  C   UNL     1       1.893  -2.710   2.880  0.00  0.00    +0.000 A 
ATOM     19  N   UNL     1       3.187  -2.904   3.204  0.00  0.00    +0.000 NA
ATOM     20  C   UNL     1       4.108  -2.864   2.205  0.00  0.00    +0.000 A 
ATOM     21  C   UNL     1       3.752  -2.600   0.884  0.00  0.00    +0.000 A 
BRANCH  16  23
ATOM     22  F   UNL     1       0.638  -1.955  -1.003  0.00  0.00    +0.000 F 
ATOM     23  C   UNL     1       1.984  -2.115  -0.854  0.00  0.00    +0.000 C 
ATOM     24  F   UNL     1       2.336  -3.114  -1.709  0.00  0.00    +0.000 F 
ATOM     25  F   UNL     1       2.550  -0.980  -1.348  0.00  0.00    +0.000 F 
ENDBRANCH  16  23
ENDBRANCH  15  20
ENDBRANCH   1  15
TORSDOF 4
