REMARK  Name = 
REMARK  6 active torsions:
REMARK  status: ('A' for Active; 'I' for Inactive)
REMARK    1  A    between atoms: N_1  and  C_2
REMARK    2  A    between atoms: C_2  and  C_3
REMARK    3  A    between atoms: C_3  and  O_4
REMARK    4  A    between atoms: O_4  and  C_5
REMARK    5  A    between atoms: C_8  and  C_9
REMARK    6  A    between atoms: C_9  and  C_10
REMARK                            x       y       z     vdW  Elec       q    Type
REMARK                         _______ _______ _______ _____ _____    ______ ____
ROOT
ATOM      1  C   UNL     1       5.091   1.952   1.852  0.00  0.00    +0.000 A 
ATOM      2  C   UNL     1       4.610   2.171   3.141  0.00  0.00    +0.000 A 
ATOM      3  C   UNL     1       5.362   2.925   4.045  0.00  0.00    +0.000 A 
ATOM      4  C   UNL     1       6.597   3.441   3.647  0.00  0.00    +0.000 A 
ATOM      5  N   UNL     1       7.079   3.249   2.391  0.00  0.00    +0.000 NA
ATOM      6  C   UNL     1       6.318   2.526   1.538  0.00  0.00    +0.000 A 
ENDROOT
BRANCH   1   7
ATOM      7  O   UNL     1       4.476   1.224   0.871  0.00  0.00    +0.000 OA
BRANCH   7   8
ATOM      8  C   UNL     1       3.246   0.594   1.242  0.00  0.00    +0.000 C 
BRANCH   8   9
ATOM      9  C   UNL     1       2.695  -0.206   0.056  0.00  0.00    +0.000 C 
BRANCH   9  10
ATOM     10  N   UNL     1       1.422  -0.847   0.389  0.00  0.00    +0.000 NA
ATOM     11  H   UNL     1       1.083  -1.366  -0.421  0.00  0.00    +0.000 HD
ATOM     12  H   UNL     1       0.717  -0.134   0.580  0.00  0.00    +0.000 HD
ENDBRANCH   9  10
ENDBRANCH   8   9
ENDBRANCH   7   8
ENDBRANCH   1   7
BRANCH   4  13
ATOM     13  C   UNL     1       7.485   4.158   4.639  0.00  0.00    +0.000 C 
BRANCH  13  14
ATOM     14  C   UNL     1       7.168   5.612   4.550  0.00  0.00    +0.000 A 
ATOM     15  C   UNL     1       7.791   6.559   3.747  0.00  0.00    +0.000 A 
ATOM     16  N   UNL     1       7.199   7.779   3.969  0.00  0.00    +0.000 N 
ATOM     17  C   UNL     1       6.206   7.643   4.898  0.00  0.00    +0.000 A 
ATOM     18  N   UNL     1       5.395   8.629   5.335  0.00  0.00    +0.000 NA
ATOM     19  C   UNL     1       4.512   8.155   6.246  0.00  0.00    +0.000 A 
ATOM     20  C   UNL     1       4.477   6.837   6.686  0.00  0.00    +0.000 A 
ATOM     21  N   UNL     1       5.306   5.862   6.241  0.00  0.00    +0.000 NA
ATOM     22  C   UNL     1       6.182   6.310   5.300  0.00  0.00    +0.000 A 
ATOM     23  H   UNL     1       7.428   8.650   3.512  0.00  0.00    +0.000 HD
ENDBRANCH  13  14
ENDBRANCH   4  13
TORSDOF 6
