MODEL 1
REMARK VINA RESULT:    -5.926      0.000      0.000
REMARK INTER + INTRA:          -6.496
REMARK INTER:                  -6.445
REMARK INTRA:                  -0.050
REMARK UNBOUND:                -0.050
REMARK  Name = 
REMARK  2 active torsions:
REMARK  status: ('A' for Active; 'I' for Inactive)
REMARK    1  A    between atoms: C_2  and  C_4
REMARK    2  A    between atoms: C_7  and  N_8
REMARK                            x       y       z     vdW  Elec       q    Type
REMARK                         _______ _______ _______ _____ _____    ______ ____
ROOT
ATOM      4  C   UNL     1      46.232   2.062   7.990  0.00  0.00    +0.000 A 
ATOM      5  C   UNL     1      46.392   3.392   7.626  0.00  0.00    +0.000 A 
ATOM      6  C   UNL     1      45.585   4.348   8.242  0.00  0.00    +0.000 A 
ATOM      7  C   UNL     1      44.675   3.968   9.226  0.00  0.00    +0.000 A 
ATOM      9  C   UNL     1      44.555   2.596   9.473  0.00  0.00    +0.000 A 
ATOM     10  N   UNL     1      45.317   1.631   8.902  0.00  0.00    +0.000 NA
ENDROOT
BRANCH   4   2
ATOM      1  N   UNL     1      46.778  -0.282   7.658  0.00  0.00    +0.000 N 
ATOM      2  C   UNL     1      47.082   1.013   7.343  0.00  0.00    +0.000 C 
ATOM      3  O   UNL     1      47.988   1.287   6.563  0.00  0.00    +0.000 OA
ATOM     11  H   UNL     1      47.270  -1.028   7.190  0.00  0.00    +0.000 HD
ATOM     12  H   UNL     1      45.953  -0.479   8.213  0.00  0.00    +0.000 HD
ENDBRANCH   4   2
BRANCH   7   8
ATOM      8  N   UNL     1      43.767   4.894   9.749  0.00  0.00    +0.000 N 
ATOM     13  H   UNL     1      43.025   4.481  10.307  0.00  0.00    +0.000 HD
ATOM     14  H   UNL     1      43.408   5.561   9.072  0.00  0.00    +0.000 HD
ENDBRANCH   7   8
TORSDOF 2
ENDMDL
MODEL 2
REMARK VINA RESULT:    -5.850      2.420      4.300
REMARK INTER + INTRA:          -6.414
REMARK INTER:                  -6.364
REMARK INTRA:                  -0.050
REMARK UNBOUND:                -0.050
REMARK  Name = 
REMARK  2 active torsions:
REMARK  status: ('A' for Active; 'I' for Inactive)
REMARK    1  A    between atoms: C_2  and  C_4
REMARK    2  A    between atoms: C_7  and  N_8
REMARK                            x       y       z     vdW  Elec       q    Type
REMARK                         _______ _______ _______ _____ _____    ______ ____
ROOT
ATOM      4  C   UNL     1      45.393   3.045   8.595  0.00  0.00    +0.000 A 
ATOM      5  C   UNL     1      45.808   1.724   8.509  0.00  0.00    +0.000 A 
ATOM      6  C   UNL     1      46.850   1.412   7.636  0.00  0.00    +0.000 A 
ATOM      7  C   UNL     1      47.477   2.420   6.906  0.00  0.00    +0.000 A 
ATOM      9  C   UNL     1      46.941   3.706   7.025  0.00  0.00    +0.000 A 
ATOM     10  N   UNL     1      45.932   4.058   7.860  0.00  0.00    +0.000 NA
ENDROOT
BRANCH   4   2
ATOM      1  N   UNL     1      43.788   4.680   9.402  0.00  0.00    +0.000 N 
ATOM      2  C   UNL     1      44.274   3.408   9.521  0.00  0.00    +0.000 C 
ATOM      3  O   UNL     1      43.804   2.615  10.330  0.00  0.00    +0.000 OA
ATOM     11  H   UNL     1      42.983   4.950   9.948  0.00  0.00    +0.000 HD
ATOM     12  H   UNL     1      44.119   5.271   8.648  0.00  0.00    +0.000 HD
ENDBRANCH   4   2
BRANCH   7   8
ATOM      8  N   UNL     1      48.425   2.103   5.929  0.00  0.00    +0.000 N 
ATOM     13  H   UNL     1      49.057   2.865   5.698  0.00  0.00    +0.000 HD
ATOM     14  H   UNL     1      48.043   1.660   5.099  0.00  0.00    +0.000 HD
ENDBRANCH   7   8
TORSDOF 2
ENDMDL
MODEL 3
REMARK VINA RESULT:    -5.830      1.541      1.948
REMARK INTER + INTRA:          -6.391
REMARK INTER:                  -6.343
REMARK INTRA:                  -0.048
REMARK UNBOUND:                -0.050
REMARK  Name = 
REMARK  2 active torsions:
REMARK  status: ('A' for Active; 'I' for Inactive)
REMARK    1  A    between atoms: C_2  and  C_4
REMARK    2  A    between atoms: C_7  and  N_8
REMARK                            x       y       z     vdW  Elec       q    Type
REMARK                         _______ _______ _______ _____ _____    ______ ____
ROOT
ATOM      4  C   UNL     1      46.455   2.552   7.712  0.00  0.00    +0.000 A 
ATOM      5  C   UNL     1      45.622   1.874   8.590  0.00  0.00    +0.000 A 
ATOM      6  C   UNL     1      44.711   2.613   9.343  0.00  0.00    +0.000 A 
ATOM      7  C   UNL     1      44.621   3.995   9.176  0.00  0.00    +0.000 A 
ATOM      9  C   UNL     1      45.547   4.582   8.307  0.00  0.00    +0.000 A 
ATOM     10  N   UNL     1      46.449   3.905   7.554  0.00  0.00    +0.000 NA
ENDROOT
BRANCH   4   2
ATOM      1  N   UNL     1      48.517   2.496   6.429  0.00  0.00    +0.000 N 
ATOM      2  C   UNL     1      47.445   1.785   6.893  0.00  0.00    +0.000 C 
ATOM      3  O   UNL     1      47.322   0.587   6.660  0.00  0.00    +0.000 OA
ATOM     11  H   UNL     1      49.252   2.009   5.939  0.00  0.00    +0.000 HD
ATOM     12  H   UNL     1      48.650   3.453   6.735  0.00  0.00    +0.000 HD
ENDBRANCH   4   2
BRANCH   7   8
ATOM      8  N   UNL     1      43.812   4.760  10.021  0.00  0.00    +0.000 N 
ATOM     13  H   UNL     1      44.326   5.378  10.643  0.00  0.00    +0.000 HD
ATOM     14  H   UNL     1      43.098   4.231  10.514  0.00  0.00    +0.000 HD
ENDBRANCH   7   8
TORSDOF 2
ENDMDL
MODEL 4
REMARK VINA RESULT:    -5.752      2.261      4.060
REMARK INTER + INTRA:          -6.307
REMARK INTER:                  -6.258
REMARK INTRA:                  -0.049
REMARK UNBOUND:                -0.050
REMARK  Name = 
REMARK  2 active torsions:
REMARK  status: ('A' for Active; 'I' for Inactive)
REMARK    1  A    between atoms: C_2  and  C_4
REMARK    2  A    between atoms: C_7  and  N_8
REMARK                            x       y       z     vdW  Elec       q    Type
REMARK                         _______ _______ _______ _____ _____    ______ ____
ROOT
ATOM      4  C   UNL     1      45.275   3.043   8.790  0.00  0.00    +0.000 A 
ATOM      5  C   UNL     1      45.853   4.047   8.026  0.00  0.00    +0.000 A 
ATOM      6  C   UNL     1      46.858   3.698   7.125  0.00  0.00    +0.000 A 
ATOM      7  C   UNL     1      47.234   2.363   6.977  0.00  0.00    +0.000 A 
ATOM      9  C   UNL     1      46.627   1.443   7.838  0.00  0.00    +0.000 A 
ATOM     10  N   UNL     1      45.646   1.734   8.727  0.00  0.00    +0.000 NA
ENDROOT
BRANCH   4   2
ATOM      1  N   UNL     1      43.792   4.696   9.776  0.00  0.00    +0.000 N 
ATOM      2  C   UNL     1      44.196   3.389   9.768  0.00  0.00    +0.000 C 
ATOM      3  O   UNL     1      43.686   2.557  10.510  0.00  0.00    +0.000 OA
ATOM     11  H   UNL     1      43.015   4.964  10.361  0.00  0.00    +0.000 HD
ATOM     12  H   UNL     1      44.150   5.332   9.073  0.00  0.00    +0.000 HD
ENDBRANCH   4   2
BRANCH   7   8
ATOM      8  N   UNL     1      48.331   2.020   6.182  0.00  0.00    +0.000 N 
ATOM     13  H   UNL     1      48.188   1.193   5.608  0.00  0.00    +0.000 HD
ATOM     14  H   UNL     1      49.218   1.990   6.677  0.00  0.00    +0.000 HD
ENDBRANCH   7   8
TORSDOF 2
ENDMDL
MODEL 5
REMARK VINA RESULT:    -5.171      2.929      4.161
REMARK INTER + INTRA:          -5.675
REMARK INTER:                  -5.642
REMARK INTRA:                  -0.033
REMARK UNBOUND:                -0.050
REMARK  Name = 
REMARK  2 active torsions:
REMARK  status: ('A' for Active; 'I' for Inactive)
REMARK    1  A    between atoms: C_2  and  C_4
REMARK    2  A    between atoms: C_7  and  N_8
REMARK                            x       y       z     vdW  Elec       q    Type
REMARK                         _______ _______ _______ _____ _____    ______ ____
ROOT
ATOM      4  C   UNL     1      44.878   3.154   9.975  0.00  0.00    +0.000 A 
ATOM      5  C   UNL     1      45.238   2.059   9.203  0.00  0.00    +0.000 A 
ATOM      6  C   UNL     1      45.917   2.287   8.007  0.00  0.00    +0.000 A 
ATOM      7  C   UNL     1      46.256   3.586   7.630  0.00  0.00    +0.000 A 
ATOM      9  C   UNL     1      45.794   4.618   8.453  0.00  0.00    +0.000 A 
ATOM     10  N   UNL     1      45.132   4.446   9.625  0.00  0.00    +0.000 NA
ENDROOT
BRANCH   4   2
ATOM      1  N   UNL     1      44.921   2.821  12.381  0.00  0.00    +0.000 N 
ATOM      2  C   UNL     1      44.144   2.940  11.263  0.00  0.00    +0.000 C 
ATOM      3  O   UNL     1      42.920   2.889  11.324  0.00  0.00    +0.000 OA
ATOM     11  H   UNL     1      44.473   2.753  13.283  0.00  0.00    +0.000 HD
ATOM     12  H   UNL     1      45.919   2.982  12.315  0.00  0.00    +0.000 HD
ENDBRANCH   4   2
BRANCH   7   8
ATOM      8  N   UNL     1      46.812   3.837   6.372  0.00  0.00    +0.000 N 
ATOM     13  H   UNL     1      47.730   4.273   6.402  0.00  0.00    +0.000 HD
ATOM     14  H   UNL     1      46.188   4.305   5.722  0.00  0.00    +0.000 HD
ENDBRANCH   7   8
TORSDOF 2
ENDMDL
MODEL 6
REMARK VINA RESULT:    -5.114      2.864      4.308
REMARK INTER + INTRA:          -5.613
REMARK INTER:                  -5.564
REMARK INTRA:                  -0.048
REMARK UNBOUND:                -0.050
REMARK  Name = 
REMARK  2 active torsions:
REMARK  status: ('A' for Active; 'I' for Inactive)
REMARK    1  A    between atoms: C_2  and  C_4
REMARK    2  A    between atoms: C_7  and  N_8
REMARK                            x       y       z     vdW  Elec       q    Type
REMARK                         _______ _______ _______ _____ _____    ______ ____
ROOT
ATOM      4  C   UNL     1      44.270   3.368  10.123  0.00  0.00    +0.000 A 
ATOM      5  C   UNL     1      44.774   4.632   9.852  0.00  0.00    +0.000 A 
ATOM      6  C   UNL     1      45.665   4.776   8.789  0.00  0.00    +0.000 A 
ATOM      7  C   UNL     1      45.999   3.675   8.001  0.00  0.00    +0.000 A 
ATOM      9  C   UNL     1      45.479   2.439   8.399  0.00  0.00    +0.000 A 
ATOM     10  N   UNL     1      44.610   2.250   9.422  0.00  0.00    +0.000 NA
ENDROOT
BRANCH   4   2
ATOM      1  N   UNL     1      42.814   4.329  11.814  0.00  0.00    +0.000 N 
ATOM      2  C   UNL     1      43.315   3.183  11.261  0.00  0.00    +0.000 C 
ATOM      3  O   UNL     1      42.981   2.076  11.669  0.00  0.00    +0.000 OA
ATOM     11  H   UNL     1      42.108   4.258  12.532  0.00  0.00    +0.000 HD
ATOM     12  H   UNL     1      43.019   5.222  11.381  0.00  0.00    +0.000 HD
ENDBRANCH   4   2
BRANCH   7   8
ATOM      8  N   UNL     1      46.994   3.779   7.024  0.00  0.00    +0.000 N 
ATOM     13  H   UNL     1      47.360   2.886   6.707  0.00  0.00    +0.000 HD
ATOM     14  H   UNL     1      47.734   4.438   7.244  0.00  0.00    +0.000 HD
ENDBRANCH   7   8
TORSDOF 2
ENDMDL
MODEL 7
REMARK VINA RESULT:    -4.949      4.593      5.651
REMARK INTER + INTRA:          -5.433
REMARK INTER:                  -5.390
REMARK INTRA:                  -0.043
REMARK UNBOUND:                -0.050
REMARK  Name = 
REMARK  2 active torsions:
REMARK  status: ('A' for Active; 'I' for Inactive)
REMARK    1  A    between atoms: C_2  and  C_4
REMARK    2  A    between atoms: C_7  and  N_8
REMARK                            x       y       z     vdW  Elec       q    Type
REMARK                         _______ _______ _______ _____ _____    ______ ____
ROOT
ATOM      4  C   UNL     1      46.152   4.330  13.226  0.00  0.00    +0.000 A 
ATOM      5  C   UNL     1      46.184   5.544  12.556  0.00  0.00    +0.000 A 
ATOM      6  C   UNL     1      45.386   5.697  11.422  0.00  0.00    +0.000 A 
ATOM      7  C   UNL     1      44.549   4.661  11.010  0.00  0.00    +0.000 A 
ATOM      9  C   UNL     1      44.639   3.462  11.725  0.00  0.00    +0.000 A 
ATOM     10  N   UNL     1      45.398   3.267  12.832  0.00  0.00    +0.000 NA
ENDROOT
BRANCH   4   2
ATOM      1  N   UNL     1      47.123   5.221  15.267  0.00  0.00    +0.000 N 
ATOM      2  C   UNL     1      47.001   4.137  14.444  0.00  0.00    +0.000 C 
ATOM      3  O   UNL     1      47.547   3.070  14.705  0.00  0.00    +0.000 OA
ATOM     11  H   UNL     1      47.620   5.120  16.139  0.00  0.00    +0.000 HD
ATOM     12  H   UNL     1      46.568   6.050  15.085  0.00  0.00    +0.000 HD
ENDBRANCH   4   2
BRANCH   7   8
ATOM      8  N   UNL     1      43.852   4.751   9.802  0.00  0.00    +0.000 N 
ATOM     13  H   UNL     1      44.378   4.432   8.993  0.00  0.00    +0.000 HD
ATOM     14  H   UNL     1      43.407   5.649   9.638  0.00  0.00    +0.000 HD
ENDBRANCH   7   8
TORSDOF 2
ENDMDL
MODEL 8
REMARK VINA RESULT:    -4.738      2.415      3.110
REMARK INTER + INTRA:          -5.204
REMARK INTER:                  -5.158
REMARK INTRA:                  -0.046
REMARK UNBOUND:                -0.050
REMARK  Name = 
REMARK  2 active torsions:
REMARK  status: ('A' for Active; 'I' for Inactive)
REMARK    1  A    between atoms: C_2  and  C_4
REMARK    2  A    between atoms: C_7  and  N_8
REMARK                            x       y       z     vdW  Elec       q    Type
REMARK                         _______ _______ _______ _____ _____    ______ ____
ROOT
ATOM      4  C   UNL     1      44.622   3.415   9.836  0.00  0.00    +0.000 A 
ATOM      5  C   UNL     1      44.905   4.766   9.972  0.00  0.00    +0.000 A 
ATOM      6  C   UNL     1      44.305   5.466  11.019  0.00  0.00    +0.000 A 
ATOM      7  C   UNL     1      43.478   4.801  11.923  0.00  0.00    +0.000 A 
ATOM      9  C   UNL     1      43.215   3.453  11.657  0.00  0.00    +0.000 A 
ATOM     10  N   UNL     1      43.775   2.731  10.655  0.00  0.00    +0.000 NA
ENDROOT
BRANCH   4   2
ATOM      1  N   UNL     1      45.663   3.371   7.641  0.00  0.00    +0.000 N 
ATOM      2  C   UNL     1      45.248   2.639   8.719  0.00  0.00    +0.000 C 
ATOM      3  O   UNL     1      45.400   1.423   8.764  0.00  0.00    +0.000 OA
ATOM     11  H   UNL     1      46.161   2.906   6.896  0.00  0.00    +0.000 HD
ATOM     12  H   UNL     1      45.629   4.383   7.683  0.00  0.00    +0.000 HD
ENDBRANCH   4   2
BRANCH   7   8
ATOM      8  N   UNL     1      42.764   5.516  12.889  0.00  0.00    +0.000 N 
ATOM     13  H   UNL     1      42.602   6.491  12.651  0.00  0.00    +0.000 HD
ATOM     14  H   UNL     1      43.114   5.408  13.837  0.00  0.00    +0.000 HD
ENDBRANCH   7   8
TORSDOF 2
ENDMDL
MODEL 9
REMARK VINA RESULT:    -4.708      4.105      4.928
REMARK INTER + INTRA:          -5.172
REMARK INTER:                  -5.136
REMARK INTRA:                  -0.036
REMARK UNBOUND:                -0.050
REMARK  Name = 
REMARK  2 active torsions:
REMARK  status: ('A' for Active; 'I' for Inactive)
REMARK    1  A    between atoms: C_2  and  C_4
REMARK    2  A    between atoms: C_7  and  N_8
REMARK                            x       y       z     vdW  Elec       q    Type
REMARK                         _______ _______ _______ _____ _____    ______ ____
ROOT
ATOM      4  C   UNL     1      44.937   4.015  11.745  0.00  0.00    +0.000 A 
ATOM      5  C   UNL     1      45.333   5.153  11.057  0.00  0.00    +0.000 A 
ATOM      6  C   UNL     1      46.072   6.117  11.741  0.00  0.00    +0.000 A 
ATOM      7  C   UNL     1      46.434   5.909  13.071  0.00  0.00    +0.000 A 
ATOM      9  C   UNL     1      45.933   4.755  13.683  0.00  0.00    +0.000 A 
ATOM     10  N   UNL     1      45.213   3.790  13.059  0.00  0.00    +0.000 NA
ENDROOT
BRANCH   4   2
ATOM      1  N   UNL     1      44.765   2.338   9.995  0.00  0.00    +0.000 N 
ATOM      2  C   UNL     1      44.139   2.965  11.037  0.00  0.00    +0.000 C 
ATOM      3  O   UNL     1      42.998   2.665  11.372  0.00  0.00    +0.000 OA
ATOM     11  H   UNL     1      44.299   1.570   9.534  0.00  0.00    +0.000 HD
ATOM     12  H   UNL     1      45.744   2.527   9.816  0.00  0.00    +0.000 HD
ENDBRANCH   4   2
BRANCH   7   8
ATOM      8  N   UNL     1      47.053   6.925  13.805  0.00  0.00    +0.000 N 
ATOM     13  H   UNL     1      46.414   7.630  14.161  0.00  0.00    +0.000 HD
ATOM     14  H   UNL     1      47.863   7.338  13.352  0.00  0.00    +0.000 HD
ENDBRANCH   7   8
TORSDOF 2
ENDMDL
