MODEL 1
REMARK VINA RESULT:    -7.340      0.000      0.000
REMARK INTER + INTRA:         -11.984
REMARK INTER:                 -10.772
REMARK INTRA:                  -1.212
REMARK UNBOUND:                -1.212
REMARK  Name = 
REMARK  9 active torsions:
REMARK  status: ('A' for Active; 'I' for Inactive)
REMARK    1  A    between atoms: C_1  and  C_2
REMARK    2  A    between atoms: C_2  and  C_3
REMARK    3  A    between atoms: C_3  and  C_4
REMARK    4  A    between atoms: C_4  and  N_5
REMARK    5  A    between atoms: N_5  and  C_6
REMARK    6  A    between atoms: C_6  and  C_7
REMARK    7  A    between atoms: C_10  and  C_11
REMARK    8  A    between atoms: C_11  and  N_12
REMARK    9  A    between atoms: C_13  and  C_15
REMARK                            x       y       z     vdW  Elec       q    Type
REMARK                         _______ _______ _______ _____ _____    ______ ____
ROOT
ATOM     12  N   UNL     1      47.028   7.218  14.059  0.00  0.00    +0.000 N 
ATOM     13  C   UNL     1      48.281   6.656  14.169  0.00  0.00    +0.000 C 
ATOM     14  O   UNL     1      49.014   6.483  13.220  0.00  0.00    +0.000 OA
ATOM     28  H   UNL     1      46.371   7.037  14.815  0.00  0.00    +0.000 HD
ENDROOT
BRANCH  13  15
ATOM     15  C   UNL     1      48.690   6.309  15.543  0.00  0.00    +0.000 A 
ATOM     16  C   UNL     1      49.607   7.095  16.228  0.00  0.00    +0.000 A 
ATOM     17  S   UNL     1      50.016   6.473  17.767  0.00  0.00    +0.000 S 
ATOM     18  C   UNL     1      48.974   5.140  17.570  0.00  0.00    +0.000 A 
ATOM     19  N   UNL     1      48.868   4.173  18.521  0.00  0.00    +0.000 NA
ATOM     20  C   UNL     1      48.030   3.232  18.234  0.00  0.00    +0.000 A 
ATOM     21  N   UNL     1      47.283   3.175  17.086  0.00  0.00    +0.000 N 
ATOM     22  C   UNL     1      47.358   4.123  16.103  0.00  0.00    +0.000 A 
ATOM     23  O   UNL     1      46.650   4.059  15.103  0.00  0.00    +0.000 OA
ATOM     24  C   UNL     1      48.300   5.192  16.365  0.00  0.00    +0.000 A 
ATOM     29  H   UNL     1      46.613   2.436  16.934  0.00  0.00    +0.000 HD
ENDBRANCH  13  15
BRANCH  12  11
ATOM     11  C   UNL     1      46.466   7.627  12.796  0.00  0.00    +0.000 C 
BRANCH  11  10
ATOM      7  C   UNL     1      44.717   4.297  10.633  0.00  0.00    +0.000 A 
ATOM      8  C   UNL     1      45.568   5.192   9.982  0.00  0.00    +0.000 A 
ATOM      9  C   UNL     1      46.109   6.280  10.662  0.00  0.00    +0.000 A 
ATOM     10  C   UNL     1      45.813   6.503  12.016  0.00  0.00    +0.000 A 
ATOM     25  C   UNL     1      44.921   5.627  12.652  0.00  0.00    +0.000 A 
ATOM     26  C   UNL     1      44.416   4.508  11.982  0.00  0.00    +0.000 A 
BRANCH   7   6
ATOM      6  C   UNL     1      44.081   3.182   9.852  0.00  0.00    +0.000 C 
BRANCH   6   5
ATOM      5  N   UNL     1      44.807   2.958   8.607  0.00  0.00    +0.000 NA
ATOM     27  H   UNL     1      44.145   2.886   7.837  0.00  0.00    +0.000 HD
BRANCH   5   4
ATOM      4  C   UNL     1      45.604   1.747   8.697  0.00  0.00    +0.000 C 
BRANCH   4   3
ATOM      3  C   UNL     1      46.721   1.786   7.663  0.00  0.00    +0.000 C 
BRANCH   3   2
ATOM      1  C   UNL     1      47.008   2.888   5.430  0.00  0.00    +0.000 C 
ATOM      2  C   UNL     1      46.673   3.103   6.894  0.00  0.00    +0.000 C 
ENDBRANCH   3   2
ENDBRANCH   4   3
ENDBRANCH   5   4
ENDBRANCH   6   5
ENDBRANCH   7   6
ENDBRANCH  11  10
ENDBRANCH  12  11
TORSDOF 8
ENDMDL
MODEL 2
REMARK VINA RESULT:    -7.298      1.691      2.546
REMARK INTER + INTRA:         -11.923
REMARK INTER:                 -11.219
REMARK INTRA:                  -0.704
REMARK UNBOUND:                -1.212
REMARK  Name = 
REMARK  9 active torsions:
REMARK  status: ('A' for Active; 'I' for Inactive)
REMARK    1  A    between atoms: C_1  and  C_2
REMARK    2  A    between atoms: C_2  and  C_3
REMARK    3  A    between atoms: C_3  and  C_4
REMARK    4  A    between atoms: C_4  and  N_5
REMARK    5  A    between atoms: N_5  and  C_6
REMARK    6  A    between atoms: C_6  and  C_7
REMARK    7  A    between atoms: C_10  and  C_11
REMARK    8  A    between atoms: C_11  and  N_12
REMARK    9  A    between atoms: C_13  and  C_15
REMARK                            x       y       z     vdW  Elec       q    Type
REMARK                         _______ _______ _______ _____ _____    ______ ____
ROOT
ATOM     12  N   UNL     1      45.423   5.371  13.664  0.00  0.00    +0.000 N 
ATOM     13  C   UNL     1      46.451   4.575  14.119  0.00  0.00    +0.000 C 
ATOM     14  O   UNL     1      46.542   3.396  13.853  0.00  0.00    +0.000 OA
ATOM     28  H   UNL     1      45.244   6.234  14.175  0.00  0.00    +0.000 HD
ENDROOT
BRANCH  13  15
ATOM     15  C   UNL     1      47.468   5.271  14.929  0.00  0.00    +0.000 A 
ATOM     16  C   UNL     1      48.195   6.328  14.397  0.00  0.00    +0.000 A 
ATOM     17  S   UNL     1      49.384   6.937  15.464  0.00  0.00    +0.000 S 
ATOM     18  C   UNL     1      48.958   5.816  16.672  0.00  0.00    +0.000 A 
ATOM     19  N   UNL     1      49.621   5.762  17.859  0.00  0.00    +0.000 NA
ATOM     20  C   UNL     1      49.176   4.867  18.679  0.00  0.00    +0.000 A 
ATOM     21  N   UNL     1      48.125   4.027  18.422  0.00  0.00    +0.000 N 
ATOM     22  C   UNL     1      47.431   4.043  17.243  0.00  0.00    +0.000 A 
ATOM     23  O   UNL     1      46.472   3.300  17.059  0.00  0.00    +0.000 OA
ATOM     24  C   UNL     1      47.901   5.016  16.278  0.00  0.00    +0.000 A 
ATOM     29  H   UNL     1      47.794   3.375  19.117  0.00  0.00    +0.000 HD
ENDBRANCH  13  15
BRANCH  12  11
ATOM     11  C   UNL     1      44.345   4.864  12.852  0.00  0.00    +0.000 C 
BRANCH  11  10
ATOM      7  C   UNL     1      45.348   3.974   8.725  0.00  0.00    +0.000 A 
ATOM      8  C   UNL     1      44.825   2.980   9.554  0.00  0.00    +0.000 A 
ATOM      9  C   UNL     1      44.529   3.250  10.888  0.00  0.00    +0.000 A 
ATOM     10  C   UNL     1      44.749   4.526  11.430  0.00  0.00    +0.000 A 
ATOM     25  C   UNL     1      45.317   5.508  10.605  0.00  0.00    +0.000 A 
ATOM     26  C   UNL     1      45.569   5.250   9.254  0.00  0.00    +0.000 A 
BRANCH   7   6
ATOM      6  C   UNL     1      45.737   3.630   7.315  0.00  0.00    +0.000 C 
BRANCH   6   5
ATOM      5  N   UNL     1      47.098   4.076   7.041  0.00  0.00    +0.000 NA
ATOM     27  H   UNL     1      47.087   4.743   6.272  0.00  0.00    +0.000 HD
BRANCH   5   4
ATOM      4  C   UNL     1      47.944   2.943   6.710  0.00  0.00    +0.000 C 
BRANCH   4   3
ATOM      3  C   UNL     1      47.082   1.710   6.467  0.00  0.00    +0.000 C 
BRANCH   3   2
ATOM      1  C   UNL     1      46.484  -0.555   7.355  0.00  0.00    +0.000 C 
ATOM      2  C   UNL     1      47.208   0.746   7.643  0.00  0.00    +0.000 C 
ENDBRANCH   3   2
ENDBRANCH   4   3
ENDBRANCH   5   4
ENDBRANCH   6   5
ENDBRANCH   7   6
ENDBRANCH  11  10
ENDBRANCH  12  11
TORSDOF 8
ENDMDL
MODEL 3
REMARK VINA RESULT:    -7.091      0.502      1.069
REMARK INTER + INTRA:         -11.620
REMARK INTER:                 -10.382
REMARK INTRA:                  -1.238
REMARK UNBOUND:                -1.212
REMARK  Name = 
REMARK  9 active torsions:
REMARK  status: ('A' for Active; 'I' for Inactive)
REMARK    1  A    between atoms: C_1  and  C_2
REMARK    2  A    between atoms: C_2  and  C_3
REMARK    3  A    between atoms: C_3  and  C_4
REMARK    4  A    between atoms: C_4  and  N_5
REMARK    5  A    between atoms: N_5  and  C_6
REMARK    6  A    between atoms: C_6  and  C_7
REMARK    7  A    between atoms: C_10  and  C_11
REMARK    8  A    between atoms: C_11  and  N_12
REMARK    9  A    between atoms: C_13  and  C_15
REMARK                            x       y       z     vdW  Elec       q    Type
REMARK                         _______ _______ _______ _____ _____    ______ ____
ROOT
ATOM     12  N   UNL     1      47.284   7.298  14.335  0.00  0.00    +0.000 N 
ATOM     13  C   UNL     1      48.556   6.771  14.391  0.00  0.00    +0.000 C 
ATOM     14  O   UNL     1      49.241   6.590  13.408  0.00  0.00    +0.000 OA
ATOM     28  H   UNL     1      46.674   7.122  15.131  0.00  0.00    +0.000 HD
ENDROOT
BRANCH  13  15
ATOM     15  C   UNL     1      49.048   6.474  15.749  0.00  0.00    +0.000 A 
ATOM     16  C   UNL     1      50.026   7.266  16.337  0.00  0.00    +0.000 A 
ATOM     17  S   UNL     1      50.523   6.701  17.872  0.00  0.00    +0.000 S 
ATOM     18  C   UNL     1      49.442   5.388  17.804  0.00  0.00    +0.000 A 
ATOM     19  N   UNL     1      49.378   4.465  18.802  0.00  0.00    +0.000 NA
ATOM     20  C   UNL     1      48.502   3.534  18.614  0.00  0.00    +0.000 A 
ATOM     21  N   UNL     1      47.679   3.446  17.521  0.00  0.00    +0.000 N 
ATOM     22  C   UNL     1      47.709   4.348  16.493  0.00  0.00    +0.000 A 
ATOM     23  O   UNL     1      46.935   4.259  15.546  0.00  0.00    +0.000 OA
ATOM     24  C   UNL     1      48.689   5.404  16.645  0.00  0.00    +0.000 A 
ATOM     29  H   UNL     1      46.984   2.718  17.447  0.00  0.00    +0.000 HD
ENDBRANCH  13  15
BRANCH  12  11
ATOM     11  C   UNL     1      46.644   7.656  13.094  0.00  0.00    +0.000 C 
BRANCH  11  10
ATOM      7  C   UNL     1      44.597   4.451  11.004  0.00  0.00    +0.000 A 
ATOM      8  C   UNL     1      44.392   4.645  12.372  0.00  0.00    +0.000 A 
ATOM      9  C   UNL     1      45.069   5.653  13.055  0.00  0.00    +0.000 A 
ATOM     10  C   UNL     1      45.971   6.496  12.388  0.00  0.00    +0.000 A 
ATOM     25  C   UNL     1      46.206   6.267  11.024  0.00  0.00    +0.000 A 
ATOM     26  C   UNL     1      45.492   5.286  10.329  0.00  0.00    +0.000 A 
BRANCH   7   6
ATOM      6  C   UNL     1      43.918   3.303  10.313  0.00  0.00    +0.000 C 
BRANCH   6   5
ATOM      5  N   UNL     1      44.409   3.172   8.947  0.00  0.00    +0.000 NA
ATOM     27  H   UNL     1      43.649   3.357   8.295  0.00  0.00    +0.000 HD
BRANCH   5   4
ATOM      4  C   UNL     1      44.944   1.839   8.727  0.00  0.00    +0.000 C 
BRANCH   4   3
ATOM      3  C   UNL     1      46.341   1.937   8.127  0.00  0.00    +0.000 C 
BRANCH   3   2
ATOM      1  C   UNL     1      46.817   2.815   5.829  0.00  0.00    +0.000 C 
ATOM      2  C   UNL     1      46.446   3.183   7.253  0.00  0.00    +0.000 C 
ENDBRANCH   3   2
ENDBRANCH   4   3
ENDBRANCH   5   4
ENDBRANCH   6   5
ENDBRANCH   7   6
ENDBRANCH  11  10
ENDBRANCH  12  11
TORSDOF 8
ENDMDL
MODEL 4
REMARK VINA RESULT:    -6.754      1.940      3.464
REMARK INTER + INTRA:         -11.125
REMARK INTER:                 -10.042
REMARK INTRA:                  -1.083
REMARK UNBOUND:                -1.212
REMARK  Name = 
REMARK  9 active torsions:
REMARK  status: ('A' for Active; 'I' for Inactive)
REMARK    1  A    between atoms: C_1  and  C_2
REMARK    2  A    between atoms: C_2  and  C_3
REMARK    3  A    between atoms: C_3  and  C_4
REMARK    4  A    between atoms: C_4  and  N_5
REMARK    5  A    between atoms: N_5  and  C_6
REMARK    6  A    between atoms: C_6  and  C_7
REMARK    7  A    between atoms: C_10  and  C_11
REMARK    8  A    between atoms: C_11  and  N_12
REMARK    9  A    between atoms: C_13  and  C_15
REMARK                            x       y       z     vdW  Elec       q    Type
REMARK                         _______ _______ _______ _____ _____    ______ ____
ROOT
ATOM     12  N   UNL     1      45.720   5.325  13.846  0.00  0.00    +0.000 N 
ATOM     13  C   UNL     1      46.784   4.619  14.362  0.00  0.00    +0.000 C 
ATOM     14  O   UNL     1      46.885   3.414  14.269  0.00  0.00    +0.000 OA
ATOM     28  H   UNL     1      45.548   6.252  14.232  0.00  0.00    +0.000 HD
ENDROOT
BRANCH  13  15
ATOM     15  C   UNL     1      47.823   5.440  15.010  0.00  0.00    +0.000 A 
ATOM     16  C   UNL     1      48.180   5.217  16.333  0.00  0.00    +0.000 A 
ATOM     17  S   UNL     1      49.334   6.332  16.921  0.00  0.00    +0.000 S 
ATOM     18  C   UNL     1      49.400   7.142  15.425  0.00  0.00    +0.000 A 
ATOM     19  N   UNL     1      50.182   8.242  15.244  0.00  0.00    +0.000 NA
ATOM     20  C   UNL     1      50.135   8.739  14.052  0.00  0.00    +0.000 A 
ATOM     21  N   UNL     1      49.384   8.234  13.024  0.00  0.00    +0.000 N 
ATOM     22  C   UNL     1      48.582   7.133  13.160  0.00  0.00    +0.000 A 
ATOM     23  O   UNL     1      47.949   6.686  12.208  0.00  0.00    +0.000 OA
ATOM     24  C   UNL     1      48.582   6.546  14.484  0.00  0.00    +0.000 A 
ATOM     29  H   UNL     1      49.419   8.641  12.101  0.00  0.00    +0.000 HD
ENDBRANCH  13  15
BRANCH  12  11
ATOM     11  C   UNL     1      44.616   4.690  13.171  0.00  0.00    +0.000 C 
BRANCH  11  10
ATOM      7  C   UNL     1      45.191   3.979   8.929  0.00  0.00    +0.000 A 
ATOM      8  C   UNL     1      44.630   2.991   9.740  0.00  0.00    +0.000 A 
ATOM      9  C   UNL     1      44.470   3.200  11.108  0.00  0.00    +0.000 A 
ATOM     10  C   UNL     1      44.868   4.408  11.703  0.00  0.00    +0.000 A 
ATOM     25  C   UNL     1      45.473   5.379  10.891  0.00  0.00    +0.000 A 
ATOM     26  C   UNL     1      45.590   5.186   9.511  0.00  0.00    +0.000 A 
BRANCH   7   6
ATOM      6  C   UNL     1      45.429   3.691   7.474  0.00  0.00    +0.000 C 
BRANCH   6   5
ATOM      5  N   UNL     1      46.647   4.350   7.020  0.00  0.00    +0.000 NA
ATOM     27  H   UNL     1      46.423   4.990   6.259  0.00  0.00    +0.000 HD
BRANCH   5   4
ATOM      4  C   UNL     1      47.619   3.366   6.575  0.00  0.00    +0.000 C 
BRANCH   4   3
ATOM      3  C   UNL     1      46.940   2.014   6.400  0.00  0.00    +0.000 C 
BRANCH   3   2
ATOM      1  C   UNL     1      46.501  -0.055   7.743  0.00  0.00    +0.000 C 
ATOM      2  C   UNL     1      47.524   1.006   7.384  0.00  0.00    +0.000 C 
ENDBRANCH   3   2
ENDBRANCH   4   3
ENDBRANCH   5   4
ENDBRANCH   6   5
ENDBRANCH   7   6
ENDBRANCH  11  10
ENDBRANCH  12  11
TORSDOF 8
ENDMDL
MODEL 5
REMARK VINA RESULT:    -6.614      3.760      8.197
REMARK INTER + INTRA:         -10.919
REMARK INTER:                  -9.663
REMARK INTRA:                  -1.256
REMARK UNBOUND:                -1.212
REMARK  Name = 
REMARK  9 active torsions:
REMARK  status: ('A' for Active; 'I' for Inactive)
REMARK    1  A    between atoms: C_1  and  C_2
REMARK    2  A    between atoms: C_2  and  C_3
REMARK    3  A    between atoms: C_3  and  C_4
REMARK    4  A    between atoms: C_4  and  N_5
REMARK    5  A    between atoms: N_5  and  C_6
REMARK    6  A    between atoms: C_6  and  C_7
REMARK    7  A    between atoms: C_10  and  C_11
REMARK    8  A    between atoms: C_11  and  N_12
REMARK    9  A    between atoms: C_13  and  C_15
REMARK                            x       y       z     vdW  Elec       q    Type
REMARK                         _______ _______ _______ _____ _____    ______ ____
ROOT
ATOM     12  N   UNL     1      47.811   5.976  15.876  0.00  0.00    +0.000 N 
ATOM     13  C   UNL     1      48.232   6.323  14.612  0.00  0.00    +0.000 C 
ATOM     14  O   UNL     1      49.374   6.644  14.359  0.00  0.00    +0.000 OA
ATOM     28  H   UNL     1      46.812   6.034  16.064  0.00  0.00    +0.000 HD
ENDROOT
BRANCH  13  15
ATOM     15  C   UNL     1      47.197   6.240  13.565  0.00  0.00    +0.000 A 
ATOM     16  C   UNL     1      46.758   7.383  12.910  0.00  0.00    +0.000 A 
ATOM     17  S   UNL     1      45.493   7.085  11.799  0.00  0.00    +0.000 S 
ATOM     18  C   UNL     1      45.499   5.419  12.151  0.00  0.00    +0.000 A 
ATOM     19  N   UNL     1      44.618   4.564  11.563  0.00  0.00    +0.000 NA
ATOM     20  C   UNL     1      44.753   3.330  11.921  0.00  0.00    +0.000 A 
ATOM     21  N   UNL     1      45.692   2.872  12.807  0.00  0.00    +0.000 N 
ATOM     22  C   UNL     1      46.595   3.693  13.424  0.00  0.00    +0.000 A 
ATOM     23  O   UNL     1      47.446   3.245  14.187  0.00  0.00    +0.000 OA
ATOM     24  C   UNL     1      46.476   5.094  13.073  0.00  0.00    +0.000 A 
ATOM     29  H   UNL     1      45.777   1.889  13.018  0.00  0.00    +0.000 HD
ENDBRANCH  13  15
BRANCH  12  11
ATOM     11  C   UNL     1      48.688   5.990  17.021  0.00  0.00    +0.000 C 
BRANCH  11  10
ATOM      7  C   UNL     1      50.944   2.310  17.458  0.00  0.00    +0.000 A 
ATOM      8  C   UNL     1      49.584   2.270  17.143  0.00  0.00    +0.000 A 
ATOM      9  C   UNL     1      48.847   3.447  17.031  0.00  0.00    +0.000 A 
ATOM     10  C   UNL     1      49.451   4.698  17.231  0.00  0.00    +0.000 A 
ATOM     25  C   UNL     1      50.807   4.728  17.591  0.00  0.00    +0.000 A 
ATOM     26  C   UNL     1      51.557   3.550  17.657  0.00  0.00    +0.000 A 
BRANCH   7   6
ATOM      6  C   UNL     1      51.692   1.022  17.656  0.00  0.00    +0.000 C 
BRANCH   6   5
ATOM      5  N   UNL     1      52.903   1.254  18.434  0.00  0.00    +0.000 NA
ATOM     27  H   UNL     1      53.100   2.253  18.465  0.00  0.00    +0.000 HD
BRANCH   5   4
ATOM      4  C   UNL     1      54.025   0.541  17.849  0.00  0.00    +0.000 C 
BRANCH   4   3
ATOM      3  C   UNL     1      55.278   1.404  17.920  0.00  0.00    +0.000 C 
BRANCH   3   2
ATOM      1  C   UNL     1      55.313   3.905  17.778  0.00  0.00    +0.000 C 
ATOM      2  C   UNL     1      55.130   2.614  17.003  0.00  0.00    +0.000 C 
ENDBRANCH   3   2
ENDBRANCH   4   3
ENDBRANCH   5   4
ENDBRANCH   6   5
ENDBRANCH   7   6
ENDBRANCH  11  10
ENDBRANCH  12  11
TORSDOF 8
ENDMDL
MODEL 6
REMARK VINA RESULT:    -6.573      2.157      2.782
REMARK INTER + INTRA:         -10.860
REMARK INTER:                 -10.028
REMARK INTRA:                  -0.831
REMARK UNBOUND:                -1.212
REMARK  Name = 
REMARK  9 active torsions:
REMARK  status: ('A' for Active; 'I' for Inactive)
REMARK    1  A    between atoms: C_1  and  C_2
REMARK    2  A    between atoms: C_2  and  C_3
REMARK    3  A    between atoms: C_3  and  C_4
REMARK    4  A    between atoms: C_4  and  N_5
REMARK    5  A    between atoms: N_5  and  C_6
REMARK    6  A    between atoms: C_6  and  C_7
REMARK    7  A    between atoms: C_10  and  C_11
REMARK    8  A    between atoms: C_11  and  N_12
REMARK    9  A    between atoms: C_13  and  C_15
REMARK                            x       y       z     vdW  Elec       q    Type
REMARK                         _______ _______ _______ _____ _____    ______ ____
ROOT
ATOM     12  N   UNL     1      47.837   6.321  15.016  0.00  0.00    +0.000 N 
ATOM     13  C   UNL     1      48.983   6.289  15.781  0.00  0.00    +0.000 C 
ATOM     14  O   UNL     1      50.060   6.665  15.374  0.00  0.00    +0.000 OA
ATOM     28  H   UNL     1      47.073   5.711  15.301  0.00  0.00    +0.000 HD
ENDROOT
BRANCH  13  15
ATOM     15  C   UNL     1      48.799   5.795  17.158  0.00  0.00    +0.000 A 
ATOM     16  C   UNL     1      49.016   4.459  17.467  0.00  0.00    +0.000 A 
ATOM     17  S   UNL     1      48.662   4.073  19.094  0.00  0.00    +0.000 S 
ATOM     18  C   UNL     1      48.218   5.680  19.440  0.00  0.00    +0.000 A 
ATOM     19  N   UNL     1      47.767   6.044  20.671  0.00  0.00    +0.000 NA
ATOM     20  C   UNL     1      47.480   7.300  20.784  0.00  0.00    +0.000 A 
ATOM     21  N   UNL     1      47.609   8.223  19.780  0.00  0.00    +0.000 N 
ATOM     22  C   UNL     1      48.056   7.902  18.527  0.00  0.00    +0.000 A 
ATOM     23  O   UNL     1      48.193   8.761  17.661  0.00  0.00    +0.000 OA
ATOM     24  C   UNL     1      48.374   6.501  18.340  0.00  0.00    +0.000 A 
ATOM     29  H   UNL     1      47.409   9.199  19.938  0.00  0.00    +0.000 HD
ENDBRANCH  13  15
BRANCH  12  11
ATOM     11  C   UNL     1      47.825   6.781  13.650  0.00  0.00    +0.000 C 
BRANCH  11  10
ATOM      7  C   UNL     1      44.786   4.900  11.190  0.00  0.00    +0.000 A 
ATOM      8  C   UNL     1      45.155   4.333  12.411  0.00  0.00    +0.000 A 
ATOM      9  C   UNL     1      46.151   4.915  13.192  0.00  0.00    +0.000 A 
ATOM     10  C   UNL     1      46.806   6.083  12.772  0.00  0.00    +0.000 A 
ATOM     25  C   UNL     1      46.463   6.621  11.522  0.00  0.00    +0.000 A 
ATOM     26  C   UNL     1      45.431   6.064  10.761  0.00  0.00    +0.000 A 
BRANCH   7   6
ATOM      6  C   UNL     1      43.770   4.203  10.331  0.00  0.00    +0.000 C 
BRANCH   6   5
ATOM      5  N   UNL     1      44.106   4.358   8.920  0.00  0.00    +0.000 NA
ATOM     27  H   UNL     1      43.249   4.432   8.374  0.00  0.00    +0.000 HD
BRANCH   5   4
ATOM      4  C   UNL     1      44.896   3.229   8.462  0.00  0.00    +0.000 C 
BRANCH   4   3
ATOM      3  C   UNL     1      46.089   3.728   7.657  0.00  0.00    +0.000 C 
BRANCH   3   2
ATOM      1  C   UNL     1      47.053   2.822   5.529  0.00  0.00    +0.000 C 
ATOM      2  C   UNL     1      46.804   2.551   7.001  0.00  0.00    +0.000 C 
ENDBRANCH   3   2
ENDBRANCH   4   3
ENDBRANCH   5   4
ENDBRANCH   6   5
ENDBRANCH   7   6
ENDBRANCH  11  10
ENDBRANCH  12  11
TORSDOF 8
ENDMDL
MODEL 7
REMARK VINA RESULT:    -6.446      1.322      1.391
REMARK INTER + INTRA:         -10.672
REMARK INTER:                  -9.650
REMARK INTRA:                  -1.022
REMARK UNBOUND:                -1.212
REMARK  Name = 
REMARK  9 active torsions:
REMARK  status: ('A' for Active; 'I' for Inactive)
REMARK    1  A    between atoms: C_1  and  C_2
REMARK    2  A    between atoms: C_2  and  C_3
REMARK    3  A    between atoms: C_3  and  C_4
REMARK    4  A    between atoms: C_4  and  N_5
REMARK    5  A    between atoms: N_5  and  C_6
REMARK    6  A    between atoms: C_6  and  C_7
REMARK    7  A    between atoms: C_10  and  C_11
REMARK    8  A    between atoms: C_11  and  N_12
REMARK    9  A    between atoms: C_13  and  C_15
REMARK                            x       y       z     vdW  Elec       q    Type
REMARK                         _______ _______ _______ _____ _____    ______ ____
ROOT
ATOM     12  N   UNL     1      48.275   6.608  13.879  0.00  0.00    +0.000 N 
ATOM     13  C   UNL     1      48.690   7.349  14.964  0.00  0.00    +0.000 C 
ATOM     14  O   UNL     1      48.283   8.466  15.197  0.00  0.00    +0.000 OA
ATOM     28  H   UNL     1      48.878   5.844  13.582  0.00  0.00    +0.000 HD
ENDROOT
BRANCH  13  15
ATOM     15  C   UNL     1      49.648   6.668  15.855  0.00  0.00    +0.000 A 
ATOM     16  C   UNL     1      50.924   7.179  16.047  0.00  0.00    +0.000 A 
ATOM     17  S   UNL     1      51.906   6.195  17.042  0.00  0.00    +0.000 S 
ATOM     18  C   UNL     1      50.655   5.060  17.254  0.00  0.00    +0.000 A 
ATOM     19  N   UNL     1      50.839   3.925  17.982  0.00  0.00    +0.000 NA
ATOM     20  C   UNL     1      49.795   3.168  18.063  0.00  0.00    +0.000 A 
ATOM     21  N   UNL     1      48.583   3.445  17.488  0.00  0.00    +0.000 N 
ATOM     22  C   UNL     1      48.352   4.571  16.745  0.00  0.00    +0.000 A 
ATOM     23  O   UNL     1      47.244   4.805  16.273  0.00  0.00    +0.000 OA
ATOM     24  C   UNL     1      49.497   5.448  16.606  0.00  0.00    +0.000 A 
ATOM     29  H   UNL     1      47.790   2.835  17.619  0.00  0.00    +0.000 HD
ENDBRANCH  13  15
BRANCH  12  11
ATOM     11  C   UNL     1      47.335   7.109  12.908  0.00  0.00    +0.000 C 
BRANCH  11  10
ATOM      7  C   UNL     1      44.851   3.977  11.219  0.00  0.00    +0.000 A 
ATOM      8  C   UNL     1      45.118   5.137  10.488  0.00  0.00    +0.000 A 
ATOM      9  C   UNL     1      45.889   6.160  11.036  0.00  0.00    +0.000 A 
ATOM     10  C   UNL     1      46.417   6.049  12.332  0.00  0.00    +0.000 A 
ATOM     25  C   UNL     1      46.107   4.901  13.077  0.00  0.00    +0.000 A 
ATOM     26  C   UNL     1      45.373   3.856  12.510  0.00  0.00    +0.000 A 
BRANCH   7   6
ATOM      6  C   UNL     1      43.946   2.931  10.634  0.00  0.00    +0.000 C 
BRANCH   6   5
ATOM      5  N   UNL     1      44.134   2.846   9.191  0.00  0.00    +0.000 NA
ATOM     27  H   UNL     1      43.272   2.524   8.755  0.00  0.00    +0.000 HD
BRANCH   5   4
ATOM      4  C   UNL     1      45.223   1.937   8.876  0.00  0.00    +0.000 C 
BRANCH   4   3
ATOM      3  C   UNL     1      46.157   2.585   7.861  0.00  0.00    +0.000 C 
BRANCH   3   2
ATOM      1  C   UNL     1      47.874   2.095   6.104  0.00  0.00    +0.000 C 
ATOM      2  C   UNL     1      47.116   1.542   7.296  0.00  0.00    +0.000 C 
ENDBRANCH   3   2
ENDBRANCH   4   3
ENDBRANCH   5   4
ENDBRANCH   6   5
ENDBRANCH   7   6
ENDBRANCH  11  10
ENDBRANCH  12  11
TORSDOF 8
ENDMDL
MODEL 8
REMARK VINA RESULT:    -6.286      1.971      3.593
REMARK INTER + INTRA:         -10.438
REMARK INTER:                  -9.469
REMARK INTRA:                  -0.968
REMARK UNBOUND:                -1.212
REMARK  Name = 
REMARK  9 active torsions:
REMARK  status: ('A' for Active; 'I' for Inactive)
REMARK    1  A    between atoms: C_1  and  C_2
REMARK    2  A    between atoms: C_2  and  C_3
REMARK    3  A    between atoms: C_3  and  C_4
REMARK    4  A    between atoms: C_4  and  N_5
REMARK    5  A    between atoms: N_5  and  C_6
REMARK    6  A    between atoms: C_6  and  C_7
REMARK    7  A    between atoms: C_10  and  C_11
REMARK    8  A    between atoms: C_11  and  N_12
REMARK    9  A    between atoms: C_13  and  C_15
REMARK                            x       y       z     vdW  Elec       q    Type
REMARK                         _______ _______ _______ _____ _____    ______ ____
ROOT
ATOM     12  N   UNL     1      47.410   5.648  14.620  0.00  0.00    +0.000 N 
ATOM     13  C   UNL     1      48.343   5.728  15.630  0.00  0.00    +0.000 C 
ATOM     14  O   UNL     1      48.642   4.785  16.331  0.00  0.00    +0.000 OA
ATOM     28  H   UNL     1      46.992   6.522  14.305  0.00  0.00    +0.000 HD
ENDROOT
BRANCH  13  15
ATOM     15  C   UNL     1      48.991   7.044  15.779  0.00  0.00    +0.000 A 
ATOM     16  C   UNL     1      49.129   7.628  17.031  0.00  0.00    +0.000 A 
ATOM     17  S   UNL     1      49.822   9.190  16.977  0.00  0.00    +0.000 S 
ATOM     18  C   UNL     1      49.968   9.131  15.282  0.00  0.00    +0.000 A 
ATOM     19  N   UNL     1      50.462  10.182  14.573  0.00  0.00    +0.000 NA
ATOM     20  C   UNL     1      50.522   9.984  13.297  0.00  0.00    +0.000 A 
ATOM     21  N   UNL     1      50.141   8.828  12.668  0.00  0.00    +0.000 N 
ATOM     22  C   UNL     1      49.637   7.748  13.339  0.00  0.00    +0.000 A 
ATOM     23  O   UNL     1      49.336   6.715  12.747  0.00  0.00    +0.000 OA
ATOM     24  C   UNL     1      49.529   7.923  14.773  0.00  0.00    +0.000 A 
ATOM     29  H   UNL     1      50.249   8.715  11.671  0.00  0.00    +0.000 HD
ENDBRANCH  13  15
BRANCH  12  11
ATOM     11  C   UNL     1      46.683   4.439  14.324  0.00  0.00    +0.000 C 
BRANCH  11  10
ATOM      7  C   UNL     1      44.816   4.392  10.407  0.00  0.00    +0.000 A 
ATOM      8  C   UNL     1      45.438   5.550  10.878  0.00  0.00    +0.000 A 
ATOM      9  C   UNL     1      46.013   5.582  12.147  0.00  0.00    +0.000 A 
ATOM     10  C   UNL     1      45.982   4.452  12.980  0.00  0.00    +0.000 A 
ATOM     25  C   UNL     1      45.316   3.307  12.519  0.00  0.00    +0.000 A 
ATOM     26  C   UNL     1      44.781   3.261  11.228  0.00  0.00    +0.000 A 
BRANCH   7   6
ATOM      6  C   UNL     1      44.131   4.415   9.070  0.00  0.00    +0.000 C 
BRANCH   6   5
ATOM      5  N   UNL     1      44.476   3.225   8.303  0.00  0.00    +0.000 NA
ATOM     27  H   UNL     1      44.373   2.400   8.892  0.00  0.00    +0.000 HD
BRANCH   5   4
ATOM      4  C   UNL     1      45.839   3.319   7.809  0.00  0.00    +0.000 C 
BRANCH   4   3
ATOM      3  C   UNL     1      46.503   1.950   7.864  0.00  0.00    +0.000 C 
BRANCH   3   2
ATOM      1  C   UNL     1      46.985   2.784   5.551  0.00  0.00    +0.000 C 
ATOM      2  C   UNL     1      47.148   1.628   6.520  0.00  0.00    +0.000 C 
ENDBRANCH   3   2
ENDBRANCH   4   3
ENDBRANCH   5   4
ENDBRANCH   6   5
ENDBRANCH   7   6
ENDBRANCH  11  10
ENDBRANCH  12  11
TORSDOF 8
ENDMDL
MODEL 9
REMARK VINA RESULT:    -6.174      2.500      3.142
REMARK INTER + INTRA:         -10.274
REMARK INTER:                  -9.571
REMARK INTRA:                  -0.702
REMARK UNBOUND:                -1.212
REMARK  Name = 
REMARK  9 active torsions:
REMARK  status: ('A' for Active; 'I' for Inactive)
REMARK    1  A    between atoms: C_1  and  C_2
REMARK    2  A    between atoms: C_2  and  C_3
REMARK    3  A    between atoms: C_3  and  C_4
REMARK    4  A    between atoms: C_4  and  N_5
REMARK    5  A    between atoms: N_5  and  C_6
REMARK    6  A    between atoms: C_6  and  C_7
REMARK    7  A    between atoms: C_10  and  C_11
REMARK    8  A    between atoms: C_11  and  N_12
REMARK    9  A    between atoms: C_13  and  C_15
REMARK                            x       y       z     vdW  Elec       q    Type
REMARK                         _______ _______ _______ _____ _____    ______ ____
ROOT
ATOM     12  N   UNL     1      47.514   5.506  15.371  0.00  0.00    +0.000 N 
ATOM     13  C   UNL     1      48.558   5.628  16.260  0.00  0.00    +0.000 C 
ATOM     14  O   UNL     1      49.267   4.698  16.581  0.00  0.00    +0.000 OA
ATOM     28  H   UNL     1      46.793   6.225  15.401  0.00  0.00    +0.000 HD
ENDROOT
BRANCH  13  15
ATOM     15  C   UNL     1      48.784   6.992  16.774  0.00  0.00    +0.000 A 
ATOM     16  C   UNL     1      49.476   7.929  16.017  0.00  0.00    +0.000 A 
ATOM     17  S   UNL     1      49.710   9.416  16.827  0.00  0.00    +0.000 S 
ATOM     18  C   UNL     1      48.887   8.859  18.209  0.00  0.00    +0.000 A 
ATOM     19  N   UNL     1      48.752   9.636  19.319  0.00  0.00    +0.000 NA
ATOM     20  C   UNL     1      48.093   9.080  20.282  0.00  0.00    +0.000 A 
ATOM     21  N   UNL     1      47.551   7.823  20.234  0.00  0.00    +0.000 N 
ATOM     22  C   UNL     1      47.663   7.006  19.142  0.00  0.00    +0.000 A 
ATOM     23  O   UNL     1      47.136   5.898  19.120  0.00  0.00    +0.000 OA
ATOM     24  C   UNL     1      48.411   7.573  18.038  0.00  0.00    +0.000 A 
ATOM     29  H   UNL     1      47.011   7.457  21.003  0.00  0.00    +0.000 HD
ENDBRANCH  13  15
BRANCH  12  11
ATOM     11  C   UNL     1      47.152   4.251  14.761  0.00  0.00    +0.000 C 
BRANCH  11  10
ATOM      7  C   UNL     1      44.989   4.587  11.015  0.00  0.00    +0.000 A 
ATOM      8  C   UNL     1      45.604   5.707  11.577  0.00  0.00    +0.000 A 
ATOM      9  C   UNL     1      46.274   5.614  12.794  0.00  0.00    +0.000 A 
ATOM     10  C   UNL     1      46.348   4.393  13.484  0.00  0.00    +0.000 A 
ATOM     25  C   UNL     1      45.689   3.282  12.936  0.00  0.00    +0.000 A 
ATOM     26  C   UNL     1      45.057   3.366  11.692  0.00  0.00    +0.000 A 
BRANCH   7   6
ATOM      6  C   UNL     1      44.201   4.738   9.745  0.00  0.00    +0.000 C 
BRANCH   6   5
ATOM      5  N   UNL     1      45.099   4.908   8.608  0.00  0.00    +0.000 NA
ATOM     27  H   UNL     1      44.662   5.517   7.919  0.00  0.00    +0.000 HD
BRANCH   5   4
ATOM      4  C   UNL     1      45.410   3.620   8.013  0.00  0.00    +0.000 C 
BRANCH   4   3
ATOM      3  C   UNL     1      46.689   3.726   7.194  0.00  0.00    +0.000 C 
BRANCH   3   2
ATOM      1  C   UNL     1      47.454   1.349   6.993  0.00  0.00    +0.000 C 
ATOM      2  C   UNL     1      46.818   2.520   6.269  0.00  0.00    +0.000 C 
ENDBRANCH   3   2
ENDBRANCH   4   3
ENDBRANCH   5   4
ENDBRANCH   6   5
ENDBRANCH   7   6
ENDBRANCH  11  10
ENDBRANCH  12  11
TORSDOF 8
ENDMDL
