MODEL 1
REMARK VINA RESULT:    -8.395      0.000      0.000
REMARK INTER + INTRA:         -10.953
REMARK INTER:                 -10.603
REMARK INTRA:                  -0.350
REMARK UNBOUND:                -0.350
REMARK  Name = 
REMARK  5 active torsions:
REMARK  status: ('A' for Active; 'I' for Inactive)
REMARK    1  A    between atoms: N_1  and  C_2
REMARK    2  A    between atoms: C_2  and  C_3
REMARK    3  A    between atoms: C_6  and  C_7
REMARK    4  A    between atoms: C_7  and  N_8
REMARK    5  A    between atoms: C_13  and  C_14
REMARK                            x       y       z     vdW  Elec       q    Type
REMARK                         _______ _______ _______ _____ _____    ______ ____
ROOT
ATOM      8  N   UNL     1      43.955   3.799  11.106  0.00  0.00    +0.000 N 
ATOM      9  C   UNL     1      43.409   4.991  10.671  0.00  0.00    +0.000 A 
ATOM     10  C   UNL     1      43.498   5.841  11.735  0.00  0.00    +0.000 A 
ATOM     11  C   UNL     1      44.765   5.517  12.270  0.00  0.00    +0.000 A 
ATOM     12  C   UNL     1      45.813   6.197  12.908  0.00  0.00    +0.000 A 
ATOM     13  C   UNL     1      46.896   5.468  13.431  0.00  0.00    +0.000 A 
ATOM     17  C   UNL     1      46.789   4.073  13.503  0.00  0.00    +0.000 A 
ATOM     18  C   UNL     1      45.760   3.371  12.853  0.00  0.00    +0.000 A 
ATOM     19  C   UNL     1      44.844   4.128  12.121  0.00  0.00    +0.000 A 
ENDROOT
BRANCH  13  14
ATOM     14  C   UNL     1      48.103   6.243  13.797  0.00  0.00    +0.000 C 
ATOM     15  N   UNL     1      48.199   6.741  15.108  0.00  0.00    +0.000 N 
ATOM     16  O   UNL     1      49.042   6.415  13.055  0.00  0.00    +0.000 OA
ATOM     24  H   UNL     1      47.520   6.596  15.825  0.00  0.00    +0.000 HD
ATOM     25  H   UNL     1      49.075   7.168  15.346  0.00  0.00    +0.000 HD
ENDBRANCH  13  14
BRANCH   8   7
ATOM      7  C   UNL     1      44.029   2.632  10.241  0.00  0.00    +0.000 C 
BRANCH   7   6
ATOM      3  C   UNL     1      46.720   2.759   6.870  0.00  0.00    +0.000 A 
ATOM      4  C   UNL     1      46.564   1.557   7.584  0.00  0.00    +0.000 A 
ATOM      5  C   UNL     1      45.739   1.522   8.729  0.00  0.00    +0.000 A 
ATOM      6  C   UNL     1      45.058   2.663   9.162  0.00  0.00    +0.000 A 
ATOM     20  C   UNL     1      45.238   3.869   8.441  0.00  0.00    +0.000 A 
ATOM     21  C   UNL     1      46.059   3.911   7.316  0.00  0.00    +0.000 A 
BRANCH   3   2
ATOM      2  C   UNL     1      47.598   2.830   5.647  0.00  0.00    +0.000 C 
BRANCH   2   1
ATOM      1  N   UNL     1      48.608   1.779   5.633  0.00  0.00    +0.000 NA
ATOM     22  H   UNL     1      49.031   1.715   6.557  0.00  0.00    +0.000 HD
ATOM     23  H   UNL     1      49.355   2.049   4.994  0.00  0.00    +0.000 HD
ENDBRANCH   2   1
ENDBRANCH   3   2
ENDBRANCH   7   6
ENDBRANCH   8   7
TORSDOF 5
ENDMDL
MODEL 2
REMARK VINA RESULT:    -8.119      2.103      6.386
REMARK INTER + INTRA:         -10.605
REMARK INTER:                  -9.882
REMARK INTRA:                  -0.723
REMARK UNBOUND:                -0.350
REMARK  Name = 
REMARK  5 active torsions:
REMARK  status: ('A' for Active; 'I' for Inactive)
REMARK    1  A    between atoms: N_1  and  C_2
REMARK    2  A    between atoms: C_2  and  C_3
REMARK    3  A    between atoms: C_6  and  C_7
REMARK    4  A    between atoms: C_7  and  N_8
REMARK    5  A    between atoms: C_13  and  C_14
REMARK                            x       y       z     vdW  Elec       q    Type
REMARK                         _______ _______ _______ _____ _____    ______ ____
ROOT
ATOM      8  N   UNL     1      44.186   4.226  10.695  0.00  0.00    +0.000 N 
ATOM      9  C   UNL     1      44.003   3.063  11.418  0.00  0.00    +0.000 A 
ATOM     10  C   UNL     1      43.883   2.072  10.487  0.00  0.00    +0.000 A 
ATOM     11  C   UNL     1      44.847   2.448   9.525  0.00  0.00    +0.000 A 
ATOM     12  C   UNL     1      45.732   1.800   8.652  0.00  0.00    +0.000 A 
ATOM     13  C   UNL     1      46.463   2.556   7.717  0.00  0.00    +0.000 A 
ATOM     17  C   UNL     1      46.119   3.900   7.531  0.00  0.00    +0.000 A 
ATOM     18  C   UNL     1      45.250   4.575   8.406  0.00  0.00    +0.000 A 
ATOM     19  C   UNL     1      44.747   3.844   9.484  0.00  0.00    +0.000 A 
ENDROOT
BRANCH  13  14
ATOM     14  C   UNL     1      47.598   1.875   7.054  0.00  0.00    +0.000 C 
ATOM     15  N   UNL     1      48.537   2.665   6.369  0.00  0.00    +0.000 N 
ATOM     16  O   UNL     1      47.801   0.685   7.125  0.00  0.00    +0.000 OA
ATOM     24  H   UNL     1      48.510   3.660   6.309  0.00  0.00    +0.000 HD
ATOM     25  H   UNL     1      49.343   2.177   6.025  0.00  0.00    +0.000 HD
ENDBRANCH  13  14
BRANCH   8   7
ATOM      7  C   UNL     1      44.344   5.515  11.349  0.00  0.00    +0.000 C 
BRANCH   7   6
ATOM      3  C   UNL     1      48.066   6.612  13.237  0.00  0.00    +0.000 A 
ATOM      4  C   UNL     1      47.777   7.096  11.947  0.00  0.00    +0.000 A 
ATOM      5  C   UNL     1      46.594   6.688  11.294  0.00  0.00    +0.000 A 
ATOM      6  C   UNL     1      45.691   5.819  11.912  0.00  0.00    +0.000 A 
ATOM     20  C   UNL     1      46.005   5.329  13.203  0.00  0.00    +0.000 A 
ATOM     21  C   UNL     1      47.176   5.721  13.849  0.00  0.00    +0.000 A 
BRANCH   3   2
ATOM      2  C   UNL     1      49.323   7.025  13.959  0.00  0.00    +0.000 C 
BRANCH   2   1
ATOM      1  N   UNL     1      49.419   6.424  15.284  0.00  0.00    +0.000 NA
ATOM     22  H   UNL     1      49.269   5.420  15.202  0.00  0.00    +0.000 HD
ATOM     23  H   UNL     1      48.660   6.781  15.864  0.00  0.00    +0.000 HD
ENDBRANCH   2   1
ENDBRANCH   3   2
ENDBRANCH   7   6
ENDBRANCH   8   7
TORSDOF 5
ENDMDL
MODEL 3
REMARK VINA RESULT:    -7.840      2.162      6.087
REMARK INTER + INTRA:         -10.253
REMARK INTER:                  -9.649
REMARK INTRA:                  -0.604
REMARK UNBOUND:                -0.350
REMARK  Name = 
REMARK  5 active torsions:
REMARK  status: ('A' for Active; 'I' for Inactive)
REMARK    1  A    between atoms: N_1  and  C_2
REMARK    2  A    between atoms: C_2  and  C_3
REMARK    3  A    between atoms: C_6  and  C_7
REMARK    4  A    between atoms: C_7  and  N_8
REMARK    5  A    between atoms: C_13  and  C_14
REMARK                            x       y       z     vdW  Elec       q    Type
REMARK                         _______ _______ _______ _____ _____    ______ ____
ROOT
ATOM      8  N   UNL     1      43.822   4.096  10.518  0.00  0.00    +0.000 N 
ATOM      9  C   UNL     1      43.739   2.981  11.328  0.00  0.00    +0.000 A 
ATOM     10  C   UNL     1      43.744   1.913  10.477  0.00  0.00    +0.000 A 
ATOM     11  C   UNL     1      44.690   2.312   9.505  0.00  0.00    +0.000 A 
ATOM     12  C   UNL     1      45.659   1.693   8.702  0.00  0.00    +0.000 A 
ATOM     13  C   UNL     1      46.333   2.445   7.724  0.00  0.00    +0.000 A 
ATOM     17  C   UNL     1      45.860   3.729   7.426  0.00  0.00    +0.000 A 
ATOM     18  C   UNL     1      44.905   4.376   8.229  0.00  0.00    +0.000 A 
ATOM     19  C   UNL     1      44.450   3.682   9.352  0.00  0.00    +0.000 A 
ENDROOT
BRANCH  13  14
ATOM     14  C   UNL     1      47.548   1.836   7.138  0.00  0.00    +0.000 C 
ATOM     15  N   UNL     1      48.475   2.681   6.504  0.00  0.00    +0.000 N 
ATOM     16  O   UNL     1      47.823   0.662   7.232  0.00  0.00    +0.000 OA
ATOM     24  H   UNL     1      48.388   3.672   6.433  0.00  0.00    +0.000 HD
ATOM     25  H   UNL     1      49.331   2.245   6.214  0.00  0.00    +0.000 HD
ENDBRANCH  13  14
BRANCH   8   7
ATOM      7  C   UNL     1      43.831   5.441  11.071  0.00  0.00    +0.000 C 
BRANCH   7   6
ATOM      3  C   UNL     1      47.565   6.441  12.991  0.00  0.00    +0.000 A 
ATOM      4  C   UNL     1      46.719   5.485  13.582  0.00  0.00    +0.000 A 
ATOM      5  C   UNL     1      45.465   5.201  12.999  0.00  0.00    +0.000 A 
ATOM      6  C   UNL     1      45.051   5.844  11.830  0.00  0.00    +0.000 A 
ATOM     20  C   UNL     1      45.907   6.815  11.256  0.00  0.00    +0.000 A 
ATOM     21  C   UNL     1      47.142   7.106  11.833  0.00  0.00    +0.000 A 
BRANCH   3   2
ATOM      2  C   UNL     1      48.907   6.770  13.591  0.00  0.00    +0.000 C 
BRANCH   2   1
ATOM      1  N   UNL     1      49.956   6.854  12.582  0.00  0.00    +0.000 NA
ATOM     22  H   UNL     1      50.772   7.306  12.991  0.00  0.00    +0.000 HD
ATOM     23  H   UNL     1      49.640   7.461  11.827  0.00  0.00    +0.000 HD
ENDBRANCH   2   1
ENDBRANCH   3   2
ENDBRANCH   7   6
ENDBRANCH   8   7
TORSDOF 5
ENDMDL
MODEL 4
REMARK VINA RESULT:    -7.722      1.787      2.305
REMARK INTER + INTRA:         -10.104
REMARK INTER:                  -9.648
REMARK INTRA:                  -0.455
REMARK UNBOUND:                -0.350
REMARK  Name = 
REMARK  5 active torsions:
REMARK  status: ('A' for Active; 'I' for Inactive)
REMARK    1  A    between atoms: N_1  and  C_2
REMARK    2  A    between atoms: C_2  and  C_3
REMARK    3  A    between atoms: C_6  and  C_7
REMARK    4  A    between atoms: C_7  and  N_8
REMARK    5  A    between atoms: C_13  and  C_14
REMARK                            x       y       z     vdW  Elec       q    Type
REMARK                         _______ _______ _______ _____ _____    ______ ____
ROOT
ATOM      8  N   UNL     1      44.233   3.862  11.036  0.00  0.00    +0.000 N 
ATOM      9  C   UNL     1      43.443   3.589  12.135  0.00  0.00    +0.000 A 
ATOM     10  C   UNL     1      44.178   3.982  13.217  0.00  0.00    +0.000 A 
ATOM     11  C   UNL     1      44.777   5.175  12.752  0.00  0.00    +0.000 A 
ATOM     12  C   UNL     1      45.154   6.412  13.293  0.00  0.00    +0.000 A 
ATOM     13  C   UNL     1      45.874   7.325  12.503  0.00  0.00    +0.000 A 
ATOM     17  C   UNL     1      46.390   6.885  11.278  0.00  0.00    +0.000 A 
ATOM     18  C   UNL     1      46.010   5.659  10.706  0.00  0.00    +0.000 A 
ATOM     19  C   UNL     1      45.081   4.894  11.415  0.00  0.00    +0.000 A 
ENDROOT
BRANCH  13  14
ATOM     14  C   UNL     1      45.962   8.715  13.007  0.00  0.00    +0.000 C 
ATOM     15  N   UNL     1      46.725   8.953  14.163  0.00  0.00    +0.000 N 
ATOM     16  O   UNL     1      45.471   9.666  12.444  0.00  0.00    +0.000 OA
ATOM     24  H   UNL     1      47.233   8.258  14.665  0.00  0.00    +0.000 HD
ATOM     25  H   UNL     1      46.845   9.918  14.410  0.00  0.00    +0.000 HD
ENDBRANCH  13  14
BRANCH   8   7
ATOM      7  C   UNL     1      43.788   3.566   9.683  0.00  0.00    +0.000 C 
BRANCH   7   6
ATOM      3  C   UNL     1      47.063   2.308   7.170  0.00  0.00    +0.000 A 
ATOM      4  C   UNL     1      46.563   3.618   7.050  0.00  0.00    +0.000 A 
ATOM      5  C   UNL     1      45.448   4.017   7.818  0.00  0.00    +0.000 A 
ATOM      6  C   UNL     1      44.836   3.137   8.713  0.00  0.00    +0.000 A 
ATOM     20  C   UNL     1      45.342   1.817   8.812  0.00  0.00    +0.000 A 
ATOM     21  C   UNL     1      46.436   1.414   8.049  0.00  0.00    +0.000 A 
BRANCH   3   2
ATOM      2  C   UNL     1      48.248   1.849   6.361  0.00  0.00    +0.000 C 
BRANCH   2   1
ATOM      1  N   UNL     1      48.274   2.449   5.033  0.00  0.00    +0.000 NA
ATOM     22  H   UNL     1      49.242   2.599   4.757  0.00  0.00    +0.000 HD
ATOM     23  H   UNL     1      47.843   3.372   5.079  0.00  0.00    +0.000 HD
ENDBRANCH   2   1
ENDBRANCH   3   2
ENDBRANCH   7   6
ENDBRANCH   8   7
TORSDOF 5
ENDMDL
MODEL 5
REMARK VINA RESULT:    -7.354      3.197      6.912
REMARK INTER + INTRA:          -9.638
REMARK INTER:                  -9.046
REMARK INTRA:                  -0.592
REMARK UNBOUND:                -0.350
REMARK  Name = 
REMARK  5 active torsions:
REMARK  status: ('A' for Active; 'I' for Inactive)
REMARK    1  A    between atoms: N_1  and  C_2
REMARK    2  A    between atoms: C_2  and  C_3
REMARK    3  A    between atoms: C_6  and  C_7
REMARK    4  A    between atoms: C_7  and  N_8
REMARK    5  A    between atoms: C_13  and  C_14
REMARK                            x       y       z     vdW  Elec       q    Type
REMARK                         _______ _______ _______ _____ _____    ______ ____
ROOT
ATOM      8  N   UNL     1      44.906   4.437  11.039  0.00  0.00    +0.000 N 
ATOM      9  C   UNL     1      44.413   3.279  11.607  0.00  0.00    +0.000 A 
ATOM     10  C   UNL     1      43.951   2.530  10.562  0.00  0.00    +0.000 A 
ATOM     11  C   UNL     1      44.937   2.757   9.575  0.00  0.00    +0.000 A 
ATOM     12  C   UNL     1      45.539   2.028   8.540  0.00  0.00    +0.000 A 
ATOM     13  C   UNL     1      46.420   2.676   7.656  0.00  0.00    +0.000 A 
ATOM     17  C   UNL     1      46.494   4.073   7.692  0.00  0.00    +0.000 A 
ATOM     18  C   UNL     1      45.915   4.823   8.731  0.00  0.00    +0.000 A 
ATOM     19  C   UNL     1      45.265   4.108   9.739  0.00  0.00    +0.000 A 
ENDROOT
BRANCH  13  14
ATOM     14  C   UNL     1      47.260   1.807   6.800  0.00  0.00    +0.000 C 
ATOM     15  N   UNL     1      48.371   2.383   6.160  0.00  0.00    +0.000 N 
ATOM     16  O   UNL     1      47.085   0.618   6.673  0.00  0.00    +0.000 OA
ATOM     24  H   UNL     1      48.653   3.335   6.252  0.00  0.00    +0.000 HD
ATOM     25  H   UNL     1      48.972   1.741   5.676  0.00  0.00    +0.000 HD
ENDBRANCH  13  14
BRANCH   8   7
ATOM      7  C   UNL     1      45.481   5.499  11.849  0.00  0.00    +0.000 C 
BRANCH   7   6
ATOM      3  C   UNL     1      44.084   9.558  11.401  0.00  0.00    +0.000 A 
ATOM      4  C   UNL     1      43.268   8.495  10.970  0.00  0.00    +0.000 A 
ATOM      5  C   UNL     1      43.744   7.168  11.049  0.00  0.00    +0.000 A 
ATOM      6  C   UNL     1      45.012   6.886  11.564  0.00  0.00    +0.000 A 
ATOM     20  C   UNL     1      45.826   7.968  11.979  0.00  0.00    +0.000 A 
ATOM     21  C   UNL     1      45.365   9.280  11.894  0.00  0.00    +0.000 A 
BRANCH   3   2
ATOM      2  C   UNL     1      43.607  10.985  11.325  0.00  0.00    +0.000 C 
BRANCH   2   1
ATOM      1  N   UNL     1      42.432  11.218  12.157  0.00  0.00    +0.000 NA
ATOM     22  H   UNL     1      42.720  11.701  13.006  0.00  0.00    +0.000 HD
ATOM     23  H   UNL     1      42.054  10.319  12.454  0.00  0.00    +0.000 HD
ENDBRANCH   2   1
ENDBRANCH   3   2
ENDBRANCH   7   6
ENDBRANCH   8   7
TORSDOF 5
ENDMDL
MODEL 6
REMARK VINA RESULT:    -7.146      1.737      2.783
REMARK INTER + INTRA:          -9.377
REMARK INTER:                  -8.767
REMARK INTRA:                  -0.609
REMARK UNBOUND:                -0.350
REMARK  Name = 
REMARK  5 active torsions:
REMARK  status: ('A' for Active; 'I' for Inactive)
REMARK    1  A    between atoms: N_1  and  C_2
REMARK    2  A    between atoms: C_2  and  C_3
REMARK    3  A    between atoms: C_6  and  C_7
REMARK    4  A    between atoms: C_7  and  N_8
REMARK    5  A    between atoms: C_13  and  C_14
REMARK                            x       y       z     vdW  Elec       q    Type
REMARK                         _______ _______ _______ _____ _____    ______ ____
ROOT
ATOM      8  N   UNL     1      45.722   4.933  12.011  0.00  0.00    +0.000 N 
ATOM      9  C   UNL     1      45.393   4.370  13.228  0.00  0.00    +0.000 A 
ATOM     10  C   UNL     1      46.495   4.540  14.017  0.00  0.00    +0.000 A 
ATOM     11  C   UNL     1      46.920   5.839  13.657  0.00  0.00    +0.000 A 
ATOM     12  C   UNL     1      47.519   6.935  14.294  0.00  0.00    +0.000 A 
ATOM     13  C   UNL     1      47.924   8.045  13.531  0.00  0.00    +0.000 A 
ATOM     17  C   UNL     1      47.925   7.930  12.135  0.00  0.00    +0.000 A 
ATOM     18  C   UNL     1      47.312   6.851  11.476  0.00  0.00    +0.000 A 
ATOM     19  C   UNL     1      46.689   5.894  12.278  0.00  0.00    +0.000 A 
ENDROOT
BRANCH  13  14
ATOM     14  C   UNL     1      48.248   9.282  14.278  0.00  0.00    +0.000 C 
ATOM     15  N   UNL     1      47.759   9.411  15.589  0.00  0.00    +0.000 N 
ATOM     16  O   UNL     1      48.962  10.158  13.849  0.00  0.00    +0.000 OA
ATOM     24  H   UNL     1      47.223   8.721  16.069  0.00  0.00    +0.000 HD
ATOM     25  H   UNL     1      48.087  10.213  16.096  0.00  0.00    +0.000 HD
ENDBRANCH  13  14
BRANCH   8   7
ATOM      7  C   UNL     1      44.791   4.936  10.894  0.00  0.00    +0.000 C 
BRANCH   7   6
ATOM      3  C   UNL     1      46.243   2.549   7.605  0.00  0.00    +0.000 A 
ATOM      4  C   UNL     1      46.378   3.948   7.555  0.00  0.00    +0.000 A 
ATOM      5  C   UNL     1      45.845   4.743   8.593  0.00  0.00    +0.000 A 
ATOM      6  C   UNL     1      45.195   4.161   9.685  0.00  0.00    +0.000 A 
ATOM     20  C   UNL     1      45.054   2.752   9.713  0.00  0.00    +0.000 A 
ATOM     21  C   UNL     1      45.570   1.964   8.686  0.00  0.00    +0.000 A 
BRANCH   3   2
ATOM      2  C   UNL     1      46.796   1.674   6.510  0.00  0.00    +0.000 C 
BRANCH   2   1
ATOM      1  N   UNL     1      48.254   1.669   6.493  0.00  0.00    +0.000 NA
ATOM     22  H   UNL     1      48.576   0.828   6.017  0.00  0.00    +0.000 HD
ATOM     23  H   UNL     1      48.596   1.605   7.451  0.00  0.00    +0.000 HD
ENDBRANCH   2   1
ENDBRANCH   3   2
ENDBRANCH   7   6
ENDBRANCH   8   7
TORSDOF 5
ENDMDL
MODEL 7
REMARK VINA RESULT:    -6.876      2.855      6.631
REMARK INTER + INTRA:          -9.035
REMARK INTER:                  -8.628
REMARK INTRA:                  -0.406
REMARK UNBOUND:                -0.350
REMARK  Name = 
REMARK  5 active torsions:
REMARK  status: ('A' for Active; 'I' for Inactive)
REMARK    1  A    between atoms: N_1  and  C_2
REMARK    2  A    between atoms: C_2  and  C_3
REMARK    3  A    between atoms: C_6  and  C_7
REMARK    4  A    between atoms: C_7  and  N_8
REMARK    5  A    between atoms: C_13  and  C_14
REMARK                            x       y       z     vdW  Elec       q    Type
REMARK                         _______ _______ _______ _____ _____    ______ ____
ROOT
ATOM      8  N   UNL     1      44.733   4.466  11.968  0.00  0.00    +0.000 N 
ATOM      9  C   UNL     1      44.117   3.283  12.326  0.00  0.00    +0.000 A 
ATOM     10  C   UNL     1      43.489   2.843  11.196  0.00  0.00    +0.000 A 
ATOM     11  C   UNL     1      44.433   3.155  10.192  0.00  0.00    +0.000 A 
ATOM     12  C   UNL     1      44.860   2.598   8.977  0.00  0.00    +0.000 A 
ATOM     13  C   UNL     1      45.766   3.308   8.169  0.00  0.00    +0.000 A 
ATOM     17  C   UNL     1      46.039   4.644   8.487  0.00  0.00    +0.000 A 
ATOM     18  C   UNL     1      45.639   5.216   9.708  0.00  0.00    +0.000 A 
ATOM     19  C   UNL     1      44.959   4.385  10.600  0.00  0.00    +0.000 A 
ENDROOT
BRANCH  13  14
ATOM     14  C   UNL     1      46.419   2.549   7.078  0.00  0.00    +0.000 C 
ATOM     15  N   UNL     1      46.971   1.293   7.384  0.00  0.00    +0.000 N 
ATOM     16  O   UNL     1      46.446   2.916   5.927  0.00  0.00    +0.000 OA
ATOM     24  H   UNL     1      46.940   0.859   8.281  0.00  0.00    +0.000 HD
ATOM     25  H   UNL     1      47.309   0.767   6.599  0.00  0.00    +0.000 HD
ENDBRANCH  13  14
BRANCH   8   7
ATOM      7  C   UNL     1      45.502   5.246  12.924  0.00  0.00    +0.000 C 
BRANCH   7   6
ATOM      3  C   UNL     1      46.624   9.337  12.131  0.00  0.00    +0.000 A 
ATOM      4  C   UNL     1      45.260   8.999  12.219  0.00  0.00    +0.000 A 
ATOM      5  C   UNL     1      44.882   7.653  12.409  0.00  0.00    +0.000 A 
ATOM      6  C   UNL     1      45.841   6.644  12.528  0.00  0.00    +0.000 A 
ATOM     20  C   UNL     1      47.208   6.998  12.423  0.00  0.00    +0.000 A 
ATOM     21  C   UNL     1      47.587   8.325  12.225  0.00  0.00    +0.000 A 
BRANCH   3   2
ATOM      2  C   UNL     1      47.060  10.764  11.923  0.00  0.00    +0.000 C 
BRANCH   2   1
ATOM      1  N   UNL     1      47.844  11.270  13.044  0.00  0.00    +0.000 NA
ATOM     22  H   UNL     1      47.720  10.647  13.840  0.00  0.00    +0.000 HD
ATOM     23  H   UNL     1      47.469  12.174  13.328  0.00  0.00    +0.000 HD
ENDBRANCH   2   1
ENDBRANCH   3   2
ENDBRANCH   7   6
ENDBRANCH   8   7
TORSDOF 5
ENDMDL
MODEL 8
REMARK VINA RESULT:    -6.867      3.820      7.592
REMARK INTER + INTRA:          -9.023
REMARK INTER:                  -8.473
REMARK INTRA:                  -0.550
REMARK UNBOUND:                -0.350
REMARK  Name = 
REMARK  5 active torsions:
REMARK  status: ('A' for Active; 'I' for Inactive)
REMARK    1  A    between atoms: N_1  and  C_2
REMARK    2  A    between atoms: C_2  and  C_3
REMARK    3  A    between atoms: C_6  and  C_7
REMARK    4  A    between atoms: C_7  and  N_8
REMARK    5  A    between atoms: C_13  and  C_14
REMARK                            x       y       z     vdW  Elec       q    Type
REMARK                         _______ _______ _______ _____ _____    ______ ____
ROOT
ATOM      8  N   UNL     1      47.542   5.251  14.699  0.00  0.00    +0.000 N 
ATOM      9  C   UNL     1      47.904   6.555  14.421  0.00  0.00    +0.000 A 
ATOM     10  C   UNL     1      47.965   6.632  13.059  0.00  0.00    +0.000 A 
ATOM     11  C   UNL     1      46.854   5.851  12.667  0.00  0.00    +0.000 A 
ATOM     12  C   UNL     1      45.906   5.864  11.634  0.00  0.00    +0.000 A 
ATOM     13  C   UNL     1      45.002   4.793  11.509  0.00  0.00    +0.000 A 
ATOM     17  C   UNL     1      45.222   3.642  12.275  0.00  0.00    +0.000 A 
ATOM     18  C   UNL     1      46.152   3.614  13.329  0.00  0.00    +0.000 A 
ATOM     19  C   UNL     1      46.849   4.796  13.586  0.00  0.00    +0.000 A 
ENDROOT
BRANCH  13  14
ATOM     14  C   UNL     1      43.838   5.007  10.620  0.00  0.00    +0.000 C 
ATOM     15  N   UNL     1      43.938   4.586   9.283  0.00  0.00    +0.000 N 
ATOM     16  O   UNL     1      42.783   5.464  10.993  0.00  0.00    +0.000 OA
ATOM     24  H   UNL     1      44.732   4.131   8.886  0.00  0.00    +0.000 HD
ATOM     25  H   UNL     1      43.095   4.653   8.744  0.00  0.00    +0.000 HD
ENDBRANCH  13  14
BRANCH   8   7
ATOM      7  C   UNL     1      47.384   4.778  16.065  0.00  0.00    +0.000 C 
BRANCH   7   6
ATOM      3  C   UNL     1      50.798   2.485  17.374  0.00  0.00    +0.000 A 
ATOM      4  C   UNL     1      49.704   1.822  16.788  0.00  0.00    +0.000 A 
ATOM      5  C   UNL     1      48.555   2.554  16.419  0.00  0.00    +0.000 A 
ATOM      6  C   UNL     1      48.487   3.936  16.613  0.00  0.00    +0.000 A 
ATOM     20  C   UNL     1      49.591   4.586  17.218  0.00  0.00    +0.000 A 
ATOM     21  C   UNL     1      50.724   3.866  17.593  0.00  0.00    +0.000 A 
BRANCH   3   2
ATOM      2  C   UNL     1      52.037   1.731  17.783  0.00  0.00    +0.000 C 
BRANCH   2   1
ATOM      1  N   UNL     1      51.760   0.328  18.065  0.00  0.00    +0.000 NA
ATOM     22  H   UNL     1      51.572  -0.154  17.187  0.00  0.00    +0.000 HD
ATOM     23  H   UNL     1      50.905   0.264  18.616  0.00  0.00    +0.000 HD
ENDBRANCH   2   1
ENDBRANCH   3   2
ENDBRANCH   7   6
ENDBRANCH   8   7
TORSDOF 5
ENDMDL
MODEL 9
REMARK VINA RESULT:    -5.993      3.001      6.539
REMARK INTER + INTRA:          -7.920
REMARK INTER:                  -7.416
REMARK INTRA:                  -0.504
REMARK UNBOUND:                -0.350
REMARK  Name = 
REMARK  5 active torsions:
REMARK  status: ('A' for Active; 'I' for Inactive)
REMARK    1  A    between atoms: N_1  and  C_2
REMARK    2  A    between atoms: C_2  and  C_3
REMARK    3  A    between atoms: C_6  and  C_7
REMARK    4  A    between atoms: C_7  and  N_8
REMARK    5  A    between atoms: C_13  and  C_14
REMARK                            x       y       z     vdW  Elec       q    Type
REMARK                         _______ _______ _______ _____ _____    ______ ____
ROOT
ATOM      8  N   UNL     1      45.744   6.251  13.096  0.00  0.00    +0.000 N 
ATOM      9  C   UNL     1      46.651   5.393  13.686  0.00  0.00    +0.000 A 
ATOM     10  C   UNL     1      46.074   4.156  13.624  0.00  0.00    +0.000 A 
ATOM     11  C   UNL     1      45.477   4.171  12.344  0.00  0.00    +0.000 A 
ATOM     12  C   UNL     1      45.226   3.248  11.319  0.00  0.00    +0.000 A 
ATOM     13  C   UNL     1      44.456   3.637  10.208  0.00  0.00    +0.000 A 
ATOM     17  C   UNL     1      43.773   4.857  10.264  0.00  0.00    +0.000 A 
ATOM     18  C   UNL     1      44.024   5.806  11.270  0.00  0.00    +0.000 A 
ATOM     19  C   UNL     1      44.998   5.480  12.216  0.00  0.00    +0.000 A 
ENDROOT
BRANCH  13  14
ATOM     14  C   UNL     1      44.494   2.743   9.028  0.00  0.00    +0.000 C 
ATOM     15  N   UNL     1      44.495   3.330   7.751  0.00  0.00    +0.000 N 
ATOM     16  O   UNL     1      44.591   1.540   9.100  0.00  0.00    +0.000 OA
ATOM     24  H   UNL     1      44.492   4.311   7.574  0.00  0.00    +0.000 HD
ATOM     25  H   UNL     1      44.627   2.697   6.984  0.00  0.00    +0.000 HD
ENDBRANCH  13  14
BRANCH   8   7
ATOM      7  C   UNL     1      46.005   7.677  12.984  0.00  0.00    +0.000 C 
BRANCH   7   6
ATOM      3  C   UNL     1      50.211   8.487  12.449  0.00  0.00    +0.000 A 
ATOM      4  C   UNL     1      49.550   8.989  13.585  0.00  0.00    +0.000 A 
ATOM      5  C   UNL     1      48.160   8.788  13.735  0.00  0.00    +0.000 A 
ATOM      6  C   UNL     1      47.426   8.083  12.778  0.00  0.00    +0.000 A 
ATOM     20  C   UNL     1      48.103   7.597  11.633  0.00  0.00    +0.000 A 
ATOM     21  C   UNL     1      49.473   7.801  11.475  0.00  0.00    +0.000 A 
BRANCH   3   2
ATOM      2  C   UNL     1      51.691   8.689  12.257  0.00  0.00    +0.000 C 
BRANCH   2   1
ATOM      1  N   UNL     1      52.299   7.609  11.488  0.00  0.00    +0.000 NA
ATOM     22  H   UNL     1      53.295   7.576  11.696  0.00  0.00    +0.000 HD
ATOM     23  H   UNL     1      52.221   7.827  10.495  0.00  0.00    +0.000 HD
ENDBRANCH   2   1
ENDBRANCH   3   2
ENDBRANCH   7   6
ENDBRANCH   8   7
TORSDOF 5
ENDMDL
