MODEL 1
REMARK VINA RESULT:    -8.193      0.000      0.000
REMARK INTER + INTRA:         -10.780
REMARK INTER:                 -10.348
REMARK INTRA:                  -0.431
REMARK UNBOUND:                -0.431
REMARK  Name = 
REMARK  5 active torsions:
REMARK  status: ('A' for Active; 'I' for Inactive)
REMARK    1  A    between atoms: N_1  and  C_2
REMARK    2  A    between atoms: C_2  and  C_3
REMARK    3  A    between atoms: C_6  and  C_7
REMARK    4  A    between atoms: C_7  and  N_8
REMARK    5  A    between atoms: C_13  and  C_14
REMARK                            x       y       z     vdW  Elec       q    Type
REMARK                         _______ _______ _______ _____ _____    ______ ____
ROOT
ATOM      8  N   UNL     1      44.914   3.766  11.551  0.00  0.00    +0.000 N 
ATOM      9  C   UNL     1      45.697   3.164  12.514  0.00  0.00    +0.000 A 
ATOM     10  C   UNL     1      46.218   4.147  13.327  0.00  0.00    +0.000 A 
ATOM     11  C   UNL     1      45.766   5.396  12.826  0.00  0.00    +0.000 A 
ATOM     12  C   UNL     1      45.988   6.737  13.179  0.00  0.00    +0.000 A 
ATOM     13  C   UNL     1      45.394   7.733  12.398  0.00  0.00    +0.000 A 
ATOM     17  C   UNL     1      44.596   7.333  11.327  0.00  0.00    +0.000 A 
ATOM     18  N   UNL     1      44.325   6.049  10.957  0.00  0.00    +0.000 NA
ATOM     19  C   UNL     1      44.950   5.133  11.727  0.00  0.00    +0.000 A 
ENDROOT
BRANCH  13  14
ATOM     14  C   UNL     1      45.588   9.180  12.650  0.00  0.00    +0.000 C 
ATOM     15  N   UNL     1      44.503  10.006  12.617  0.00  0.00    +0.000 N 
ATOM     16  O   UNL     1      46.706   9.642  12.886  0.00  0.00    +0.000 OA
ATOM     24  H   UNL     1      43.558   9.721  12.397  0.00  0.00    +0.000 HD
ATOM     25  H   UNL     1      44.665  10.991  12.772  0.00  0.00    +0.000 HD
ENDBRANCH  13  14
BRANCH   8   7
ATOM      7  C   UNL     1      44.243   3.060  10.462  0.00  0.00    +0.000 C 
BRANCH   7   6
ATOM      3  C   UNL     1      46.584   2.681   6.819  0.00  0.00    +0.000 A 
ATOM      4  C   UNL     1      46.081   3.926   7.206  0.00  0.00    +0.000 A 
ATOM      5  C   UNL     1      45.348   4.067   8.389  0.00  0.00    +0.000 A 
ATOM      6  C   UNL     1      45.069   2.956   9.198  0.00  0.00    +0.000 A 
ATOM     20  C   UNL     1      45.611   1.717   8.827  0.00  0.00    +0.000 A 
ATOM     21  C   UNL     1      46.359   1.578   7.653  0.00  0.00    +0.000 A 
BRANCH   3   2
ATOM      2  C   UNL     1      47.346   2.549   5.527  0.00  0.00    +0.000 C 
BRANCH   2   1
ATOM      1  N   UNL     1      48.571   1.787   5.718  0.00  0.00    +0.000 NA
ATOM     22  H   UNL     1      49.185   1.926   4.919  0.00  0.00    +0.000 HD
ATOM     23  H   UNL     1      48.343   0.794   5.748  0.00  0.00    +0.000 HD
ENDBRANCH   2   1
ENDBRANCH   3   2
ENDBRANCH   7   6
ENDBRANCH   8   7
TORSDOF 5
ENDMDL
MODEL 2
REMARK VINA RESULT:    -8.171      2.306      3.522
REMARK INTER + INTRA:         -10.752
REMARK INTER:                 -10.315
REMARK INTRA:                  -0.436
REMARK UNBOUND:                -0.431
REMARK  Name = 
REMARK  5 active torsions:
REMARK  status: ('A' for Active; 'I' for Inactive)
REMARK    1  A    between atoms: N_1  and  C_2
REMARK    2  A    between atoms: C_2  and  C_3
REMARK    3  A    between atoms: C_6  and  C_7
REMARK    4  A    between atoms: C_7  and  N_8
REMARK    5  A    between atoms: C_13  and  C_14
REMARK                            x       y       z     vdW  Elec       q    Type
REMARK                         _______ _______ _______ _____ _____    ______ ____
ROOT
ATOM      8  N   UNL     1      44.562   5.215  11.091  0.00  0.00    +0.000 N 
ATOM      9  C   UNL     1      44.438   6.585  11.191  0.00  0.00    +0.000 A 
ATOM     10  C   UNL     1      45.156   7.008  12.288  0.00  0.00    +0.000 A 
ATOM     11  C   UNL     1      45.711   5.855  12.902  0.00  0.00    +0.000 A 
ATOM     12  C   UNL     1      46.481   5.626  14.054  0.00  0.00    +0.000 A 
ATOM     13  C   UNL     1      46.809   4.306  14.378  0.00  0.00    +0.000 A 
ATOM     17  C   UNL     1      46.373   3.296  13.523  0.00  0.00    +0.000 A 
ATOM     18  N   UNL     1      45.650   3.463  12.379  0.00  0.00    +0.000 NA
ATOM     19  C   UNL     1      45.335   4.753  12.134  0.00  0.00    +0.000 A 
ENDROOT
BRANCH  13  14
ATOM     14  C   UNL     1      47.581   3.940  15.588  0.00  0.00    +0.000 C 
ATOM     15  N   UNL     1      47.507   4.745  16.687  0.00  0.00    +0.000 N 
ATOM     16  O   UNL     1      48.284   2.927  15.614  0.00  0.00    +0.000 OA
ATOM     24  H   UNL     1      46.988   5.610  16.743  0.00  0.00    +0.000 HD
ATOM     25  H   UNL     1      48.059   4.484  17.491  0.00  0.00    +0.000 HD
ENDBRANCH  13  14
BRANCH   8   7
ATOM      7  C   UNL     1      43.888   4.388  10.093  0.00  0.00    +0.000 C 
BRANCH   7   6
ATOM      3  C   UNL     1      46.656   2.309   7.465  0.00  0.00    +0.000 A 
ATOM      4  C   UNL     1      45.858   1.589   8.359  0.00  0.00    +0.000 A 
ATOM      5  C   UNL     1      44.946   2.243   9.192  0.00  0.00    +0.000 A 
ATOM      6  C   UNL     1      44.832   3.641   9.177  0.00  0.00    +0.000 A 
ATOM     20  C   UNL     1      45.605   4.355   8.249  0.00  0.00    +0.000 A 
ATOM     21  C   UNL     1      46.506   3.701   7.403  0.00  0.00    +0.000 A 
BRANCH   3   2
ATOM      2  C   UNL     1      47.652   1.586   6.598  0.00  0.00    +0.000 C 
BRANCH   2   1
ATOM      1  N   UNL     1      48.747   2.465   6.213  0.00  0.00    +0.000 NA
ATOM     22  H   UNL     1      48.541   3.414   6.513  0.00  0.00    +0.000 HD
ATOM     23  H   UNL     1      48.817   2.482   5.197  0.00  0.00    +0.000 HD
ENDBRANCH   2   1
ENDBRANCH   3   2
ENDBRANCH   7   6
ENDBRANCH   8   7
TORSDOF 5
ENDMDL
MODEL 3
REMARK VINA RESULT:    -8.013      1.898      2.270
REMARK INTER + INTRA:         -10.552
REMARK INTER:                 -10.022
REMARK INTRA:                  -0.530
REMARK UNBOUND:                -0.431
REMARK  Name = 
REMARK  5 active torsions:
REMARK  status: ('A' for Active; 'I' for Inactive)
REMARK    1  A    between atoms: N_1  and  C_2
REMARK    2  A    between atoms: C_2  and  C_3
REMARK    3  A    between atoms: C_6  and  C_7
REMARK    4  A    between atoms: C_7  and  N_8
REMARK    5  A    between atoms: C_13  and  C_14
REMARK                            x       y       z     vdW  Elec       q    Type
REMARK                         _______ _______ _______ _____ _____    ______ ____
ROOT
ATOM      8  N   UNL     1      44.081   4.459  11.107  0.00  0.00    +0.000 N 
ATOM      9  C   UNL     1      43.417   3.744  12.081  0.00  0.00    +0.000 A 
ATOM     10  C   UNL     1      43.996   4.028  13.299  0.00  0.00    +0.000 A 
ATOM     11  C   UNL     1      45.072   4.922  13.059  0.00  0.00    +0.000 A 
ATOM     12  C   UNL     1      46.052   5.524  13.866  0.00  0.00    +0.000 A 
ATOM     13  C   UNL     1      47.010   6.333  13.249  0.00  0.00    +0.000 A 
ATOM     17  C   UNL     1      46.921   6.514  11.870  0.00  0.00    +0.000 A 
ATOM     18  N   UNL     1      45.977   5.979  11.044  0.00  0.00    +0.000 NA
ATOM     19  C   UNL     1      45.099   5.182  11.689  0.00  0.00    +0.000 A 
ENDROOT
BRANCH  13  14
ATOM     14  C   UNL     1      48.113   6.987  13.991  0.00  0.00    +0.000 C 
ATOM     15  N   UNL     1      47.825   8.046  14.802  0.00  0.00    +0.000 N 
ATOM     16  O   UNL     1      49.275   6.592  13.885  0.00  0.00    +0.000 OA
ATOM     24  H   UNL     1      46.910   8.459  14.921  0.00  0.00    +0.000 HD
ATOM     25  H   UNL     1      48.598   8.486  15.281  0.00  0.00    +0.000 HD
ENDBRANCH  13  14
BRANCH   8   7
ATOM      7  C   UNL     1      43.802   4.373   9.675  0.00  0.00    +0.000 C 
BRANCH   7   6
ATOM      3  C   UNL     1      46.795   2.149   7.441  0.00  0.00    +0.000 A 
ATOM      4  C   UNL     1      45.969   1.493   8.359  0.00  0.00    +0.000 A 
ATOM      5  C   UNL     1      44.985   2.191   9.065  0.00  0.00    +0.000 A 
ATOM      6  C   UNL     1      44.826   3.575   8.898  0.00  0.00    +0.000 A 
ATOM     20  C   UNL     1      45.628   4.220   7.946  0.00  0.00    +0.000 A 
ATOM     21  C   UNL     1      46.602   3.519   7.226  0.00  0.00    +0.000 A 
BRANCH   3   2
ATOM      2  C   UNL     1      47.866   1.381   6.714  0.00  0.00    +0.000 C 
BRANCH   2   1
ATOM      1  N   UNL     1      48.301   2.093   5.520  0.00  0.00    +0.000 NA
ATOM     22  H   UNL     1      48.845   1.467   4.932  0.00  0.00    +0.000 HD
ATOM     23  H   UNL     1      48.919   2.855   5.795  0.00  0.00    +0.000 HD
ENDBRANCH   2   1
ENDBRANCH   3   2
ENDBRANCH   7   6
ENDBRANCH   8   7
TORSDOF 5
ENDMDL
MODEL 4
REMARK VINA RESULT:    -7.690      2.760      6.871
REMARK INTER + INTRA:         -10.145
REMARK INTER:                  -9.710
REMARK INTRA:                  -0.435
REMARK UNBOUND:                -0.431
REMARK  Name = 
REMARK  5 active torsions:
REMARK  status: ('A' for Active; 'I' for Inactive)
REMARK    1  A    between atoms: N_1  and  C_2
REMARK    2  A    between atoms: C_2  and  C_3
REMARK    3  A    between atoms: C_6  and  C_7
REMARK    4  A    between atoms: C_7  and  N_8
REMARK    5  A    between atoms: C_13  and  C_14
REMARK                            x       y       z     vdW  Elec       q    Type
REMARK                         _______ _______ _______ _____ _____    ______ ____
ROOT
ATOM      8  N   UNL     1      44.157   4.398  10.501  0.00  0.00    +0.000 N 
ATOM      9  C   UNL     1      43.606   3.258  11.047  0.00  0.00    +0.000 A 
ATOM     10  C   UNL     1      44.134   2.165  10.396  0.00  0.00    +0.000 A 
ATOM     11  C   UNL     1      45.014   2.652   9.394  0.00  0.00    +0.000 A 
ATOM     12  C   UNL     1      45.795   2.052   8.393  0.00  0.00    +0.000 A 
ATOM     13  C   UNL     1      46.517   2.883   7.532  0.00  0.00    +0.000 A 
ATOM     17  C   UNL     1      46.437   4.260   7.733  0.00  0.00    +0.000 A 
ATOM     18  N   UNL     1      45.719   4.893   8.704  0.00  0.00    +0.000 NA
ATOM     19  C   UNL     1      45.018   4.043   9.484  0.00  0.00    +0.000 A 
ENDROOT
BRANCH  13  14
ATOM     14  C   UNL     1      47.344   2.367   6.416  0.00  0.00    +0.000 C 
ATOM     15  N   UNL     1      47.285   2.994   5.206  0.00  0.00    +0.000 N 
ATOM     16  O   UNL     1      48.076   1.386   6.565  0.00  0.00    +0.000 OA
ATOM     24  H   UNL     1      46.688   3.779   4.984  0.00  0.00    +0.000 HD
ATOM     25  H   UNL     1      47.843   2.610   4.457  0.00  0.00    +0.000 HD
ENDBRANCH  13  14
BRANCH   8   7
ATOM      7  C   UNL     1      43.796   5.762  10.880  0.00  0.00    +0.000 C 
BRANCH   7   6
ATOM      3  C   UNL     1      46.872   7.720  13.246  0.00  0.00    +0.000 A 
ATOM      4  C   UNL     1      45.973   8.480  12.493  0.00  0.00    +0.000 A 
ATOM      5  C   UNL     1      44.963   7.864  11.747  0.00  0.00    +0.000 A 
ATOM      6  C   UNL     1      44.848   6.467  11.708  0.00  0.00    +0.000 A 
ATOM     20  C   UNL     1      45.727   5.711  12.499  0.00  0.00    +0.000 A 
ATOM     21  C   UNL     1      46.727   6.327  13.259  0.00  0.00    +0.000 A 
BRANCH   3   2
ATOM      2  C   UNL     1      47.970   8.403  14.018  0.00  0.00    +0.000 C 
BRANCH   2   1
ATOM      1  N   UNL     1      47.442   9.072  15.199  0.00  0.00    +0.000 NA
ATOM     22  H   UNL     1      46.426   9.080  15.158  0.00  0.00    +0.000 HD
ATOM     23  H   UNL     1      47.748  10.044  15.194  0.00  0.00    +0.000 HD
ENDBRANCH   2   1
ENDBRANCH   3   2
ENDBRANCH   7   6
ENDBRANCH   8   7
TORSDOF 5
ENDMDL
MODEL 5
REMARK VINA RESULT:    -7.047      1.726      2.148
REMARK INTER + INTRA:          -9.333
REMARK INTER:                  -8.760
REMARK INTRA:                  -0.573
REMARK UNBOUND:                -0.431
REMARK  Name = 
REMARK  5 active torsions:
REMARK  status: ('A' for Active; 'I' for Inactive)
REMARK    1  A    between atoms: N_1  and  C_2
REMARK    2  A    between atoms: C_2  and  C_3
REMARK    3  A    between atoms: C_6  and  C_7
REMARK    4  A    between atoms: C_7  and  N_8
REMARK    5  A    between atoms: C_13  and  C_14
REMARK                            x       y       z     vdW  Elec       q    Type
REMARK                         _______ _______ _______ _____ _____    ______ ____
ROOT
ATOM      8  N   UNL     1      45.371   4.886  12.150  0.00  0.00    +0.000 N 
ATOM      9  C   UNL     1      45.771   3.930  13.059  0.00  0.00    +0.000 A 
ATOM     10  C   UNL     1      46.719   4.489  13.888  0.00  0.00    +0.000 A 
ATOM     11  C   UNL     1      46.932   5.823  13.451  0.00  0.00    +0.000 A 
ATOM     12  C   UNL     1      47.789   6.864  13.844  0.00  0.00    +0.000 A 
ATOM     13  C   UNL     1      47.750   8.060  13.123  0.00  0.00    +0.000 A 
ATOM     17  C   UNL     1      46.843   8.158  12.069  0.00  0.00    +0.000 A 
ATOM     18  N   UNL     1      45.971   7.192  11.663  0.00  0.00    +0.000 NA
ATOM     19  C   UNL     1      46.076   6.049  12.374  0.00  0.00    +0.000 A 
ENDROOT
BRANCH  13  14
ATOM     14  C   UNL     1      48.633   9.212  13.421  0.00  0.00    +0.000 C 
ATOM     15  N   UNL     1      48.102  10.310  14.032  0.00  0.00    +0.000 N 
ATOM     16  O   UNL     1      49.829   9.191  13.125  0.00  0.00    +0.000 OA
ATOM     24  H   UNL     1      47.129  10.428  14.277  0.00  0.00    +0.000 HD
ATOM     25  H   UNL     1      48.721  11.088  14.205  0.00  0.00    +0.000 HD
ENDBRANCH  13  14
BRANCH   8   7
ATOM      7  C   UNL     1      44.424   4.656  11.061  0.00  0.00    +0.000 C 
BRANCH   7   6
ATOM      3  C   UNL     1      46.234   2.787   7.579  0.00  0.00    +0.000 A 
ATOM      4  C   UNL     1      45.606   2.004   8.552  0.00  0.00    +0.000 A 
ATOM      5  C   UNL     1      44.998   2.594   9.664  0.00  0.00    +0.000 A 
ATOM      6  C   UNL     1      45.033   3.984   9.850  0.00  0.00    +0.000 A 
ATOM     20  C   UNL     1      45.628   4.768   8.851  0.00  0.00    +0.000 A 
ATOM     21  C   UNL     1      46.222   4.180   7.728  0.00  0.00    +0.000 A 
BRANCH   3   2
ATOM      2  C   UNL     1      46.908   2.128   6.405  0.00  0.00    +0.000 C 
BRANCH   2   1
ATOM      1  N   UNL     1      48.170   1.520   6.799  0.00  0.00    +0.000 NA
ATOM     22  H   UNL     1      47.989   0.637   7.270  0.00  0.00    +0.000 HD
ATOM     23  H   UNL     1      48.635   2.127   7.473  0.00  0.00    +0.000 HD
ENDBRANCH   2   1
ENDBRANCH   3   2
ENDBRANCH   7   6
ENDBRANCH   8   7
TORSDOF 5
ENDMDL
MODEL 6
REMARK VINA RESULT:    -6.556      4.577      7.466
REMARK INTER + INTRA:          -8.712
REMARK INTER:                  -8.418
REMARK INTRA:                  -0.293
REMARK UNBOUND:                -0.431
REMARK  Name = 
REMARK  5 active torsions:
REMARK  status: ('A' for Active; 'I' for Inactive)
REMARK    1  A    between atoms: N_1  and  C_2
REMARK    2  A    between atoms: C_2  and  C_3
REMARK    3  A    between atoms: C_6  and  C_7
REMARK    4  A    between atoms: C_7  and  N_8
REMARK    5  A    between atoms: C_13  and  C_14
REMARK                            x       y       z     vdW  Elec       q    Type
REMARK                         _______ _______ _______ _____ _____    ______ ____
ROOT
ATOM      8  N   UNL     1      47.314   5.206  15.142  0.00  0.00    +0.000 N 
ATOM      9  C   UNL     1      48.207   6.253  15.071  0.00  0.00    +0.000 A 
ATOM     10  C   UNL     1      48.105   6.828  13.823  0.00  0.00    +0.000 A 
ATOM     11  C   UNL     1      47.140   6.086  13.092  0.00  0.00    +0.000 A 
ATOM     12  C   UNL     1      46.641   6.142  11.781  0.00  0.00    +0.000 A 
ATOM     13  C   UNL     1      45.702   5.183  11.389  0.00  0.00    +0.000 A 
ATOM     17  C   UNL     1      45.299   4.241  12.334  0.00  0.00    +0.000 A 
ATOM     18  N   UNL     1      45.728   4.158  13.626  0.00  0.00    +0.000 NA
ATOM     19  C   UNL     1      46.656   5.087  13.937  0.00  0.00    +0.000 A 
ENDROOT
BRANCH  13  14
ATOM     14  C   UNL     1      45.135   5.118  10.022  0.00  0.00    +0.000 C 
ATOM     15  N   UNL     1      43.807   4.846   9.871  0.00  0.00    +0.000 N 
ATOM     16  O   UNL     1      45.842   5.305   9.030  0.00  0.00    +0.000 OA
ATOM     24  H   UNL     1      43.163   4.644  10.623  0.00  0.00    +0.000 HD
ATOM     25  H   UNL     1      43.451   4.788   8.928  0.00  0.00    +0.000 HD
ENDBRANCH  13  14
BRANCH   8   7
ATOM      7  C   UNL     1      47.172   4.307  16.286  0.00  0.00    +0.000 C 
BRANCH   7   6
ATOM      3  C   UNL     1      50.883   2.344  17.415  0.00  0.00    +0.000 A 
ATOM      4  C   UNL     1      50.628   3.657  17.823  0.00  0.00    +0.000 A 
ATOM      5  C   UNL     1      49.428   4.291  17.488  0.00  0.00    +0.000 A 
ATOM      6  C   UNL     1      48.464   3.640  16.705  0.00  0.00    +0.000 A 
ATOM     20  C   UNL     1      48.706   2.309  16.333  0.00  0.00    +0.000 A 
ATOM     21  C   UNL     1      49.900   1.667  16.682  0.00  0.00    +0.000 A 
BRANCH   3   2
ATOM      2  C   UNL     1      52.194   1.691  17.762  0.00  0.00    +0.000 C 
BRANCH   2   1
ATOM      1  N   UNL     1      51.999   0.307  18.168  0.00  0.00    +0.000 NA
ATOM     22  H   UNL     1      51.051   0.017  17.940  0.00  0.00    +0.000 HD
ATOM     23  H   UNL     1      52.095   0.241  19.180  0.00  0.00    +0.000 HD
ENDBRANCH   2   1
ENDBRANCH   3   2
ENDBRANCH   7   6
ENDBRANCH   8   7
TORSDOF 5
ENDMDL
MODEL 7
REMARK VINA RESULT:    -6.173      3.514      4.839
REMARK INTER + INTRA:          -8.228
REMARK INTER:                  -8.020
REMARK INTRA:                  -0.207
REMARK UNBOUND:                -0.431
REMARK  Name = 
REMARK  5 active torsions:
REMARK  status: ('A' for Active; 'I' for Inactive)
REMARK    1  A    between atoms: N_1  and  C_2
REMARK    2  A    between atoms: C_2  and  C_3
REMARK    3  A    between atoms: C_6  and  C_7
REMARK    4  A    between atoms: C_7  and  N_8
REMARK    5  A    between atoms: C_13  and  C_14
REMARK                            x       y       z     vdW  Elec       q    Type
REMARK                         _______ _______ _______ _____ _____    ______ ____
ROOT
ATOM      8  N   UNL     1      46.186   5.742  13.365  0.00  0.00    +0.000 N 
ATOM      9  C   UNL     1      46.844   6.892  12.983  0.00  0.00    +0.000 A 
ATOM     10  C   UNL     1      47.924   7.073  13.819  0.00  0.00    +0.000 A 
ATOM     11  C   UNL     1      47.909   6.016  14.767  0.00  0.00    +0.000 A 
ATOM     12  C   UNL     1      48.696   5.680  15.881  0.00  0.00    +0.000 A 
ATOM     13  C   UNL     1      48.336   4.555  16.629  0.00  0.00    +0.000 A 
ATOM     17  C   UNL     1      47.229   3.819  16.210  0.00  0.00    +0.000 A 
ATOM     18  N   UNL     1      46.449   4.083  15.123  0.00  0.00    +0.000 NA
ATOM     19  C   UNL     1      46.824   5.196  14.459  0.00  0.00    +0.000 A 
ENDROOT
BRANCH  13  14
ATOM     14  C   UNL     1      49.066   4.127  17.845  0.00  0.00    +0.000 C 
ATOM     15  N   UNL     1      48.355   3.832  18.972  0.00  0.00    +0.000 N 
ATOM     16  O   UNL     1      50.295   4.035  17.852  0.00  0.00    +0.000 OA
ATOM     24  H   UNL     1      47.352   3.915  19.068  0.00  0.00    +0.000 HD
ATOM     25  H   UNL     1      48.878   3.562  19.792  0.00  0.00    +0.000 HD
ENDBRANCH  13  14
BRANCH   8   7
ATOM      7  C   UNL     1      44.950   5.250  12.761  0.00  0.00    +0.000 C 
BRANCH   7   6
ATOM      3  C   UNL     1      45.514   3.775   8.711  0.00  0.00    +0.000 A 
ATOM      4  C   UNL     1      45.088   2.910   9.723  0.00  0.00    +0.000 A 
ATOM      5  C   UNL     1      44.878   3.376  11.024  0.00  0.00    +0.000 A 
ATOM      6  C   UNL     1      45.124   4.717  11.356  0.00  0.00    +0.000 A 
ATOM     20  C   UNL     1      45.512   5.589  10.329  0.00  0.00    +0.000 A 
ATOM     21  C   UNL     1      45.706   5.128   9.022  0.00  0.00    +0.000 A 
BRANCH   3   2
ATOM      2  C   UNL     1      45.761   3.245   7.324  0.00  0.00    +0.000 C 
BRANCH   2   1
ATOM      1  N   UNL     1      46.761   4.042   6.629  0.00  0.00    +0.000 NA
ATOM     22  H   UNL     1      46.510   4.119   5.646  0.00  0.00    +0.000 HD
ATOM     23  H   UNL     1      47.657   3.559   6.670  0.00  0.00    +0.000 HD
ENDBRANCH   2   1
ENDBRANCH   3   2
ENDBRANCH   7   6
ENDBRANCH   8   7
TORSDOF 5
ENDMDL
MODEL 8
REMARK VINA RESULT:    -5.966      1.538      1.987
REMARK INTER + INTRA:          -7.966
REMARK INTER:                  -7.570
REMARK INTRA:                  -0.397
REMARK UNBOUND:                -0.431
REMARK  Name = 
REMARK  5 active torsions:
REMARK  status: ('A' for Active; 'I' for Inactive)
REMARK    1  A    between atoms: N_1  and  C_2
REMARK    2  A    between atoms: C_2  and  C_3
REMARK    3  A    between atoms: C_6  and  C_7
REMARK    4  A    between atoms: C_7  and  N_8
REMARK    5  A    between atoms: C_13  and  C_14
REMARK                            x       y       z     vdW  Elec       q    Type
REMARK                         _______ _______ _______ _____ _____    ______ ____
ROOT
ATOM      8  N   UNL     1      45.285   5.463  12.067  0.00  0.00    +0.000 N 
ATOM      9  C   UNL     1      46.449   5.497  12.807  0.00  0.00    +0.000 A 
ATOM     10  C   UNL     1      46.763   6.813  13.064  0.00  0.00    +0.000 A 
ATOM     11  C   UNL     1      45.777   7.616  12.431  0.00  0.00    +0.000 A 
ATOM     12  C   UNL     1      45.576   8.998  12.287  0.00  0.00    +0.000 A 
ATOM     13  C   UNL     1      44.485   9.432  11.528  0.00  0.00    +0.000 A 
ATOM     17  C   UNL     1      43.646   8.464  10.979  0.00  0.00    +0.000 A 
ATOM     18  N   UNL     1      43.777   7.113  11.111  0.00  0.00    +0.000 NA
ATOM     19  C   UNL     1      44.864   6.753  11.825  0.00  0.00    +0.000 A 
ENDROOT
BRANCH  13  14
ATOM     14  C   UNL     1      44.196  10.862  11.274  0.00  0.00    +0.000 C 
ATOM     15  N   UNL     1      44.728  11.457  10.167  0.00  0.00    +0.000 N 
ATOM     16  O   UNL     1      43.488  11.516  12.043  0.00  0.00    +0.000 OA
ATOM     24  H   UNL     1      45.347  11.010   9.505  0.00  0.00    +0.000 HD
ATOM     25  H   UNL     1      44.532  12.438  10.029  0.00  0.00    +0.000 HD
ENDBRANCH  13  14
BRANCH   8   7
ATOM      7  C   UNL     1      44.667   4.248  11.542  0.00  0.00    +0.000 C 
BRANCH   7   6
ATOM      3  C   UNL     1      46.099   2.994   7.635  0.00  0.00    +0.000 A 
ATOM      4  C   UNL     1      46.028   4.352   7.956  0.00  0.00    +0.000 A 
ATOM      5  C   UNL     1      45.593   4.769   9.218  0.00  0.00    +0.000 A 
ATOM      6  C   UNL     1      45.184   3.835  10.181  0.00  0.00    +0.000 A 
ATOM     20  C   UNL     1      45.297   2.473   9.869  0.00  0.00    +0.000 A 
ATOM     21  C   UNL     1      45.748   2.054   8.612  0.00  0.00    +0.000 A 
BRANCH   3   2
ATOM      2  C   UNL     1      46.543   2.570   6.260  0.00  0.00    +0.000 C 
BRANCH   2   1
ATOM      1  N   UNL     1      47.127   1.237   6.286  0.00  0.00    +0.000 NA
ATOM     22  H   UNL     1      47.222   0.927   7.249  0.00  0.00    +0.000 HD
ATOM     23  H   UNL     1      48.065   1.278   5.892  0.00  0.00    +0.000 HD
ENDBRANCH   2   1
ENDBRANCH   3   2
ENDBRANCH   7   6
ENDBRANCH   8   7
TORSDOF 5
ENDMDL
MODEL 9
REMARK VINA RESULT:    -5.901      4.662      8.606
REMARK INTER + INTRA:          -7.885
REMARK INTER:                  -7.371
REMARK INTRA:                  -0.514
REMARK UNBOUND:                -0.431
REMARK  Name = 
REMARK  5 active torsions:
REMARK  status: ('A' for Active; 'I' for Inactive)
REMARK    1  A    between atoms: N_1  and  C_2
REMARK    2  A    between atoms: C_2  and  C_3
REMARK    3  A    between atoms: C_6  and  C_7
REMARK    4  A    between atoms: C_7  and  N_8
REMARK    5  A    between atoms: C_13  and  C_14
REMARK                            x       y       z     vdW  Elec       q    Type
REMARK                         _______ _______ _______ _____ _____    ______ ____
ROOT
ATOM      8  N   UNL     1      48.061   7.002  14.251  0.00  0.00    +0.000 N 
ATOM      9  C   UNL     1      47.539   8.200  13.808  0.00  0.00    +0.000 A 
ATOM     10  C   UNL     1      46.434   7.932  13.031  0.00  0.00    +0.000 A 
ATOM     11  C   UNL     1      46.291   6.520  12.968  0.00  0.00    +0.000 A 
ATOM     12  C   UNL     1      45.411   5.647  12.308  0.00  0.00    +0.000 A 
ATOM     13  C   UNL     1      45.617   4.272  12.446  0.00  0.00    +0.000 A 
ATOM     17  C   UNL     1      46.672   3.847  13.254  0.00  0.00    +0.000 A 
ATOM     18  N   UNL     1      47.537   4.649  13.938  0.00  0.00    +0.000 NA
ATOM     19  C   UNL     1      47.310   5.964  13.741  0.00  0.00    +0.000 A 
ENDROOT
BRANCH  13  14
ATOM     14  C   UNL     1      44.778   3.257  11.767  0.00  0.00    +0.000 C 
ATOM     15  N   UNL     1      43.852   2.571  12.497  0.00  0.00    +0.000 N 
ATOM     16  O   UNL     1      44.906   3.027  10.563  0.00  0.00    +0.000 OA
ATOM     24  H   UNL     1      43.705   2.668  13.492  0.00  0.00    +0.000 HD
ATOM     25  H   UNL     1      43.308   1.870  12.014  0.00  0.00    +0.000 HD
ENDBRANCH  13  14
BRANCH   8   7
ATOM      7  C   UNL     1      49.278   6.867  15.048  0.00  0.00    +0.000 C 
BRANCH   7   6
ATOM      3  C   UNL     1      48.494   5.789  19.185  0.00  0.00    +0.000 A 
ATOM      4  C   UNL     1      49.015   4.843  18.297  0.00  0.00    +0.000 A 
ATOM      5  C   UNL     1      49.296   5.184  16.970  0.00  0.00    +0.000 A 
ATOM      6  C   UNL     1      49.028   6.473  16.487  0.00  0.00    +0.000 A 
ATOM     20  C   UNL     1      48.544   7.429  17.392  0.00  0.00    +0.000 A 
ATOM     21  C   UNL     1      48.279   7.094  18.724  0.00  0.00    +0.000 A 
BRANCH   3   2
ATOM      2  C   UNL     1      48.172   5.392  20.601  0.00  0.00    +0.000 C 
BRANCH   2   1
ATOM      1  N   UNL     1      48.358   3.961  20.799  0.00  0.00    +0.000 NA
ATOM     22  H   UNL     1      48.140   3.722  21.763  0.00  0.00    +0.000 HD
ATOM     23  H   UNL     1      49.339   3.731  20.649  0.00  0.00    +0.000 HD
ENDBRANCH   2   1
ENDBRANCH   3   2
ENDBRANCH   7   6
ENDBRANCH   8   7
TORSDOF 5
ENDMDL
