MODEL 1
REMARK VINA RESULT:    -8.706      0.000      0.000
REMARK INTER + INTRA:         -13.057
REMARK INTER:                 -11.760
REMARK INTRA:                  -1.297
REMARK UNBOUND:                -1.297
REMARK  Name = 
REMARK  6 active torsions:
REMARK  status: ('A' for Active; 'I' for Inactive)
REMARK    1  A    between atoms: C_2  and  C_19
REMARK    2  A    between atoms: N_3  and  C_4
REMARK    3  A    between atoms: C_4  and  C_5
REMARK    4  A    between atoms: C_8  and  C_9
REMARK    5  A    between atoms: C_9  and  N_10
REMARK    6  A    between atoms: N_10  and  C_11
REMARK                            x       y       z     vdW  Elec       q    Type
REMARK                         _______ _______ _______ _____ _____    ______ ____
ROOT
ATOM      4  C   UNL     1      46.782   7.947  13.249  0.00  0.00    +0.000 C 
ENDROOT
BRANCH   4   5
ATOM      5  C   UNL     1      46.089   6.958  12.349  0.00  0.00    +0.000 A 
ATOM      6  C   UNL     1      46.619   6.658  11.087  0.00  0.00    +0.000 A 
ATOM      7  C   UNL     1      45.999   5.719  10.260  0.00  0.00    +0.000 A 
ATOM      8  C   UNL     1      44.830   5.067  10.674  0.00  0.00    +0.000 A 
ATOM     17  C   UNL     1      44.285   5.391  11.926  0.00  0.00    +0.000 A 
ATOM     18  C   UNL     1      44.903   6.333  12.752  0.00  0.00    +0.000 A 
BRANCH   8   9
ATOM      9  C   UNL     1      44.148   4.056   9.782  0.00  0.00    +0.000 C 
BRANCH   9  10
ATOM     10  N   UNL     1      44.431   4.299   8.367  0.00  0.00    +0.000 NA
ATOM     30  H   UNL     1      45.011   5.134   8.284  0.00  0.00    +0.000 HD
BRANCH  10  11
ATOM     11  C   UNL     1      45.077   3.162   7.694  0.00  0.00    +0.000 C 
ATOM     12  C   UNL     1      45.545   2.072   8.677  0.00  0.00    +0.000 C 
ATOM     13  C   UNL     1      46.332   0.965   7.980  0.00  0.00    +0.000 C 
ATOM     14  C   UNL     1      47.515   1.526   7.204  0.00  0.00    +0.000 C 
ATOM     15  C   UNL     1      47.060   2.580   6.201  0.00  0.00    +0.000 C 
ATOM     16  C   UNL     1      46.269   3.700   6.880  0.00  0.00    +0.000 C 
ENDBRANCH  10  11
ENDBRANCH   9  10
ENDBRANCH   8   9
ENDBRANCH   4   5
BRANCH   4   3
ATOM      1  O   UNL     1      49.333   6.799  13.494  0.00  0.00    +0.000 OA
ATOM      2  C   UNL     1      48.589   6.804  14.472  0.00  0.00    +0.000 C 
ATOM      3  N   UNL     1      47.317   7.311  14.425  0.00  0.00    +0.000 N 
ATOM     29  H   UNL     1      46.806   7.456  15.288  0.00  0.00    +0.000 HD
BRANCH   2  19
ATOM     19  C   UNL     1      49.004   6.202  15.747  0.00  0.00    +0.000 A 
ATOM     20  C   UNL     1      50.057   6.765  16.455  0.00  0.00    +0.000 A 
ATOM     21  S   UNL     1      50.419   5.948  17.907  0.00  0.00    +0.000 S 
ATOM     22  C   UNL     1      49.150   4.840  17.665  0.00  0.00    +0.000 A 
ATOM     23  N   UNL     1      48.876   3.874  18.583  0.00  0.00    +0.000 NA
ATOM     24  C   UNL     1      47.862   3.133  18.288  0.00  0.00    +0.000 A 
ATOM     25  N   UNL     1      47.104   3.257  17.154  0.00  0.00    +0.000 N 
ATOM     26  C   UNL     1      47.393   4.162  16.163  0.00  0.00    +0.000 A 
ATOM     27  O   UNL     1      46.783   4.151  15.098  0.00  0.00    +0.000 OA
ATOM     28  C   UNL     1      48.489   5.060  16.470  0.00  0.00    +0.000 A 
ATOM     31  H   UNL     1      46.344   2.620  16.970  0.00  0.00    +0.000 HD
ENDBRANCH   2  19
ENDBRANCH   4   3
TORSDOF 6
ENDMDL
MODEL 2
REMARK VINA RESULT:    -8.081      1.629      1.842
REMARK INTER + INTRA:         -12.213
REMARK INTER:                 -11.203
REMARK INTRA:                  -1.011
REMARK UNBOUND:                -1.297
REMARK  Name = 
REMARK  6 active torsions:
REMARK  status: ('A' for Active; 'I' for Inactive)
REMARK    1  A    between atoms: C_2  and  C_19
REMARK    2  A    between atoms: N_3  and  C_4
REMARK    3  A    between atoms: C_4  and  C_5
REMARK    4  A    between atoms: C_8  and  C_9
REMARK    5  A    between atoms: C_9  and  N_10
REMARK    6  A    between atoms: N_10  and  C_11
REMARK                            x       y       z     vdW  Elec       q    Type
REMARK                         _______ _______ _______ _____ _____    ______ ____
ROOT
ATOM      4  C   UNL     1      48.280   6.974  13.484  0.00  0.00    +0.000 C 
ENDROOT
BRANCH   4   5
ATOM      5  C   UNL     1      47.205   6.215  12.754  0.00  0.00    +0.000 A 
ATOM      6  C   UNL     1      46.749   6.659  11.505  0.00  0.00    +0.000 A 
ATOM      7  C   UNL     1      45.773   5.943  10.809  0.00  0.00    +0.000 A 
ATOM      8  C   UNL     1      45.225   4.774  11.351  0.00  0.00    +0.000 A 
ATOM     17  C   UNL     1      45.662   4.348  12.615  0.00  0.00    +0.000 A 
ATOM     18  C   UNL     1      46.635   5.066  13.314  0.00  0.00    +0.000 A 
BRANCH   8   9
ATOM      9  C   UNL     1      44.163   3.998  10.608  0.00  0.00    +0.000 C 
BRANCH   9  10
ATOM     10  N   UNL     1      44.107   4.367   9.193  0.00  0.00    +0.000 NA
ATOM     30  H   UNL     1      44.552   5.277   9.072  0.00  0.00    +0.000 HD
BRANCH  10  11
ATOM     11  C   UNL     1      44.728   3.374   8.303  0.00  0.00    +0.000 C 
ATOM     12  C   UNL     1      45.193   2.109   9.048  0.00  0.00    +0.000 C 
ATOM     13  C   UNL     1      45.954   1.149   8.138  0.00  0.00    +0.000 C 
ATOM     14  C   UNL     1      47.134   1.835   7.466  0.00  0.00    +0.000 C 
ATOM     15  C   UNL     1      46.682   3.069   6.694  0.00  0.00    +0.000 C 
ATOM     16  C   UNL     1      45.917   4.045   7.590  0.00  0.00    +0.000 C 
ENDBRANCH  10  11
ENDBRANCH   9  10
ENDBRANCH   8   9
ENDBRANCH   4   5
BRANCH   4   3
ATOM      1  O   UNL     1      50.325   6.795  15.401  0.00  0.00    +0.000 OA
ATOM      2  C   UNL     1      49.158   6.856  15.783  0.00  0.00    +0.000 C 
ATOM      3  N   UNL     1      48.102   6.909  14.912  0.00  0.00    +0.000 N 
ATOM     29  H   UNL     1      47.178   7.134  15.262  0.00  0.00    +0.000 HD
BRANCH   2  19
ATOM     19  C   UNL     1      48.822   6.812  17.213  0.00  0.00    +0.000 A 
ATOM     20  C   UNL     1      48.350   7.959  17.838  0.00  0.00    +0.000 A 
ATOM     21  S   UNL     1      48.012   7.744  19.495  0.00  0.00    +0.000 S 
ATOM     22  C   UNL     1      48.440   6.099  19.427  0.00  0.00    +0.000 A 
ATOM     23  N   UNL     1      48.337   5.300  20.524  0.00  0.00    +0.000 NA
ATOM     24  C   UNL     1      48.656   4.068  20.316  0.00  0.00    +0.000 A 
ATOM     25  N   UNL     1      49.082   3.559  19.116  0.00  0.00    +0.000 N 
ATOM     26  C   UNL     1      49.278   4.343  18.006  0.00  0.00    +0.000 A 
ATOM     27  O   UNL     1      49.796   3.886  16.992  0.00  0.00    +0.000 OA
ATOM     28  C   UNL     1      48.880   5.727  18.170  0.00  0.00    +0.000 A 
ATOM     31  H   UNL     1      49.347   2.591  19.033  0.00  0.00    +0.000 HD
ENDBRANCH   2  19
ENDBRANCH   4   3
TORSDOF 6
ENDMDL
MODEL 3
REMARK VINA RESULT:    -8.063      2.067      2.535
REMARK INTER + INTRA:         -12.189
REMARK INTER:                 -11.257
REMARK INTRA:                  -0.932
REMARK UNBOUND:                -1.297
REMARK  Name = 
REMARK  6 active torsions:
REMARK  status: ('A' for Active; 'I' for Inactive)
REMARK    1  A    between atoms: C_2  and  C_19
REMARK    2  A    between atoms: N_3  and  C_4
REMARK    3  A    between atoms: C_4  and  C_5
REMARK    4  A    between atoms: C_8  and  C_9
REMARK    5  A    between atoms: C_9  and  N_10
REMARK    6  A    between atoms: N_10  and  C_11
REMARK                            x       y       z     vdW  Elec       q    Type
REMARK                         _______ _______ _______ _____ _____    ______ ____
ROOT
ATOM      4  C   UNL     1      47.896   6.728  13.667  0.00  0.00    +0.000 C 
ENDROOT
BRANCH   4   5
ATOM      5  C   UNL     1      46.930   6.006  12.766  0.00  0.00    +0.000 A 
ATOM      6  C   UNL     1      46.295   4.836  13.203  0.00  0.00    +0.000 A 
ATOM      7  C   UNL     1      45.374   4.179  12.384  0.00  0.00    +0.000 A 
ATOM      8  C   UNL     1      45.078   4.672  11.107  0.00  0.00    +0.000 A 
ATOM     17  C   UNL     1      45.737   5.827  10.660  0.00  0.00    +0.000 A 
ATOM     18  C   UNL     1      46.661   6.483  11.478  0.00  0.00    +0.000 A 
BRANCH   8   9
ATOM      9  C   UNL     1      44.089   3.961  10.212  0.00  0.00    +0.000 C 
BRANCH   9  10
ATOM     10  N   UNL     1      44.260   4.333   8.807  0.00  0.00    +0.000 NA
ATOM     30  H   UNL     1      44.785   5.207   8.759  0.00  0.00    +0.000 HD
BRANCH  10  11
ATOM     11  C   UNL     1      44.922   3.296   8.002  0.00  0.00    +0.000 C 
ATOM     12  C   UNL     1      45.377   2.086   8.840  0.00  0.00    +0.000 C 
ATOM     13  C   UNL     1      46.179   1.082   8.017  0.00  0.00    +0.000 C 
ATOM     14  C   UNL     1      47.373   1.742   7.342  0.00  0.00    +0.000 C 
ATOM     15  C   UNL     1      46.932   2.919   6.480  0.00  0.00    +0.000 C 
ATOM     16  C   UNL     1      46.126   3.938   7.287  0.00  0.00    +0.000 C 
ENDBRANCH  10  11
ENDBRANCH   9  10
ENDBRANCH   8   9
ENDBRANCH   4   5
BRANCH   4   3
ATOM      1  O   UNL     1      50.026   6.698  15.497  0.00  0.00    +0.000 OA
ATOM      2  C   UNL     1      48.931   6.270  15.855  0.00  0.00    +0.000 C 
ATOM      3  N   UNL     1      47.852   6.217  15.013  0.00  0.00    +0.000 N 
ATOM     29  H   UNL     1      46.932   6.026  15.392  0.00  0.00    +0.000 HD
BRANCH   2  19
ATOM     19  C   UNL     1      48.731   5.727  17.206  0.00  0.00    +0.000 A 
ATOM     20  C   UNL     1      48.965   4.379  17.440  0.00  0.00    +0.000 A 
ATOM     21  S   UNL     1      48.683   3.906  19.053  0.00  0.00    +0.000 S 
ATOM     22  C   UNL     1      48.282   5.496  19.508  0.00  0.00    +0.000 A 
ATOM     23  N   UNL     1      47.973   5.801  20.798  0.00  0.00    +0.000 NA
ATOM     24  C   UNL     1      47.731   7.051  21.004  0.00  0.00    +0.000 A 
ATOM     25  N   UNL     1      47.755   8.025  20.041  0.00  0.00    +0.000 N 
ATOM     26  C   UNL     1      47.982   7.751  18.715  0.00  0.00    +0.000 A 
ATOM     27  O   UNL     1      47.856   8.620  17.858  0.00  0.00    +0.000 OA
ATOM     28  C   UNL     1      48.317   6.369  18.436  0.00  0.00    +0.000 A 
ATOM     31  H   UNL     1      47.522   8.979  20.267  0.00  0.00    +0.000 HD
ENDBRANCH   2  19
ENDBRANCH   4   3
TORSDOF 6
ENDMDL
MODEL 4
REMARK VINA RESULT:    -7.689      1.894      2.688
REMARK INTER + INTRA:         -11.684
REMARK INTER:                 -11.029
REMARK INTRA:                  -0.655
REMARK UNBOUND:                -1.297
REMARK  Name = 
REMARK  6 active torsions:
REMARK  status: ('A' for Active; 'I' for Inactive)
REMARK    1  A    between atoms: C_2  and  C_19
REMARK    2  A    between atoms: N_3  and  C_4
REMARK    3  A    between atoms: C_4  and  C_5
REMARK    4  A    between atoms: C_8  and  C_9
REMARK    5  A    between atoms: C_9  and  N_10
REMARK    6  A    between atoms: N_10  and  C_11
REMARK                            x       y       z     vdW  Elec       q    Type
REMARK                         _______ _______ _______ _____ _____    ______ ____
ROOT
ATOM      4  C   UNL     1      45.677   4.452  14.813  0.00  0.00    +0.000 C 
ENDROOT
BRANCH   4   5
ATOM      5  C   UNL     1      45.682   4.634  13.318  0.00  0.00    +0.000 A 
ATOM      6  C   UNL     1      45.016   3.719  12.492  0.00  0.00    +0.000 A 
ATOM      7  C   UNL     1      44.991   3.899  11.107  0.00  0.00    +0.000 A 
ATOM      8  C   UNL     1      45.640   4.991  10.519  0.00  0.00    +0.000 A 
ATOM     17  C   UNL     1      46.332   5.890  11.346  0.00  0.00    +0.000 A 
ATOM     18  C   UNL     1      46.360   5.708  12.731  0.00  0.00    +0.000 A 
BRANCH   8   9
ATOM      9  C   UNL     1      45.625   5.189   9.021  0.00  0.00    +0.000 C 
BRANCH   9  10
ATOM     10  N   UNL     1      44.668   4.298   8.363  0.00  0.00    +0.000 NA
ATOM     30  H   UNL     1      44.076   4.850   7.742  0.00  0.00    +0.000 HD
BRANCH  10  11
ATOM     11  C   UNL     1      45.304   3.201   7.618  0.00  0.00    +0.000 C 
ATOM     12  C   UNL     1      45.704   2.018   8.519  0.00  0.00    +0.000 C 
ATOM     13  C   UNL     1      46.482   0.948   7.757  0.00  0.00    +0.000 C 
ATOM     14  C   UNL     1      47.708   1.534   7.070  0.00  0.00    +0.000 C 
ATOM     15  C   UNL     1      47.321   2.683   6.147  0.00  0.00    +0.000 C 
ATOM     16  C   UNL     1      46.540   3.767   6.892  0.00  0.00    +0.000 C 
ENDBRANCH  10  11
ENDBRANCH   9  10
ENDBRANCH   8   9
ENDBRANCH   4   5
BRANCH   4   3
ATOM      1  O   UNL     1      46.694   3.341  17.183  0.00  0.00    +0.000 OA
ATOM      2  C   UNL     1      47.406   4.102  16.531  0.00  0.00    +0.000 C 
ATOM      3  N   UNL     1      46.973   4.713  15.385  0.00  0.00    +0.000 N 
ATOM     29  H   UNL     1      47.641   5.188  14.789  0.00  0.00    +0.000 HD
BRANCH   2  19
ATOM     19  C   UNL     1      48.759   4.453  16.985  0.00  0.00    +0.000 A 
ATOM     20  C   UNL     1      49.063   5.780  17.262  0.00  0.00    +0.000 A 
ATOM     21  S   UNL     1      50.672   6.021  17.771  0.00  0.00    +0.000 S 
ATOM     22  C   UNL     1      51.008   4.355  17.685  0.00  0.00    +0.000 A 
ATOM     23  N   UNL     1      52.227   3.866  18.039  0.00  0.00    +0.000 NA
ATOM     24  C   UNL     1      52.326   2.582  17.964  0.00  0.00    +0.000 A 
ATOM     25  N   UNL     1      51.325   1.740  17.554  0.00  0.00    +0.000 N 
ATOM     26  C   UNL     1      50.108   2.195  17.111  0.00  0.00    +0.000 A 
ATOM     27  O   UNL     1      49.287   1.429  16.617  0.00  0.00    +0.000 OA
ATOM     28  C   UNL     1      49.923   3.629  17.229  0.00  0.00    +0.000 A 
ATOM     31  H   UNL     1      51.483   0.747  17.487  0.00  0.00    +0.000 HD
ENDBRANCH   2  19
ENDBRANCH   4   3
TORSDOF 6
ENDMDL
MODEL 5
REMARK VINA RESULT:    -7.669      2.190      3.805
REMARK INTER + INTRA:         -11.656
REMARK INTER:                 -10.727
REMARK INTRA:                  -0.929
REMARK UNBOUND:                -1.297
REMARK  Name = 
REMARK  6 active torsions:
REMARK  status: ('A' for Active; 'I' for Inactive)
REMARK    1  A    between atoms: C_2  and  C_19
REMARK    2  A    between atoms: N_3  and  C_4
REMARK    3  A    between atoms: C_4  and  C_5
REMARK    4  A    between atoms: C_8  and  C_9
REMARK    5  A    between atoms: C_9  and  N_10
REMARK    6  A    between atoms: N_10  and  C_11
REMARK                            x       y       z     vdW  Elec       q    Type
REMARK                         _______ _______ _______ _____ _____    ______ ____
ROOT
ATOM      4  C   UNL     1      46.885   4.735  14.656  0.00  0.00    +0.000 C 
ENDROOT
BRANCH   4   5
ATOM      5  C   UNL     1      46.210   4.617  13.316  0.00  0.00    +0.000 A 
ATOM      6  C   UNL     1      45.615   3.409  12.928  0.00  0.00    +0.000 A 
ATOM      7  C   UNL     1      44.961   3.302  11.699  0.00  0.00    +0.000 A 
ATOM      8  C   UNL     1      44.896   4.397  10.828  0.00  0.00    +0.000 A 
ATOM     17  C   UNL     1      45.519   5.597  11.206  0.00  0.00    +0.000 A 
ATOM     18  C   UNL     1      46.177   5.703  12.434  0.00  0.00    +0.000 A 
BRANCH   8   9
ATOM      9  C   UNL     1      44.197   4.287   9.493  0.00  0.00    +0.000 C 
BRANCH   9  10
ATOM     10  N   UNL     1      45.104   4.560   8.378  0.00  0.00    +0.000 NA
ATOM     30  H   UNL     1      45.924   5.054   8.732  0.00  0.00    +0.000 HD
BRANCH  10  11
ATOM     11  C   UNL     1      45.514   3.353   7.645  0.00  0.00    +0.000 C 
ATOM     12  C   UNL     1      45.916   2.194   8.577  0.00  0.00    +0.000 C 
ATOM     13  C   UNL     1      46.467   0.997   7.807  0.00  0.00    +0.000 C 
ATOM     14  C   UNL     1      47.636   1.396   6.918  0.00  0.00    +0.000 C 
ATOM     15  C   UNL     1      47.240   2.518   5.965  0.00  0.00    +0.000 C 
ATOM     16  C   UNL     1      46.686   3.728   6.718  0.00  0.00    +0.000 C 
ENDBRANCH  10  11
ENDBRANCH   9  10
ENDBRANCH   8   9
ENDBRANCH   4   5
BRANCH   4   3
ATOM      1  O   UNL     1      49.101   5.277  16.294  0.00  0.00    +0.000 OA
ATOM      2  C   UNL     1      48.632   6.186  15.613  0.00  0.00    +0.000 C 
ATOM      3  N   UNL     1      47.531   6.013  14.816  0.00  0.00    +0.000 N 
ATOM     29  H   UNL     1      47.285   6.729  14.142  0.00  0.00    +0.000 HD
BRANCH   2  19
ATOM     19  C   UNL     1      49.195   7.542  15.662  0.00  0.00    +0.000 A 
ATOM     20  C   UNL     1      49.266   8.207  16.879  0.00  0.00    +0.000 A 
ATOM     21  S   UNL     1      49.937   9.770  16.766  0.00  0.00    +0.000 S 
ATOM     22  C   UNL     1      50.200   9.597  15.094  0.00  0.00    +0.000 A 
ATOM     23  N   UNL     1      50.800  10.582  14.371  0.00  0.00    +0.000 NA
ATOM     24  C   UNL     1      50.972  10.297  13.125  0.00  0.00    +0.000 A 
ATOM     25  N   UNL     1      50.589   9.125  12.528  0.00  0.00    +0.000 N 
ATOM     26  C   UNL     1      49.909   8.138  13.198  0.00  0.00    +0.000 A 
ATOM     27  O   UNL     1      49.454   7.166  12.604  0.00  0.00    +0.000 OA
ATOM     28  C   UNL     1      49.740   8.383  14.617  0.00  0.00    +0.000 A 
ATOM     31  H   UNL     1      50.724   8.982  11.540  0.00  0.00    +0.000 HD
ENDBRANCH   2  19
ENDBRANCH   4   3
TORSDOF 6
ENDMDL
MODEL 6
REMARK VINA RESULT:    -7.294      2.687      4.279
REMARK INTER + INTRA:         -11.150
REMARK INTER:                 -10.099
REMARK INTRA:                  -1.051
REMARK UNBOUND:                -1.297
REMARK  Name = 
REMARK  6 active torsions:
REMARK  status: ('A' for Active; 'I' for Inactive)
REMARK    1  A    between atoms: C_2  and  C_19
REMARK    2  A    between atoms: N_3  and  C_4
REMARK    3  A    between atoms: C_4  and  C_5
REMARK    4  A    between atoms: C_8  and  C_9
REMARK    5  A    between atoms: C_9  and  N_10
REMARK    6  A    between atoms: N_10  and  C_11
REMARK                            x       y       z     vdW  Elec       q    Type
REMARK                         _______ _______ _______ _____ _____    ______ ____
ROOT
ATOM      4  C   UNL     1      47.316   5.624  14.446  0.00  0.00    +0.000 C 
ENDROOT
BRANCH   4   5
ATOM      5  C   UNL     1      46.493   5.264  13.238  0.00  0.00    +0.000 A 
ATOM      6  C   UNL     1      46.348   6.175  12.183  0.00  0.00    +0.000 A 
ATOM      7  C   UNL     1      45.611   5.836  11.047  0.00  0.00    +0.000 A 
ATOM      8  C   UNL     1      44.996   4.582  10.945  0.00  0.00    +0.000 A 
ATOM     17  C   UNL     1      45.118   3.682  12.015  0.00  0.00    +0.000 A 
ATOM     18  C   UNL     1      45.852   4.023  13.154  0.00  0.00    +0.000 A 
BRANCH   8   9
ATOM      9  C   UNL     1      44.190   4.210   9.722  0.00  0.00    +0.000 C 
BRANCH   9  10
ATOM     10  N   UNL     1      44.895   4.539   8.483  0.00  0.00    +0.000 NA
ATOM     30  H   UNL     1      45.679   5.154   8.703  0.00  0.00    +0.000 HD
BRANCH  10  11
ATOM     11  C   UNL     1      45.367   3.358   7.745  0.00  0.00    +0.000 C 
ATOM     12  C   UNL     1      45.703   2.170   8.667  0.00  0.00    +0.000 C 
ATOM     13  C   UNL     1      46.317   1.000   7.903  0.00  0.00    +0.000 C 
ATOM     14  C   UNL     1      47.549   1.432   7.120  0.00  0.00    +0.000 C 
ATOM     15  C   UNL     1      47.221   2.583   6.176  0.00  0.00    +0.000 C 
ATOM     16  C   UNL     1      46.604   3.767   6.923  0.00  0.00    +0.000 C 
ENDBRANCH  10  11
ENDBRANCH   9  10
ENDBRANCH   8   9
ENDBRANCH   4   5
BRANCH   4   3
ATOM      1  O   UNL     1      48.664   7.527  16.011  0.00  0.00    +0.000 OA
ATOM      2  C   UNL     1      49.133   7.219  14.918  0.00  0.00    +0.000 C 
ATOM      3  N   UNL     1      48.519   6.327  14.080  0.00  0.00    +0.000 N 
ATOM     29  H   UNL     1      49.022   5.970  13.275  0.00  0.00    +0.000 HD
BRANCH   2  19
ATOM     19  C   UNL     1      50.364   7.845  14.415  0.00  0.00    +0.000 A 
ATOM     20  C   UNL     1      51.537   7.731  15.151  0.00  0.00    +0.000 A 
ATOM     21  S   UNL     1      52.871   8.515  14.437  0.00  0.00    +0.000 S 
ATOM     22  C   UNL     1      51.942   8.995  13.095  0.00  0.00    +0.000 A 
ATOM     23  N   UNL     1      52.501   9.684  12.063  0.00  0.00    +0.000 NA
ATOM     24  C   UNL     1      51.688   9.945  11.096  0.00  0.00    +0.000 A 
ATOM     25  N   UNL     1      50.364   9.595  11.068  0.00  0.00    +0.000 N 
ATOM     26  C   UNL     1      49.738   8.973  12.120  0.00  0.00    +0.000 A 
ATOM     27  O   UNL     1      48.523   8.803  12.124  0.00  0.00    +0.000 OA
ATOM     28  C   UNL     1      50.620   8.605  13.211  0.00  0.00    +0.000 A 
ATOM     31  H   UNL     1      49.777   9.862  10.294  0.00  0.00    +0.000 HD
ENDBRANCH   2  19
ENDBRANCH   4   3
TORSDOF 6
ENDMDL
MODEL 7
REMARK VINA RESULT:    -7.252      2.606      3.220
REMARK INTER + INTRA:         -11.094
REMARK INTER:                 -10.589
REMARK INTRA:                  -0.505
REMARK UNBOUND:                -1.297
REMARK  Name = 
REMARK  6 active torsions:
REMARK  status: ('A' for Active; 'I' for Inactive)
REMARK    1  A    between atoms: C_2  and  C_19
REMARK    2  A    between atoms: N_3  and  C_4
REMARK    3  A    between atoms: C_4  and  C_5
REMARK    4  A    between atoms: C_8  and  C_9
REMARK    5  A    between atoms: C_9  and  N_10
REMARK    6  A    between atoms: N_10  and  C_11
REMARK                            x       y       z     vdW  Elec       q    Type
REMARK                         _______ _______ _______ _____ _____    ______ ____
ROOT
ATOM      4  C   UNL     1      47.180   4.312  14.931  0.00  0.00    +0.000 C 
ENDROOT
BRANCH   4   5
ATOM      5  C   UNL     1      46.474   4.395  13.603  0.00  0.00    +0.000 A 
ATOM      6  C   UNL     1      45.792   3.281  13.094  0.00  0.00    +0.000 A 
ATOM      7  C   UNL     1      45.110   3.361  11.878  0.00  0.00    +0.000 A 
ATOM      8  C   UNL     1      45.104   4.552  11.141  0.00  0.00    +0.000 A 
ATOM     17  C   UNL     1      45.813   5.656  11.639  0.00  0.00    +0.000 A 
ATOM     18  C   UNL     1      46.498   5.576  12.854  0.00  0.00    +0.000 A 
BRANCH   8   9
ATOM      9  C   UNL     1      44.375   4.643   9.821  0.00  0.00    +0.000 C 
BRANCH   9  10
ATOM     10  N   UNL     1      45.298   4.831   8.700  0.00  0.00    +0.000 NA
ATOM     30  H   UNL     1      46.179   5.202   9.057  0.00  0.00    +0.000 HD
BRANCH  10  11
ATOM     11  C   UNL     1      45.538   3.603   7.927  0.00  0.00    +0.000 C 
ATOM     12  C   UNL     1      45.766   2.368   8.819  0.00  0.00    +0.000 C 
ATOM     13  C   UNL     1      46.147   1.132   8.009  0.00  0.00    +0.000 C 
ATOM     14  C   UNL     1      47.367   1.392   7.138  0.00  0.00    +0.000 C 
ATOM     15  C   UNL     1      47.141   2.590   6.223  0.00  0.00    +0.000 C 
ATOM     16  C   UNL     1      46.758   3.841   7.016  0.00  0.00    +0.000 C 
ENDBRANCH  10  11
ENDBRANCH   9  10
ENDBRANCH   8   9
ENDBRANCH   4   5
BRANCH   4   3
ATOM      1  O   UNL     1      49.395   4.962  16.529  0.00  0.00    +0.000 OA
ATOM      2  C   UNL     1      48.624   5.858  16.193  0.00  0.00    +0.000 C 
ATOM      3  N   UNL     1      47.502   5.618  15.445  0.00  0.00    +0.000 N 
ATOM     29  H   UNL     1      46.993   6.398  15.044  0.00  0.00    +0.000 HD
BRANCH   2  19
ATOM     19  C   UNL     1      48.830   7.245  16.632  0.00  0.00    +0.000 A 
ATOM     20  C   UNL     1      49.487   8.135  15.792  0.00  0.00    +0.000 A 
ATOM     21  S   UNL     1      49.651   9.700  16.448  0.00  0.00    +0.000 S 
ATOM     22  C   UNL     1      48.810   9.257  17.860  0.00  0.00    +0.000 A 
ATOM     23  N   UNL     1      48.558  10.165  18.841  0.00  0.00    +0.000 NA
ATOM     24  C   UNL     1      47.875   9.700  19.832  0.00  0.00    +0.000 A 
ATOM     25  N   UNL     1      47.432   8.408  19.942  0.00  0.00    +0.000 N 
ATOM     26  C   UNL     1      47.732   7.439  19.017  0.00  0.00    +0.000 A 
ATOM     27  O   UNL     1      47.443   6.263  19.215  0.00  0.00    +0.000 OA
ATOM     28  C   UNL     1      48.449   7.922  17.853  0.00  0.00    +0.000 A 
ATOM     31  H   UNL     1      46.932   8.103  20.762  0.00  0.00    +0.000 HD
ENDBRANCH   2  19
ENDBRANCH   4   3
TORSDOF 6
ENDMDL
MODEL 8
REMARK VINA RESULT:    -7.242      1.879      2.684
REMARK INTER + INTRA:         -11.079
REMARK INTER:                 -10.292
REMARK INTRA:                  -0.787
REMARK UNBOUND:                -1.297
REMARK  Name = 
REMARK  6 active torsions:
REMARK  status: ('A' for Active; 'I' for Inactive)
REMARK    1  A    between atoms: C_2  and  C_19
REMARK    2  A    between atoms: N_3  and  C_4
REMARK    3  A    between atoms: C_4  and  C_5
REMARK    4  A    between atoms: C_8  and  C_9
REMARK    5  A    between atoms: C_9  and  N_10
REMARK    6  A    between atoms: N_10  and  C_11
REMARK                            x       y       z     vdW  Elec       q    Type
REMARK                         _______ _______ _______ _____ _____    ______ ____
ROOT
ATOM      4  C   UNL     1      47.532   6.686  13.598  0.00  0.00    +0.000 C 
ENDROOT
BRANCH   4   5
ATOM      5  C   UNL     1      46.609   5.781  12.827  0.00  0.00    +0.000 A 
ATOM      6  C   UNL     1      45.992   6.234  11.653  0.00  0.00    +0.000 A 
ATOM      7  C   UNL     1      45.159   5.390  10.916  0.00  0.00    +0.000 A 
ATOM      8  C   UNL     1      44.918   4.077  11.343  0.00  0.00    +0.000 A 
ATOM     17  C   UNL     1      45.513   3.636  12.534  0.00  0.00    +0.000 A 
ATOM     18  C   UNL     1      46.343   4.481  13.273  0.00  0.00    +0.000 A 
BRANCH   8   9
ATOM      9  C   UNL     1      44.011   3.160  10.555  0.00  0.00    +0.000 C 
BRANCH   9  10
ATOM     10  N   UNL     1      44.192   3.321   9.112  0.00  0.00    +0.000 NA
ATOM     30  H   UNL     1      44.026   4.297   8.865  0.00  0.00    +0.000 HD
BRANCH  10  11
ATOM     11  C   UNL     1      45.517   2.894   8.636  0.00  0.00    +0.000 C 
ATOM     12  C   UNL     1      45.952   3.618   7.347  0.00  0.00    +0.000 C 
ATOM     13  C   UNL     1      47.263   3.070   6.791  0.00  0.00    +0.000 C 
ATOM     14  C   UNL     1      47.186   1.568   6.559  0.00  0.00    +0.000 C 
ATOM     15  C   UNL     1      46.792   0.836   7.837  0.00  0.00    +0.000 C 
ATOM     16  C   UNL     1      45.479   1.371   8.410  0.00  0.00    +0.000 C 
ENDBRANCH  10  11
ENDBRANCH   9  10
ENDBRANCH   8   9
ENDBRANCH   4   5
BRANCH   4   3
ATOM      1  O   UNL     1      48.874   7.961  15.710  0.00  0.00    +0.000 OA
ATOM      2  C   UNL     1      48.625   6.761  15.804  0.00  0.00    +0.000 C 
ATOM      3  N   UNL     1      48.007   6.059  14.805  0.00  0.00    +0.000 N 
ATOM     29  H   UNL     1      47.664   5.123  14.990  0.00  0.00    +0.000 HD
BRANCH   2  19
ATOM     19  C   UNL     1      49.038   5.989  16.985  0.00  0.00    +0.000 A 
ATOM     20  C   UNL     1      48.070   5.485  17.843  0.00  0.00    +0.000 A 
ATOM     21  S   UNL     1      48.711   4.619  19.164  0.00  0.00    +0.000 S 
ATOM     22  C   UNL     1      50.304   4.847  18.612  0.00  0.00    +0.000 A 
ATOM     23  N   UNL     1      51.362   4.309  19.277  0.00  0.00    +0.000 NA
ATOM     24  C   UNL     1      52.506   4.527  18.722  0.00  0.00    +0.000 A 
ATOM     25  N   UNL     1      52.695   5.245  17.570  0.00  0.00    +0.000 N 
ATOM     26  C   UNL     1      51.668   5.873  16.911  0.00  0.00    +0.000 A 
ATOM     27  O   UNL     1      51.888   6.625  15.967  0.00  0.00    +0.000 OA
ATOM     28  C   UNL     1      50.352   5.613  17.461  0.00  0.00    +0.000 A 
ATOM     31  H   UNL     1      53.622   5.405  17.210  0.00  0.00    +0.000 HD
ENDBRANCH   2  19
ENDBRANCH   4   3
TORSDOF 6
ENDMDL
MODEL 9
REMARK VINA RESULT:    -7.134      4.098      8.999
REMARK INTER + INTRA:         -10.934
REMARK INTER:                  -9.964
REMARK INTRA:                  -0.970
REMARK UNBOUND:                -1.297
REMARK  Name = 
REMARK  6 active torsions:
REMARK  status: ('A' for Active; 'I' for Inactive)
REMARK    1  A    between atoms: C_2  and  C_19
REMARK    2  A    between atoms: N_3  and  C_4
REMARK    3  A    between atoms: C_4  and  C_5
REMARK    4  A    between atoms: C_8  and  C_9
REMARK    5  A    between atoms: C_9  and  N_10
REMARK    6  A    between atoms: N_10  and  C_11
REMARK                            x       y       z     vdW  Elec       q    Type
REMARK                         _______ _______ _______ _____ _____    ______ ____
ROOT
ATOM      4  C   UNL     1      47.143   3.360  16.829  0.00  0.00    +0.000 C 
ENDROOT
BRANCH   4   5
ATOM      5  C   UNL     1      48.611   3.423  17.156  0.00  0.00    +0.000 A 
ATOM      6  C   UNL     1      49.197   4.633  17.551  0.00  0.00    +0.000 A 
ATOM      7  C   UNL     1      50.551   4.691  17.885  0.00  0.00    +0.000 A 
ATOM      8  C   UNL     1      51.351   3.543  17.822  0.00  0.00    +0.000 A 
ATOM     17  C   UNL     1      50.768   2.339  17.398  0.00  0.00    +0.000 A 
ATOM     18  C   UNL     1      49.414   2.281  17.060  0.00  0.00    +0.000 A 
BRANCH   8   9
ATOM      9  C   UNL     1      52.819   3.599  18.175  0.00  0.00    +0.000 C 
BRANCH   9  10
ATOM     10  N   UNL     1      53.208   2.508  19.068  0.00  0.00    +0.000 NA
ATOM     30  H   UNL     1      52.371   1.996  19.349  0.00  0.00    +0.000 HD
BRANCH  10  11
ATOM     11  C   UNL     1      54.192   1.588  18.477  0.00  0.00    +0.000 C 
ATOM     12  C   UNL     1      54.858   2.157  17.210  0.00  0.00    +0.000 C 
ATOM     13  C   UNL     1      55.774   1.142  16.532  0.00  0.00    +0.000 C 
ATOM     14  C   UNL     1      55.034  -0.149  16.211  0.00  0.00    +0.000 C 
ATOM     15  C   UNL     1      54.401  -0.742  17.464  0.00  0.00    +0.000 C 
ATOM     16  C   UNL     1      53.478   0.261  18.158  0.00  0.00    +0.000 C 
ENDBRANCH  10  11
ENDBRANCH   9  10
ENDBRANCH   8   9
ENDBRANCH   4   5
BRANCH   4   3
ATOM      1  O   UNL     1      47.231   3.035  14.041  0.00  0.00    +0.000 OA
ATOM      2  C   UNL     1      46.815   4.096  14.501  0.00  0.00    +0.000 C 
ATOM      3  N   UNL     1      46.774   4.348  15.846  0.00  0.00    +0.000 N 
ATOM     29  H   UNL     1      46.266   5.155  16.188  0.00  0.00    +0.000 HD
BRANCH   2  19
ATOM     19  C   UNL     1      46.392   5.193  13.619  0.00  0.00    +0.000 A 
ATOM     20  C   UNL     1      47.274   6.231  13.350  0.00  0.00    +0.000 A 
ATOM     21  S   UNL     1      46.631   7.425  12.317  0.00  0.00    +0.000 S 
ATOM     22  C   UNL     1      45.165   6.575  12.155  0.00  0.00    +0.000 A 
ATOM     23  N   UNL     1      44.169   7.039  11.354  0.00  0.00    +0.000 NA
ATOM     24  C   UNL     1      43.133   6.272  11.295  0.00  0.00    +0.000 A 
ATOM     25  N   UNL     1      42.993   5.090  11.974  0.00  0.00    +0.000 N 
ATOM     26  C   UNL     1      43.937   4.624  12.856  0.00  0.00    +0.000 A 
ATOM     27  O   UNL     1      43.719   3.639  13.554  0.00  0.00    +0.000 OA
ATOM     28  C   UNL     1      45.147   5.420  12.916  0.00  0.00    +0.000 A 
ATOM     31  H   UNL     1      42.140   4.557  11.908  0.00  0.00    +0.000 HD
ENDBRANCH   2  19
ENDBRANCH   4   3
TORSDOF 6
ENDMDL
