MODEL 1
REMARK VINA RESULT:    -8.105      0.000      0.000
REMARK INTER + INTRA:         -12.749
REMARK INTER:                 -11.422
REMARK INTRA:                  -1.327
REMARK UNBOUND:                -1.327
REMARK  Name = 
REMARK  8 active torsions:
REMARK  status: ('A' for Active; 'I' for Inactive)
REMARK    1  A    between atoms: C_1  and  C_2
REMARK    2  A    between atoms: C_2  and  N_3
REMARK    3  A    between atoms: N_3  and  C_4
REMARK    4  A    between atoms: N_3  and  C_25
REMARK    5  A    between atoms: C_4  and  C_5
REMARK    6  A    between atoms: C_8  and  C_9
REMARK    7  A    between atoms: C_9  and  N_10
REMARK    8  A    between atoms: C_11  and  C_13
REMARK                            x       y       z     vdW  Elec       q    Type
REMARK                         _______ _______ _______ _____ _____    ______ ____
ROOT
ATOM      5  C   UNL     1      44.797   5.690  10.570  0.00  0.00    +0.000 A 
ATOM      6  C   UNL     1      44.151   6.257  11.682  0.00  0.00    +0.000 A 
ATOM      7  C   UNL     1      44.858   7.063  12.601  0.00  0.00    +0.000 A 
ATOM      8  C   UNL     1      46.241   7.244  12.466  0.00  0.00    +0.000 A 
ATOM     23  C   UNL     1      46.888   6.627  11.393  0.00  0.00    +0.000 A 
ATOM     24  C   UNL     1      46.167   5.935  10.420  0.00  0.00    +0.000 A 
ENDROOT
BRANCH   5   4
ATOM      4  C   UNL     1      44.088   4.731   9.619  0.00  0.00    +0.000 C 
BRANCH   4   3
ATOM      3  N   UNL     1      44.402   3.280   9.718  0.00  0.00    +0.000 NA
BRANCH   3  25
ATOM     25  C   UNL     1      45.653   2.930   8.912  0.00  0.00    +0.000 C 
ATOM     26  C   UNL     1      45.833   3.785   7.625  0.00  0.00    +0.000 C 
ATOM     27  C   UNL     1      46.952   3.322   6.686  0.00  0.00    +0.000 C 
ATOM     28  C   UNL     1      46.812   1.852   6.331  0.00  0.00    +0.000 C 
ATOM     29  C   UNL     1      46.845   1.026   7.601  0.00  0.00    +0.000 C 
ATOM     30  C   UNL     1      45.705   1.415   8.539  0.00  0.00    +0.000 C 
ENDBRANCH   3  25
BRANCH   3   2
ATOM      1  C   UNL     1      43.405   2.668  12.074  0.00  0.00    +0.000 C 
ATOM      2  C   UNL     1      44.581   2.802  11.112  0.00  0.00    +0.000 C 
ENDBRANCH   3   2
ENDBRANCH   4   3
ENDBRANCH   5   4
BRANCH   8   9
ATOM      9  C   UNL     1      47.068   8.094  13.403  0.00  0.00    +0.000 C 
BRANCH   9  10
ATOM     10  N   UNL     1      47.517   7.348  14.548  0.00  0.00    +0.000 N 
ATOM     11  C   UNL     1      48.788   6.851  14.638  0.00  0.00    +0.000 C 
ATOM     12  O   UNL     1      49.636   7.012  13.763  0.00  0.00    +0.000 OA
ATOM     31  H   UNL     1      46.789   6.900  15.095  0.00  0.00    +0.000 HD
BRANCH  11  13
ATOM     13  C   UNL     1      49.101   6.178  15.899  0.00  0.00    +0.000 A 
ATOM     14  C   UNL     1      50.135   6.642  16.703  0.00  0.00    +0.000 A 
ATOM     15  S   UNL     1      50.287   5.784  18.171  0.00  0.00    +0.000 S 
ATOM     16  C   UNL     1      49.011   4.737  17.760  0.00  0.00    +0.000 A 
ATOM     17  N   UNL     1      48.622   3.726  18.596  0.00  0.00    +0.000 NA
ATOM     18  C   UNL     1      47.641   3.028  18.159  0.00  0.00    +0.000 A 
ATOM     19  N   UNL     1      47.000   3.214  16.971  0.00  0.00    +0.000 N 
ATOM     20  C   UNL     1      47.359   4.207  16.084  0.00  0.00    +0.000 A 
ATOM     21  O   UNL     1      46.767   4.354  15.016  0.00  0.00    +0.000 OA
ATOM     22  C   UNL     1      48.470   5.051  16.529  0.00  0.00    +0.000 A 
ATOM     32  H   UNL     1      46.242   2.624  16.679  0.00  0.00    +0.000 HD
ENDBRANCH  11  13
ENDBRANCH   9  10
ENDBRANCH   8   9
TORSDOF 7
ENDMDL
MODEL 2
REMARK VINA RESULT:    -8.085      0.425      1.336
REMARK INTER + INTRA:         -12.721
REMARK INTER:                 -11.312
REMARK INTRA:                  -1.409
REMARK UNBOUND:                -1.327
REMARK  Name = 
REMARK  8 active torsions:
REMARK  status: ('A' for Active; 'I' for Inactive)
REMARK    1  A    between atoms: C_1  and  C_2
REMARK    2  A    between atoms: C_2  and  N_3
REMARK    3  A    between atoms: N_3  and  C_4
REMARK    4  A    between atoms: N_3  and  C_25
REMARK    5  A    between atoms: C_4  and  C_5
REMARK    6  A    between atoms: C_8  and  C_9
REMARK    7  A    between atoms: C_9  and  N_10
REMARK    8  A    between atoms: C_11  and  C_13
REMARK                            x       y       z     vdW  Elec       q    Type
REMARK                         _______ _______ _______ _____ _____    ______ ____
ROOT
ATOM      5  C   UNL     1      44.968   5.855  10.812  0.00  0.00    +0.000 A 
ATOM      6  C   UNL     1      46.355   6.002  10.646  0.00  0.00    +0.000 A 
ATOM      7  C   UNL     1      47.123   6.751  11.564  0.00  0.00    +0.000 A 
ATOM      8  C   UNL     1      46.499   7.436  12.616  0.00  0.00    +0.000 A 
ATOM     23  C   UNL     1      45.111   7.336  12.740  0.00  0.00    +0.000 A 
ATOM     24  C   UNL     1      44.373   6.496  11.906  0.00  0.00    +0.000 A 
ENDROOT
BRANCH   5   4
ATOM      4  C   UNL     1      44.096   5.142   9.784  0.00  0.00    +0.000 C 
BRANCH   4   3
ATOM      3  N   UNL     1      44.014   3.658   9.839  0.00  0.00    +0.000 NA
BRANCH   3  25
ATOM     25  C   UNL     1      44.694   3.022   8.627  0.00  0.00    +0.000 C 
ATOM     26  C   UNL     1      45.523   1.749   8.965  0.00  0.00    +0.000 C 
ATOM     27  C   UNL     1      46.387   1.210   7.820  0.00  0.00    +0.000 C 
ATOM     28  C   UNL     1      47.284   2.290   7.241  0.00  0.00    +0.000 C 
ATOM     29  C   UNL     1      46.428   3.432   6.732  0.00  0.00    +0.000 C 
ATOM     30  C   UNL     1      45.596   4.039   7.859  0.00  0.00    +0.000 C 
ENDBRANCH   3  25
BRANCH   3   2
ATOM      1  C   UNL     1      43.746   2.826  12.320  0.00  0.00    +0.000 C 
ATOM      2  C   UNL     1      44.592   3.073  11.074  0.00  0.00    +0.000 C 
ENDBRANCH   3   2
ENDBRANCH   4   3
ENDBRANCH   5   4
BRANCH   8   9
ATOM      9  C   UNL     1      47.249   8.254  13.643  0.00  0.00    +0.000 C 
BRANCH   9  10
ATOM     10  N   UNL     1      47.654   7.458  14.770  0.00  0.00    +0.000 N 
ATOM     11  C   UNL     1      48.891   6.879  14.842  0.00  0.00    +0.000 C 
ATOM     12  O   UNL     1      49.743   7.002  13.965  0.00  0.00    +0.000 OA
ATOM     31  H   UNL     1      46.901   7.048  15.313  0.00  0.00    +0.000 HD
BRANCH  11  13
ATOM     13  C   UNL     1      49.166   6.163  16.088  0.00  0.00    +0.000 A 
ATOM     14  C   UNL     1      50.178   6.596  16.936  0.00  0.00    +0.000 A 
ATOM     15  S   UNL     1      50.287   5.688  18.378  0.00  0.00    +0.000 S 
ATOM     16  C   UNL     1      49.019   4.660  17.896  0.00  0.00    +0.000 A 
ATOM     17  N   UNL     1      48.604   3.623  18.686  0.00  0.00    +0.000 NA
ATOM     18  C   UNL     1      47.633   2.944  18.199  0.00  0.00    +0.000 A 
ATOM     19  N   UNL     1      47.027   3.172  17.000  0.00  0.00    +0.000 N 
ATOM     20  C   UNL     1      47.414   4.193  16.157  0.00  0.00    +0.000 A 
ATOM     21  O   UNL     1      46.853   4.378  15.079  0.00  0.00    +0.000 OA
ATOM     22  C   UNL     1      48.515   5.018  16.662  0.00  0.00    +0.000 A 
ATOM     32  H   UNL     1      46.276   2.596  16.667  0.00  0.00    +0.000 HD
ENDBRANCH  11  13
ENDBRANCH   9  10
ENDBRANCH   8   9
TORSDOF 7
ENDMDL
MODEL 3
REMARK VINA RESULT:    -7.710      2.436      3.110
REMARK INTER + INTRA:         -12.193
REMARK INTER:                 -10.982
REMARK INTRA:                  -1.211
REMARK UNBOUND:                -1.327
REMARK  Name = 
REMARK  8 active torsions:
REMARK  status: ('A' for Active; 'I' for Inactive)
REMARK    1  A    between atoms: C_1  and  C_2
REMARK    2  A    between atoms: C_2  and  N_3
REMARK    3  A    between atoms: N_3  and  C_4
REMARK    4  A    between atoms: N_3  and  C_25
REMARK    5  A    between atoms: C_4  and  C_5
REMARK    6  A    between atoms: C_8  and  C_9
REMARK    7  A    between atoms: C_9  and  N_10
REMARK    8  A    between atoms: C_11  and  C_13
REMARK                            x       y       z     vdW  Elec       q    Type
REMARK                         _______ _______ _______ _____ _____    ______ ____
ROOT
ATOM      5  C   UNL     1      46.134   4.860  12.754  0.00  0.00    +0.000 A 
ATOM      6  C   UNL     1      46.446   4.378  14.037  0.00  0.00    +0.000 A 
ATOM      7  C   UNL     1      47.296   5.104  14.899  0.00  0.00    +0.000 A 
ATOM      8  C   UNL     1      47.914   6.282  14.459  0.00  0.00    +0.000 A 
ATOM     23  C   UNL     1      47.648   6.724  13.160  0.00  0.00    +0.000 A 
ATOM     24  C   UNL     1      46.713   6.072  12.356  0.00  0.00    +0.000 A 
ENDROOT
BRANCH   5   4
ATOM      4  C   UNL     1      45.307   4.052  11.761  0.00  0.00    +0.000 C 
BRANCH   4   3
ATOM      3  N   UNL     1      44.771   4.748  10.560  0.00  0.00    +0.000 NA
BRANCH   3  25
ATOM     25  C   UNL     1      44.895   3.872   9.313  0.00  0.00    +0.000 C 
ATOM     26  C   UNL     1      45.221   2.382   9.619  0.00  0.00    +0.000 C 
ATOM     27  C   UNL     1      45.560   1.524   8.396  0.00  0.00    +0.000 C 
ATOM     28  C   UNL     1      46.667   2.149   7.564  0.00  0.00    +0.000 C 
ATOM     29  C   UNL     1      46.232   3.528   7.109  0.00  0.00    +0.000 C 
ATOM     30  C   UNL     1      45.943   4.435   8.302  0.00  0.00    +0.000 C 
ENDBRANCH   3  25
BRANCH   3   2
ATOM      1  C   UNL     1      42.635   5.138  12.044  0.00  0.00    +0.000 C 
ATOM      2  C   UNL     1      43.359   5.182  10.701  0.00  0.00    +0.000 C 
ENDBRANCH   3   2
ENDBRANCH   4   3
ENDBRANCH   5   4
BRANCH   8   9
ATOM      9  C   UNL     1      48.832   7.118  15.321  0.00  0.00    +0.000 C 
BRANCH   9  10
ATOM     10  N   UNL     1      49.920   6.343  15.854  0.00  0.00    +0.000 N 
ATOM     11  C   UNL     1      49.921   5.884  17.142  0.00  0.00    +0.000 C 
ATOM     12  O   UNL     1      49.001   6.088  17.930  0.00  0.00    +0.000 OA
ATOM     31  H   UNL     1      50.813   6.456  15.385  0.00  0.00    +0.000 HD
BRANCH  11  13
ATOM     13  C   UNL     1      51.070   5.051  17.500  0.00  0.00    +0.000 A 
ATOM     14  C   UNL     1      52.240   5.636  17.971  0.00  0.00    +0.000 A 
ATOM     15  S   UNL     1      53.432   4.500  18.419  0.00  0.00    +0.000 S 
ATOM     16  C   UNL     1      52.446   3.193  17.956  0.00  0.00    +0.000 A 
ATOM     17  N   UNL     1      52.878   1.900  18.064  0.00  0.00    +0.000 NA
ATOM     18  C   UNL     1      52.023   1.024  17.689  0.00  0.00    +0.000 A 
ATOM     19  N   UNL     1      50.777   1.286  17.203  0.00  0.00    +0.000 N 
ATOM     20  C   UNL     1      50.295   2.570  17.058  0.00  0.00    +0.000 A 
ATOM     21  O   UNL     1      49.167   2.782  16.615  0.00  0.00    +0.000 OA
ATOM     22  C   UNL     1      51.221   3.622  17.482  0.00  0.00    +0.000 A 
ATOM     32  H   UNL     1      50.156   0.553  16.914  0.00  0.00    +0.000 HD
ENDBRANCH  11  13
ENDBRANCH   9  10
ENDBRANCH   8   9
TORSDOF 7
ENDMDL
MODEL 4
REMARK VINA RESULT:    -7.196      4.446      9.275
REMARK INTER + INTRA:         -11.468
REMARK INTER:                 -10.231
REMARK INTRA:                  -1.237
REMARK UNBOUND:                -1.327
REMARK  Name = 
REMARK  8 active torsions:
REMARK  status: ('A' for Active; 'I' for Inactive)
REMARK    1  A    between atoms: C_1  and  C_2
REMARK    2  A    between atoms: C_2  and  N_3
REMARK    3  A    between atoms: N_3  and  C_4
REMARK    4  A    between atoms: N_3  and  C_25
REMARK    5  A    between atoms: C_4  and  C_5
REMARK    6  A    between atoms: C_8  and  C_9
REMARK    7  A    between atoms: C_9  and  N_10
REMARK    8  A    between atoms: C_11  and  C_13
REMARK                            x       y       z     vdW  Elec       q    Type
REMARK                         _______ _______ _______ _____ _____    ______ ____
ROOT
ATOM      5  C   UNL     1      51.415   3.298  17.752  0.00  0.00    +0.000 A 
ATOM      6  C   UNL     1      50.715   4.513  17.847  0.00  0.00    +0.000 A 
ATOM      7  C   UNL     1      49.331   4.577  17.572  0.00  0.00    +0.000 A 
ATOM      8  C   UNL     1      48.646   3.444  17.116  0.00  0.00    +0.000 A 
ATOM     23  C   UNL     1      49.361   2.253  16.966  0.00  0.00    +0.000 A 
ATOM     24  C   UNL     1      50.698   2.163  17.355  0.00  0.00    +0.000 A 
ENDROOT
BRANCH   5   4
ATOM      4  C   UNL     1      52.926   3.214  17.939  0.00  0.00    +0.000 C 
BRANCH   4   3
ATOM      3  N   UNL     1      53.459   2.257  18.946  0.00  0.00    +0.000 NA
BRANCH   3  25
ATOM     25  C   UNL     1      54.466   1.295  18.316  0.00  0.00    +0.000 C 
ATOM     26  C   UNL     1      54.934   1.716  16.893  0.00  0.00    +0.000 C 
ATOM     27  C   UNL     1      55.775   0.674  16.148  0.00  0.00    +0.000 C 
ATOM     28  C   UNL     1      55.078  -0.675  16.100  0.00  0.00    +0.000 C 
ATOM     29  C   UNL     1      54.818  -1.154  17.514  0.00  0.00    +0.000 C 
ATOM     30  C   UNL     1      53.930  -0.171  18.272  0.00  0.00    +0.000 C 
ENDBRANCH   3  25
BRANCH   3   2
ATOM      1  C   UNL     1      54.184   4.432  20.235  0.00  0.00    +0.000 C 
ATOM      2  C   UNL     1      54.092   2.913  20.117  0.00  0.00    +0.000 C 
ENDBRANCH   3   2
ENDBRANCH   4   3
ENDBRANCH   5   4
BRANCH   8   9
ATOM      9  C   UNL     1      47.166   3.430  16.805  0.00  0.00    +0.000 C 
BRANCH   9  10
ATOM     10  N   UNL     1      46.816   4.424  15.827  0.00  0.00    +0.000 N 
ATOM     11  C   UNL     1      46.884   4.176  14.484  0.00  0.00    +0.000 C 
ATOM     12  O   UNL     1      47.235   3.095  14.017  0.00  0.00    +0.000 OA
ATOM     31  H   UNL     1      46.872   5.388  16.139  0.00  0.00    +0.000 HD
BRANCH  11  13
ATOM     13  C   UNL     1      46.424   5.271  13.629  0.00  0.00    +0.000 A 
ATOM     14  C   UNL     1      47.258   6.352  13.367  0.00  0.00    +0.000 A 
ATOM     15  S   UNL     1      46.581   7.481  12.281  0.00  0.00    +0.000 S 
ATOM     16  C   UNL     1      45.137   6.589  12.161  0.00  0.00    +0.000 A 
ATOM     17  N   UNL     1      44.097   7.018  11.383  0.00  0.00    +0.000 NA
ATOM     18  C   UNL     1      43.081   6.238  11.382  0.00  0.00    +0.000 A 
ATOM     19  N   UNL     1      42.973   5.073  12.081  0.00  0.00    +0.000 N 
ATOM     20  C   UNL     1      43.983   4.600  12.891  0.00  0.00    +0.000 A 
ATOM     21  O   UNL     1      43.862   3.546  13.513  0.00  0.00    +0.000 OA
ATOM     22  C   UNL     1      45.182   5.442  12.928  0.00  0.00    +0.000 A 
ATOM     32  H   UNL     1      42.143   4.509  12.046  0.00  0.00    +0.000 HD
ENDBRANCH  11  13
ENDBRANCH   9  10
ENDBRANCH   8   9
TORSDOF 7
ENDMDL
MODEL 5
REMARK VINA RESULT:    -7.084      2.790      3.266
REMARK INTER + INTRA:         -11.310
REMARK INTER:                 -10.016
REMARK INTRA:                  -1.293
REMARK UNBOUND:                -1.327
REMARK  Name = 
REMARK  8 active torsions:
REMARK  status: ('A' for Active; 'I' for Inactive)
REMARK    1  A    between atoms: C_1  and  C_2
REMARK    2  A    between atoms: C_2  and  N_3
REMARK    3  A    between atoms: N_3  and  C_4
REMARK    4  A    between atoms: N_3  and  C_25
REMARK    5  A    between atoms: C_4  and  C_5
REMARK    6  A    between atoms: C_8  and  C_9
REMARK    7  A    between atoms: C_9  and  N_10
REMARK    8  A    between atoms: C_11  and  C_13
REMARK                            x       y       z     vdW  Elec       q    Type
REMARK                         _______ _______ _______ _____ _____    ______ ____
ROOT
ATOM      5  C   UNL     1      46.205   5.764  12.054  0.00  0.00    +0.000 A 
ATOM      6  C   UNL     1      45.841   7.081  11.723  0.00  0.00    +0.000 A 
ATOM      7  C   UNL     1      46.411   8.183  12.398  0.00  0.00    +0.000 A 
ATOM      8  C   UNL     1      47.290   7.981  13.470  0.00  0.00    +0.000 A 
ATOM     23  C   UNL     1      47.600   6.668  13.834  0.00  0.00    +0.000 A 
ATOM     24  C   UNL     1      47.133   5.586  13.088  0.00  0.00    +0.000 A 
ENDROOT
BRANCH   5   4
ATOM      4  C   UNL     1      45.534   4.551  11.420  0.00  0.00    +0.000 C 
BRANCH   4   3
ATOM      3  N   UNL     1      44.540   4.782  10.337  0.00  0.00    +0.000 NA
BRANCH   3  25
ATOM     25  C   UNL     1      44.781   3.840   9.157  0.00  0.00    +0.000 C 
ATOM     26  C   UNL     1      45.141   2.386   9.575  0.00  0.00    +0.000 C 
ATOM     27  C   UNL     1      45.595   1.472   8.431  0.00  0.00    +0.000 C 
ATOM     28  C   UNL     1      46.730   2.093   7.636  0.00  0.00    +0.000 C 
ATOM     29  C   UNL     1      46.275   3.423   7.069  0.00  0.00    +0.000 C 
ATOM     30  C   UNL     1      45.873   4.386   8.183  0.00  0.00    +0.000 C 
ENDBRANCH   3  25
BRANCH   3   2
ATOM      1  C   UNL     1      42.634   5.257  12.086  0.00  0.00    +0.000 C 
ATOM      2  C   UNL     1      43.131   4.643  10.780  0.00  0.00    +0.000 C 
ENDBRANCH   3   2
ENDBRANCH   4   3
ENDBRANCH   5   4
BRANCH   8   9
ATOM      9  C   UNL     1      47.944   9.107  14.239  0.00  0.00    +0.000 C 
BRANCH   9  10
ATOM     10  N   UNL     1      47.711   8.994  15.654  0.00  0.00    +0.000 N 
ATOM     11  C   UNL     1      48.435   9.711  16.567  0.00  0.00    +0.000 C 
ATOM     12  O   UNL     1      49.320  10.502  16.252  0.00  0.00    +0.000 OA
ATOM     31  H   UNL     1      47.272   8.133  15.961  0.00  0.00    +0.000 HD
BRANCH  11  13
ATOM     13  C   UNL     1      48.022   9.531  17.959  0.00  0.00    +0.000 A 
ATOM     14  C   UNL     1      47.590  10.620  18.708  0.00  0.00    +0.000 A 
ATOM     15  S   UNL     1      47.067  10.197  20.277  0.00  0.00    +0.000 S 
ATOM     16  C   UNL     1      47.443   8.557  20.025  0.00  0.00    +0.000 A 
ATOM     17  N   UNL     1      47.248   7.623  21.005  0.00  0.00    +0.000 NA
ATOM     18  C   UNL     1      47.565   6.429  20.667  0.00  0.00    +0.000 A 
ATOM     19  N   UNL     1      48.068   6.053  19.458  0.00  0.00    +0.000 N 
ATOM     20  C   UNL     1      48.298   6.953  18.439  0.00  0.00    +0.000 A 
ATOM     21  O   UNL     1      48.755   6.590  17.357  0.00  0.00    +0.000 OA
ATOM     22  C   UNL     1      47.944   8.339  18.757  0.00  0.00    +0.000 A 
ATOM     32  H   UNL     1      48.308   5.099  19.257  0.00  0.00    +0.000 HD
ENDBRANCH  11  13
ENDBRANCH   9  10
ENDBRANCH   8   9
TORSDOF 7
ENDMDL
MODEL 6
REMARK VINA RESULT:    -6.925      3.106      7.922
REMARK INTER + INTRA:         -11.086
REMARK INTER:                  -9.566
REMARK INTRA:                  -1.520
REMARK UNBOUND:                -1.327
REMARK  Name = 
REMARK  8 active torsions:
REMARK  status: ('A' for Active; 'I' for Inactive)
REMARK    1  A    between atoms: C_1  and  C_2
REMARK    2  A    between atoms: C_2  and  N_3
REMARK    3  A    between atoms: N_3  and  C_4
REMARK    4  A    between atoms: N_3  and  C_25
REMARK    5  A    between atoms: C_4  and  C_5
REMARK    6  A    between atoms: C_8  and  C_9
REMARK    7  A    between atoms: C_9  and  N_10
REMARK    8  A    between atoms: C_11  and  C_13
REMARK                            x       y       z     vdW  Elec       q    Type
REMARK                         _______ _______ _______ _____ _____    ______ ____
ROOT
ATOM      5  C   UNL     1      48.921   7.540  16.248  0.00  0.00    +0.000 A 
ATOM      6  C   UNL     1      48.306   8.735  15.837  0.00  0.00    +0.000 A 
ATOM      7  C   UNL     1      47.988   8.959  14.479  0.00  0.00    +0.000 A 
ATOM      8  C   UNL     1      48.357   8.026  13.501  0.00  0.00    +0.000 A 
ATOM     23  C   UNL     1      49.023   6.868  13.910  0.00  0.00    +0.000 A 
ATOM     24  C   UNL     1      49.225   6.593  15.262  0.00  0.00    +0.000 A 
ENDROOT
BRANCH   5   4
ATOM      4  C   UNL     1      49.371   7.311  17.686  0.00  0.00    +0.000 C 
BRANCH   4   3
ATOM      3  N   UNL     1      48.404   6.702  18.639  0.00  0.00    +0.000 NA
BRANCH   3  25
ATOM     25  C   UNL     1      48.443   5.176  18.565  0.00  0.00    +0.000 C 
ATOM     26  C   UNL     1      49.795   4.604  18.050  0.00  0.00    +0.000 C 
ATOM     27  C   UNL     1      49.800   3.099  17.762  0.00  0.00    +0.000 C 
ATOM     28  C   UNL     1      48.667   2.704  16.832  0.00  0.00    +0.000 C 
ATOM     29  C   UNL     1      47.344   3.094  17.460  0.00  0.00    +0.000 C 
ATOM     30  C   UNL     1      47.275   4.599  17.706  0.00  0.00    +0.000 C 
ENDBRANCH   3  25
BRANCH   3   2
ATOM      1  C   UNL     1      47.482   7.080  21.073  0.00  0.00    +0.000 C 
ATOM      2  C   UNL     1      48.612   7.119  20.048  0.00  0.00    +0.000 C 
ENDBRANCH   3   2
ENDBRANCH   4   3
ENDBRANCH   5   4
BRANCH   8   9
ATOM      9  C   UNL     1      48.050   8.190  12.030  0.00  0.00    +0.000 C 
BRANCH   9  10
ATOM     10  N   UNL     1      47.371   7.040  11.495  0.00  0.00    +0.000 N 
ATOM     11  C   UNL     1      46.009   6.991  11.378  0.00  0.00    +0.000 C 
ATOM     12  O   UNL     1      45.272   7.917  11.708  0.00  0.00    +0.000 OA
ATOM     31  H   UNL     1      47.878   6.163  11.550  0.00  0.00    +0.000 HD
BRANCH  11  13
ATOM     13  C   UNL     1      45.486   5.778  10.748  0.00  0.00    +0.000 A 
ATOM     14  C   UNL     1      45.739   5.522   9.405  0.00  0.00    +0.000 A 
ATOM     15  S   UNL     1      45.125   4.019   8.877  0.00  0.00    +0.000 S 
ATOM     16  C   UNL     1      44.463   3.684  10.408  0.00  0.00    +0.000 A 
ATOM     17  N   UNL     1      43.767   2.530  10.646  0.00  0.00    +0.000 NA
ATOM     18  C   UNL     1      43.339   2.410  11.847  0.00  0.00    +0.000 A 
ATOM     19  N   UNL     1      43.515   3.318  12.848  0.00  0.00    +0.000 N 
ATOM     20  C   UNL     1      44.195   4.503  12.661  0.00  0.00    +0.000 A 
ATOM     21  O   UNL     1      44.339   5.309  13.579  0.00  0.00    +0.000 OA
ATOM     22  C   UNL     1      44.722   4.698  11.308  0.00  0.00    +0.000 A 
ATOM     32  H   UNL     1      43.144   3.171  13.769  0.00  0.00    +0.000 HD
ENDBRANCH  11  13
ENDBRANCH   9  10
ENDBRANCH   8   9
TORSDOF 7
ENDMDL
MODEL 7
REMARK VINA RESULT:    -6.760      2.104      3.016
REMARK INTER + INTRA:         -10.853
REMARK INTER:                  -9.563
REMARK INTRA:                  -1.290
REMARK UNBOUND:                -1.327
REMARK  Name = 
REMARK  8 active torsions:
REMARK  status: ('A' for Active; 'I' for Inactive)
REMARK    1  A    between atoms: C_1  and  C_2
REMARK    2  A    between atoms: C_2  and  N_3
REMARK    3  A    between atoms: N_3  and  C_4
REMARK    4  A    between atoms: N_3  and  C_25
REMARK    5  A    between atoms: C_4  and  C_5
REMARK    6  A    between atoms: C_8  and  C_9
REMARK    7  A    between atoms: C_9  and  N_10
REMARK    8  A    between atoms: C_11  and  C_13
REMARK                            x       y       z     vdW  Elec       q    Type
REMARK                         _______ _______ _______ _____ _____    ______ ____
ROOT
ATOM      5  C   UNL     1      46.452   5.655  12.492  0.00  0.00    +0.000 A 
ATOM      6  C   UNL     1      46.937   5.435  13.793  0.00  0.00    +0.000 A 
ATOM      7  C   UNL     1      47.978   6.228  14.324  0.00  0.00    +0.000 A 
ATOM      8  C   UNL     1      48.606   7.197  13.531  0.00  0.00    +0.000 A 
ATOM     23  C   UNL     1      48.160   7.370  12.218  0.00  0.00    +0.000 A 
ATOM     24  C   UNL     1      47.052   6.672  11.738  0.00  0.00    +0.000 A 
ENDROOT
BRANCH   5   4
ATOM      4  C   UNL     1      45.404   4.752  11.852  0.00  0.00    +0.000 C 
BRANCH   4   3
ATOM      3  N   UNL     1      44.641   5.275  10.687  0.00  0.00    +0.000 NA
BRANCH   3  25
ATOM     25  C   UNL     1      44.633   4.270   9.535  0.00  0.00    +0.000 C 
ATOM     26  C   UNL     1      44.699   2.786   9.994  0.00  0.00    +0.000 C 
ATOM     27  C   UNL     1      44.906   1.764   8.871  0.00  0.00    +0.000 C 
ATOM     28  C   UNL     1      46.113   2.110   8.016  0.00  0.00    +0.000 C 
ATOM     29  C   UNL     1      45.922   3.488   7.417  0.00  0.00    +0.000 C 
ATOM     30  C   UNL     1      45.774   4.546   8.507  0.00  0.00    +0.000 C 
ENDBRANCH   3  25
BRANCH   3   2
ATOM      1  C   UNL     1      42.569   5.205  12.306  0.00  0.00    +0.000 C 
ATOM      2  C   UNL     1      43.240   5.646  11.009  0.00  0.00    +0.000 C 
ENDBRANCH   3   2
ENDBRANCH   4   3
ENDBRANCH   5   4
BRANCH   8   9
ATOM      9  C   UNL     1      49.723   8.088  14.026  0.00  0.00    +0.000 C 
BRANCH   9  10
ATOM     10  N   UNL     1      49.941   7.937  15.440  0.00  0.00    +0.000 N 
ATOM     11  C   UNL     1      51.144   7.533  15.949  0.00  0.00    +0.000 C 
ATOM     12  O   UNL     1      52.120   7.280  15.248  0.00  0.00    +0.000 OA
ATOM     31  H   UNL     1      49.109   7.786  16.001  0.00  0.00    +0.000 HD
BRANCH  11  13
ATOM     13  C   UNL     1      51.216   7.500  17.410  0.00  0.00    +0.000 A 
ATOM     14  C   UNL     1      51.688   8.603  18.113  0.00  0.00    +0.000 A 
ATOM     15  S   UNL     1      51.613   8.408  19.808  0.00  0.00    +0.000 S 
ATOM     16  C   UNL     1      50.993   6.830  19.658  0.00  0.00    +0.000 A 
ATOM     17  N   UNL     1      50.712   6.068  20.759  0.00  0.00    +0.000 NA
ATOM     18  C   UNL     1      50.241   4.908  20.491  0.00  0.00    +0.000 A 
ATOM     19  N   UNL     1      50.023   4.407  19.242  0.00  0.00    +0.000 N 
ATOM     20  C   UNL     1      50.301   5.125  18.098  0.00  0.00    +0.000 A 
ATOM     21  O   UNL     1      50.098   4.651  16.982  0.00  0.00    +0.000 OA
ATOM     22  C   UNL     1      50.834   6.469  18.335  0.00  0.00    +0.000 A 
ATOM     32  H   UNL     1      49.660   3.482  19.098  0.00  0.00    +0.000 HD
ENDBRANCH  11  13
ENDBRANCH   9  10
ENDBRANCH   8   9
TORSDOF 7
ENDMDL
MODEL 8
REMARK VINA RESULT:    -6.599      4.708      7.624
REMARK INTER + INTRA:         -10.626
REMARK INTER:                  -9.306
REMARK INTRA:                  -1.320
REMARK UNBOUND:                -1.327
REMARK  Name = 
REMARK  8 active torsions:
REMARK  status: ('A' for Active; 'I' for Inactive)
REMARK    1  A    between atoms: C_1  and  C_2
REMARK    2  A    between atoms: C_2  and  N_3
REMARK    3  A    between atoms: N_3  and  C_4
REMARK    4  A    between atoms: N_3  and  C_25
REMARK    5  A    between atoms: C_4  and  C_5
REMARK    6  A    between atoms: C_8  and  C_9
REMARK    7  A    between atoms: C_9  and  N_10
REMARK    8  A    between atoms: C_11  and  C_13
REMARK                            x       y       z     vdW  Elec       q    Type
REMARK                         _______ _______ _______ _____ _____    ______ ____
ROOT
ATOM      5  C   UNL     1      50.391   8.760  11.383  0.00  0.00    +0.000 A 
ATOM      6  C   UNL     1      49.510   9.852  11.469  0.00  0.00    +0.000 A 
ATOM      7  C   UNL     1      48.199   9.690  11.969  0.00  0.00    +0.000 A 
ATOM      8  C   UNL     1      47.723   8.417  12.310  0.00  0.00    +0.000 A 
ATOM     23  C   UNL     1      48.584   7.327  12.164  0.00  0.00    +0.000 A 
ATOM     24  C   UNL     1      49.915   7.507  11.788  0.00  0.00    +0.000 A 
ENDROOT
BRANCH   5   4
ATOM      4  C   UNL     1      51.774   8.879  10.752  0.00  0.00    +0.000 C 
BRANCH   4   3
ATOM      3  N   UNL     1      52.762   7.797  11.011  0.00  0.00    +0.000 NA
BRANCH   3  25
ATOM     25  C   UNL     1      53.382   7.292   9.708  0.00  0.00    +0.000 C 
ATOM     26  C   UNL     1      52.348   7.048   8.571  0.00  0.00    +0.000 C 
ATOM     27  C   UNL     1      52.900   6.344   7.327  0.00  0.00    +0.000 C 
ATOM     28  C   UNL     1      53.611   5.051   7.685  0.00  0.00    +0.000 C 
ATOM     29  C   UNL     1      54.748   5.353   8.641  0.00  0.00    +0.000 C 
ATOM     30  C   UNL     1      54.230   5.999   9.923  0.00  0.00    +0.000 C 
ENDBRANCH   3  25
BRANCH   3   2
ATOM      1  C   UNL     1      53.678   8.138  13.453  0.00  0.00    +0.000 C 
ATOM      2  C   UNL     1      53.851   8.192  11.938  0.00  0.00    +0.000 C 
ENDBRANCH   3   2
ENDBRANCH   4   3
ENDBRANCH   5   4
BRANCH   8   9
ATOM      9  C   UNL     1      46.336   8.161  12.855  0.00  0.00    +0.000 C 
BRANCH   9  10
ATOM     10  N   UNL     1      45.869   6.841  12.529  0.00  0.00    +0.000 N 
ATOM     11  C   UNL     1      44.785   6.634  11.720  0.00  0.00    +0.000 C 
ATOM     12  O   UNL     1      44.143   7.549  11.210  0.00  0.00    +0.000 OA
ATOM     31  H   UNL     1      46.124   6.108  13.183  0.00  0.00    +0.000 HD
BRANCH  11  13
ATOM     13  C   UNL     1      44.487   5.231  11.433  0.00  0.00    +0.000 A 
ATOM     14  C   UNL     1      43.714   4.484  12.315  0.00  0.00    +0.000 A 
ATOM     15  S   UNL     1      43.402   2.898  11.764  0.00  0.00    +0.000 S 
ATOM     16  C   UNL     1      44.326   3.142  10.356  0.00  0.00    +0.000 A 
ATOM     17  N   UNL     1      44.490   2.147   9.431  0.00  0.00    +0.000 NA
ATOM     18  C   UNL     1      45.200   2.480   8.419  0.00  0.00    +0.000 A 
ATOM     19  N   UNL     1      45.781   3.697   8.220  0.00  0.00    +0.000 N 
ATOM     20  C   UNL     1      45.661   4.730   9.125  0.00  0.00    +0.000 A 
ATOM     21  O   UNL     1      46.196   5.819   8.925  0.00  0.00    +0.000 OA
ATOM     22  C   UNL     1      44.849   4.418  10.304  0.00  0.00    +0.000 A 
ATOM     32  H   UNL     1      46.336   3.893   7.408  0.00  0.00    +0.000 HD
ENDBRANCH  11  13
ENDBRANCH   9  10
ENDBRANCH   8   9
TORSDOF 7
ENDMDL
MODEL 9
REMARK VINA RESULT:    -6.508      3.645      9.312
REMARK INTER + INTRA:         -10.499
REMARK INTER:                  -9.044
REMARK INTRA:                  -1.455
REMARK UNBOUND:                -1.327
REMARK  Name = 
REMARK  8 active torsions:
REMARK  status: ('A' for Active; 'I' for Inactive)
REMARK    1  A    between atoms: C_1  and  C_2
REMARK    2  A    between atoms: C_2  and  N_3
REMARK    3  A    between atoms: N_3  and  C_4
REMARK    4  A    between atoms: N_3  and  C_25
REMARK    5  A    between atoms: C_4  and  C_5
REMARK    6  A    between atoms: C_8  and  C_9
REMARK    7  A    between atoms: C_9  and  N_10
REMARK    8  A    between atoms: C_11  and  C_13
REMARK                            x       y       z     vdW  Elec       q    Type
REMARK                         _______ _______ _______ _____ _____    ______ ____
ROOT
ATOM      5  C   UNL     1      51.336   3.617  17.844  0.00  0.00    +0.000 A 
ATOM      6  C   UNL     1      50.804   2.399  17.385  0.00  0.00    +0.000 A 
ATOM      7  C   UNL     1      49.446   2.294  17.011  0.00  0.00    +0.000 A 
ATOM      8  C   UNL     1      48.581   3.384  17.171  0.00  0.00    +0.000 A 
ATOM     23  C   UNL     1      49.102   4.574  17.686  0.00  0.00    +0.000 A 
ATOM     24  C   UNL     1      50.467   4.712  17.937  0.00  0.00    +0.000 A 
ENDROOT
BRANCH   5   4
ATOM      4  C   UNL     1      52.767   3.739  18.354  0.00  0.00    +0.000 C 
BRANCH   4   3
ATOM      3  N   UNL     1      53.833   4.098  17.381  0.00  0.00    +0.000 NA
BRANCH   3  25
ATOM     25  C   UNL     1      54.126   5.599  17.413  0.00  0.00    +0.000 C 
ATOM     26  C   UNL     1      53.808   6.274  18.777  0.00  0.00    +0.000 C 
ATOM     27  C   UNL     1      53.888   7.805  18.782  0.00  0.00    +0.000 C 
ATOM     28  C   UNL     1      53.038   8.411  17.678  0.00  0.00    +0.000 C 
ATOM     29  C   UNL     1      53.510   7.885  16.338  0.00  0.00    +0.000 C 
ATOM     30  C   UNL     1      53.388   6.365  16.270  0.00  0.00    +0.000 C 
ENDBRANCH   3  25
BRANCH   3   2
ATOM      1  C   UNL     1      55.134   1.841  17.743  0.00  0.00    +0.000 C 
ATOM      2  C   UNL     1      55.103   3.358  17.586  0.00  0.00    +0.000 C 
ENDBRANCH   3   2
ENDBRANCH   4   3
ENDBRANCH   5   4
BRANCH   8   9
ATOM      9  C   UNL     1      47.118   3.353  16.791  0.00  0.00    +0.000 C 
BRANCH   9  10
ATOM     10  N   UNL     1      46.798   4.358  15.812  0.00  0.00    +0.000 N 
ATOM     11  C   UNL     1      46.863   4.109  14.469  0.00  0.00    +0.000 C 
ATOM     12  O   UNL     1      47.184   3.019  14.002  0.00  0.00    +0.000 OA
ATOM     31  H   UNL     1      46.881   5.320  16.125  0.00  0.00    +0.000 HD
BRANCH  11  13
ATOM     13  C   UNL     1      46.437   5.217  13.614  0.00  0.00    +0.000 A 
ATOM     14  C   UNL     1      47.300   6.277  13.360  0.00  0.00    +0.000 A 
ATOM     15  S   UNL     1      46.658   7.426  12.272  0.00  0.00    +0.000 S 
ATOM     16  C   UNL     1      45.192   6.572  12.142  0.00  0.00    +0.000 A 
ATOM     17  N   UNL     1      44.169   7.029  11.358  0.00  0.00    +0.000 NA
ATOM     18  C   UNL     1      43.133   6.275  11.349  0.00  0.00    +0.000 A 
ATOM     19  N   UNL     1      42.991   5.111  12.044  0.00  0.00    +0.000 N 
ATOM     20  C   UNL     1      43.984   4.611  12.860  0.00  0.00    +0.000 A 
ATOM     21  O   UNL     1      43.832   3.559  13.479  0.00  0.00    +0.000 OA
ATOM     22  C   UNL     1      45.203   5.421  12.906  0.00  0.00    +0.000 A 
ATOM     32  H   UNL     1      42.147   4.569  12.004  0.00  0.00    +0.000 HD
ENDBRANCH  11  13
ENDBRANCH   9  10
ENDBRANCH   8   9
TORSDOF 7
ENDMDL
