MODEL 1
REMARK VINA RESULT:    -7.803      0.000      0.000
REMARK INTER + INTRA:         -10.146
REMARK INTER:                 -10.083
REMARK INTRA:                  -0.062
REMARK UNBOUND:                -0.062
REMARK  Name = 
REMARK  5 active torsions:
REMARK  status: ('A' for Active; 'I' for Inactive)
REMARK    1  A    between atoms: C_2  and  C_18
REMARK    2  A    between atoms: N_3  and  C_4
REMARK    3  A    between atoms: C_4  and  C_5
REMARK    4  A    between atoms: C_8  and  C_9
REMARK    5  A    between atoms: C_9  and  N_10
REMARK                            x       y       z     vdW  Elec       q    Type
REMARK                         _______ _______ _______ _____ _____    ______ ____
ROOT
ATOM      1  O   UNL     1      46.651   3.322  13.807  0.00  0.00    +0.000 OA
ATOM      2  C   UNL     1      46.461   4.476  14.178  0.00  0.00    +0.000 C 
ATOM      3  N   UNL     1      45.311   5.165  13.891  0.00  0.00    +0.000 N 
ATOM     28  H   UNL     1      45.261   6.155  14.099  0.00  0.00    +0.000 HD
ENDROOT
BRANCH   2  18
ATOM     18  C   UNL     1      47.449   5.191  15.002  0.00  0.00    +0.000 A 
ATOM     19  C   UNL     1      48.185   6.231  14.454  0.00  0.00    +0.000 A 
ATOM     20  S   UNL     1      49.286   6.941  15.547  0.00  0.00    +0.000 S 
ATOM     21  C   UNL     1      48.787   5.908  16.806  0.00  0.00    +0.000 A 
ATOM     22  N   UNL     1      49.320   6.009  18.050  0.00  0.00    +0.000 NA
ATOM     23  C   UNL     1      48.813   5.204  18.920  0.00  0.00    +0.000 A 
ATOM     24  N   UNL     1      47.828   4.290  18.657  0.00  0.00    +0.000 N 
ATOM     25  C   UNL     1      47.321   4.093  17.395  0.00  0.00    +0.000 A 
ATOM     26  O   UNL     1      46.550   3.165  17.169  0.00  0.00    +0.000 OA
ATOM     27  C   UNL     1      47.815   5.017  16.389  0.00  0.00    +0.000 A 
ATOM     29  H   UNL     1      47.495   3.661  19.373  0.00  0.00    +0.000 HD
ENDBRANCH   2  18
BRANCH   3   4
ATOM      4  C   UNL     1      44.294   4.667  13.001  0.00  0.00    +0.000 C 
BRANCH   4   5
ATOM      5  C   UNL     1      44.785   4.589  11.576  0.00  0.00    +0.000 A 
ATOM      6  C   UNL     1      44.481   3.464  10.799  0.00  0.00    +0.000 A 
ATOM      7  C   UNL     1      44.890   3.384   9.466  0.00  0.00    +0.000 A 
ATOM      8  C   UNL     1      45.614   4.424   8.871  0.00  0.00    +0.000 A 
ATOM     16  C   UNL     1      45.962   5.529   9.666  0.00  0.00    +0.000 A 
ATOM     17  C   UNL     1      45.559   5.608  11.006  0.00  0.00    +0.000 A 
BRANCH   8   9
ATOM      9  C   UNL     1      46.080   4.311   7.436  0.00  0.00    +0.000 C 
BRANCH   9  10
ATOM     10  N   UNL     1      46.042   3.010   6.771  0.00  0.00    +0.000 NA
ATOM     11  C   UNL     1      46.576   1.868   7.517  0.00  0.00    +0.000 C 
ATOM     12  C   UNL     1      48.057   1.564   7.241  0.00  0.00    +0.000 C 
ATOM     13  O   UNL     1      48.308   1.413   5.838  0.00  0.00    +0.000 OA
ATOM     14  C   UNL     1      47.925   2.591   5.120  0.00  0.00    +0.000 C 
ATOM     15  C   UNL     1      46.453   2.961   5.365  0.00  0.00    +0.000 C 
ENDBRANCH   9  10
ENDBRANCH   8   9
ENDBRANCH   4   5
ENDBRANCH   3   4
TORSDOF 5
ENDMDL
MODEL 2
REMARK VINA RESULT:    -7.623      4.278      9.020
REMARK INTER + INTRA:          -9.914
REMARK INTER:                  -9.656
REMARK INTRA:                  -0.258
REMARK UNBOUND:                -0.062
REMARK  Name = 
REMARK  5 active torsions:
REMARK  status: ('A' for Active; 'I' for Inactive)
REMARK    1  A    between atoms: C_2  and  C_18
REMARK    2  A    between atoms: N_3  and  C_4
REMARK    3  A    between atoms: C_4  and  C_5
REMARK    4  A    between atoms: C_8  and  C_9
REMARK    5  A    between atoms: C_9  and  N_10
REMARK                            x       y       z     vdW  Elec       q    Type
REMARK                         _______ _______ _______ _____ _____    ______ ____
ROOT
ATOM      1  O   UNL     1      47.222   3.032  14.105  0.00  0.00    +0.000 OA
ATOM      2  C   UNL     1      46.814   4.101  14.548  0.00  0.00    +0.000 C 
ATOM      3  N   UNL     1      46.763   4.373  15.891  0.00  0.00    +0.000 N 
ATOM     28  H   UNL     1      46.291   5.211  16.208  0.00  0.00    +0.000 HD
ENDROOT
BRANCH   2  18
ATOM     18  C   UNL     1      46.387   5.189  13.655  0.00  0.00    +0.000 A 
ATOM     19  C   UNL     1      47.263   6.221  13.353  0.00  0.00    +0.000 A 
ATOM     20  S   UNL     1      46.601   7.398  12.310  0.00  0.00    +0.000 S 
ATOM     21  C   UNL     1      45.131   6.545  12.190  0.00  0.00    +0.000 A 
ATOM     22  N   UNL     1      44.119   6.998  11.409  0.00  0.00    +0.000 NA
ATOM     23  C   UNL     1      43.085   6.228  11.367  0.00  0.00    +0.000 A 
ATOM     24  N   UNL     1      42.963   5.048  12.050  0.00  0.00    +0.000 N 
ATOM     25  C   UNL     1      43.926   4.595  12.920  0.00  0.00    +0.000 A 
ATOM     26  O   UNL     1      43.717   3.613  13.627  0.00  0.00    +0.000 OA
ATOM     27  C   UNL     1      45.138   5.395  12.958  0.00  0.00    +0.000 A 
ATOM     29  H   UNL     1      42.113   4.504  12.005  0.00  0.00    +0.000 HD
ENDBRANCH   2  18
BRANCH   3   4
ATOM      4  C   UNL     1      47.028   3.387  16.907  0.00  0.00    +0.000 C 
BRANCH   4   5
ATOM      5  C   UNL     1      48.499   3.291  17.225  0.00  0.00    +0.000 A 
ATOM      6  C   UNL     1      49.231   2.179  16.789  0.00  0.00    +0.000 A 
ATOM      7  C   UNL     1      50.603   2.084  17.036  0.00  0.00    +0.000 A 
ATOM      8  C   UNL     1      51.282   3.094  17.727  0.00  0.00    +0.000 A 
ATOM     16  C   UNL     1      50.538   4.184  18.209  0.00  0.00    +0.000 A 
ATOM     17  C   UNL     1      49.160   4.278  17.967  0.00  0.00    +0.000 A 
BRANCH   8   9
ATOM      9  C   UNL     1      52.761   2.964  18.018  0.00  0.00    +0.000 C 
BRANCH   9  10
ATOM     10  N   UNL     1      53.268   1.726  18.608  0.00  0.00    +0.000 NA
ATOM     11  C   UNL     1      54.547   1.804  19.318  0.00  0.00    +0.000 C 
ATOM     12  C   UNL     1      55.774   1.473  18.454  0.00  0.00    +0.000 C 
ATOM     13  O   UNL     1      55.632   0.203  17.806  0.00  0.00    +0.000 OA
ATOM     14  C   UNL     1      54.457   0.173  16.990  0.00  0.00    +0.000 C 
ATOM     15  C   UNL     1      53.190   0.511  17.791  0.00  0.00    +0.000 C 
ENDBRANCH   9  10
ENDBRANCH   8   9
ENDBRANCH   4   5
ENDBRANCH   3   4
TORSDOF 5
ENDMDL
MODEL 3
REMARK VINA RESULT:    -7.477      3.543      4.737
REMARK INTER + INTRA:          -9.724
REMARK INTER:                  -8.541
REMARK INTRA:                  -1.183
REMARK UNBOUND:                -0.062
REMARK  Name = 
REMARK  5 active torsions:
REMARK  status: ('A' for Active; 'I' for Inactive)
REMARK    1  A    between atoms: C_2  and  C_18
REMARK    2  A    between atoms: N_3  and  C_4
REMARK    3  A    between atoms: C_4  and  C_5
REMARK    4  A    between atoms: C_8  and  C_9
REMARK    5  A    between atoms: C_9  and  N_10
REMARK                            x       y       z     vdW  Elec       q    Type
REMARK                         _______ _______ _______ _____ _____    ______ ____
ROOT
ATOM      1  O   UNL     1      48.582   8.621  16.099  0.00  0.00    +0.000 OA
ATOM      2  C   UNL     1      48.954   7.495  15.785  0.00  0.00    +0.000 C 
ATOM      3  N   UNL     1      49.222   7.141  14.489  0.00  0.00    +0.000 N 
ATOM     28  H   UNL     1      49.391   6.167  14.267  0.00  0.00    +0.000 HD
ENDROOT
BRANCH   2  18
ATOM     18  C   UNL     1      49.183   6.452  16.798  0.00  0.00    +0.000 A 
ATOM     19  C   UNL     1      50.089   6.671  17.825  0.00  0.00    +0.000 A 
ATOM     20  S   UNL     1      50.233   5.356  18.902  0.00  0.00    +0.000 S 
ATOM     21  C   UNL     1      49.054   4.463  18.056  0.00  0.00    +0.000 A 
ATOM     22  N   UNL     1      48.670   3.232  18.478  0.00  0.00    +0.000 NA
ATOM     23  C   UNL     1      47.732   2.691  17.779  0.00  0.00    +0.000 A 
ATOM     24  N   UNL     1      47.149   3.264  16.680  0.00  0.00    +0.000 N 
ATOM     25  C   UNL     1      47.567   4.468  16.166  0.00  0.00    +0.000 A 
ATOM     26  O   UNL     1      47.125   4.878  15.095  0.00  0.00    +0.000 OA
ATOM     27  C   UNL     1      48.581   5.148  16.953  0.00  0.00    +0.000 A 
ATOM     29  H   UNL     1      46.441   2.775  16.150  0.00  0.00    +0.000 HD
ENDBRANCH   2  18
BRANCH   3   4
ATOM      4  C   UNL     1      48.941   7.993  13.363  0.00  0.00    +0.000 C 
BRANCH   4   5
ATOM      5  C   UNL     1      47.587   7.702  12.763  0.00  0.00    +0.000 A 
ATOM      6  C   UNL     1      47.472   6.754  11.739  0.00  0.00    +0.000 A 
ATOM      7  C   UNL     1      46.225   6.438  11.194  0.00  0.00    +0.000 A 
ATOM      8  C   UNL     1      45.059   7.060  11.654  0.00  0.00    +0.000 A 
ATOM     16  C   UNL     1      45.181   8.048  12.646  0.00  0.00    +0.000 A 
ATOM     17  C   UNL     1      46.433   8.372  13.189  0.00  0.00    +0.000 A 
BRANCH   8   9
ATOM      9  C   UNL     1      43.719   6.734  11.033  0.00  0.00    +0.000 C 
BRANCH   9  10
ATOM     10  N   UNL     1      43.062   5.473  11.370  0.00  0.00    +0.000 NA
ATOM     11  C   UNL     1      42.916   5.159  12.793  0.00  0.00    +0.000 C 
ATOM     12  C   UNL     1      44.054   4.308  13.377  0.00  0.00    +0.000 C 
ATOM     13  O   UNL     1      44.258   3.112  12.614  0.00  0.00    +0.000 OA
ATOM     14  C   UNL     1      44.550   3.420  11.247  0.00  0.00    +0.000 C 
ATOM     15  C   UNL     1      43.454   4.285  10.605  0.00  0.00    +0.000 C 
ENDBRANCH   9  10
ENDBRANCH   8   9
ENDBRANCH   4   5
ENDBRANCH   3   4
TORSDOF 5
ENDMDL
MODEL 4
REMARK VINA RESULT:    -7.460      4.289      9.652
REMARK INTER + INTRA:          -9.703
REMARK INTER:                  -9.020
REMARK INTRA:                  -0.683
REMARK UNBOUND:                -0.062
REMARK  Name = 
REMARK  5 active torsions:
REMARK  status: ('A' for Active; 'I' for Inactive)
REMARK    1  A    between atoms: C_2  and  C_18
REMARK    2  A    between atoms: N_3  and  C_4
REMARK    3  A    between atoms: C_4  and  C_5
REMARK    4  A    between atoms: C_8  and  C_9
REMARK    5  A    between atoms: C_9  and  N_10
REMARK                            x       y       z     vdW  Elec       q    Type
REMARK                         _______ _______ _______ _____ _____    ______ ____
ROOT
ATOM      1  O   UNL     1      47.196   3.167  13.960  0.00  0.00    +0.000 OA
ATOM      2  C   UNL     1      46.726   4.208  14.406  0.00  0.00    +0.000 C 
ATOM      3  N   UNL     1      46.727   4.505  15.744  0.00  0.00    +0.000 N 
ATOM     28  H   UNL     1      46.205   5.308  16.073  0.00  0.00    +0.000 HD
ENDROOT
BRANCH   2  18
ATOM     18  C   UNL     1      46.163   5.238  13.519  0.00  0.00    +0.000 A 
ATOM     19  C   UNL     1      46.927   6.341  13.166  0.00  0.00    +0.000 A 
ATOM     20  S   UNL     1      46.115   7.435  12.139  0.00  0.00    +0.000 S 
ATOM     21  C   UNL     1      44.726   6.449  12.095  0.00  0.00    +0.000 A 
ATOM     22  N   UNL     1      43.644   6.795  11.354  0.00  0.00    +0.000 NA
ATOM     23  C   UNL     1      42.685   5.934  11.366  0.00  0.00    +0.000 A 
ATOM     24  N   UNL     1      42.701   4.758  12.069  0.00  0.00    +0.000 N 
ATOM     25  C   UNL     1      43.738   4.410  12.901  0.00  0.00    +0.000 A 
ATOM     26  O   UNL     1      43.651   3.425  13.629  0.00  0.00    +0.000 OA
ATOM     27  C   UNL     1      44.871   5.318  12.876  0.00  0.00    +0.000 A 
ATOM     29  H   UNL     1      41.904   4.139  12.068  0.00  0.00    +0.000 HD
ENDBRANCH   2  18
BRANCH   3   4
ATOM      4  C   UNL     1      47.126   3.567  16.761  0.00  0.00    +0.000 C 
BRANCH   4   5
ATOM      5  C   UNL     1      48.596   3.680  17.082  0.00  0.00    +0.000 A 
ATOM      6  C   UNL     1      49.365   2.519  17.232  0.00  0.00    +0.000 A 
ATOM      7  C   UNL     1      50.736   2.596  17.490  0.00  0.00    +0.000 A 
ATOM      8  C   UNL     1      51.378   3.834  17.608  0.00  0.00    +0.000 A 
ATOM     16  C   UNL     1      50.597   4.999  17.508  0.00  0.00    +0.000 A 
ATOM     17  C   UNL     1      49.220   4.923  17.256  0.00  0.00    +0.000 A 
BRANCH   8   9
ATOM      9  C   UNL     1      52.856   3.906  17.921  0.00  0.00    +0.000 C 
BRANCH   9  10
ATOM     10  N   UNL     1      53.310   3.661  19.289  0.00  0.00    +0.000 NA
ATOM     11  C   UNL     1      52.578   4.337  20.363  0.00  0.00    +0.000 C 
ATOM     12  C   UNL     1      53.176   5.687  20.788  0.00  0.00    +0.000 C 
ATOM     13  O   UNL     1      54.563   5.563  21.123  0.00  0.00    +0.000 OA
ATOM     14  C   UNL     1      55.312   5.040  20.020  0.00  0.00    +0.000 C 
ATOM     15  C   UNL     1      54.755   3.692  19.534  0.00  0.00    +0.000 C 
ENDBRANCH   9  10
ENDBRANCH   8   9
ENDBRANCH   4   5
ENDBRANCH   3   4
TORSDOF 5
ENDMDL
MODEL 5
REMARK VINA RESULT:    -7.440      3.784      6.286
REMARK INTER + INTRA:          -9.677
REMARK INTER:                  -8.717
REMARK INTRA:                  -0.960
REMARK UNBOUND:                -0.062
REMARK  Name = 
REMARK  5 active torsions:
REMARK  status: ('A' for Active; 'I' for Inactive)
REMARK    1  A    between atoms: C_2  and  C_18
REMARK    2  A    between atoms: N_3  and  C_4
REMARK    3  A    between atoms: C_4  and  C_5
REMARK    4  A    between atoms: C_8  and  C_9
REMARK    5  A    between atoms: C_9  and  N_10
REMARK                            x       y       z     vdW  Elec       q    Type
REMARK                         _______ _______ _______ _____ _____    ______ ____
ROOT
ATOM      1  O   UNL     1      52.047   6.142  16.576  0.00  0.00    +0.000 OA
ATOM      2  C   UNL     1      51.680   5.288  17.376  0.00  0.00    +0.000 C 
ATOM      3  N   UNL     1      50.395   5.221  17.847  0.00  0.00    +0.000 N 
ATOM     28  H   UNL     1      50.179   4.587  18.608  0.00  0.00    +0.000 HD
ENDROOT
BRANCH   2  18
ATOM     18  C   UNL     1      52.596   4.241  17.855  0.00  0.00    +0.000 A 
ATOM     19  C   UNL     1      53.811   4.592  18.427  0.00  0.00    +0.000 A 
ATOM     20  S   UNL     1      54.747   3.253  18.920  0.00  0.00    +0.000 S 
ATOM     21  C   UNL     1      53.541   2.157  18.424  0.00  0.00    +0.000 A 
ATOM     22  N   UNL     1      53.696   0.819  18.595  0.00  0.00    +0.000 NA
ATOM     23  C   UNL     1      52.685   0.109  18.227  0.00  0.00    +0.000 A 
ATOM     24  N   UNL     1      51.532   0.614  17.686  0.00  0.00    +0.000 N 
ATOM     25  C   UNL     1      51.368   1.951  17.414  0.00  0.00    +0.000 A 
ATOM     26  O   UNL     1      50.385   2.346  16.792  0.00  0.00    +0.000 OA
ATOM     27  C   UNL     1      52.454   2.802  17.866  0.00  0.00    +0.000 A 
ATOM     29  H   UNL     1      50.787   0.003  17.384  0.00  0.00    +0.000 HD
ENDBRANCH   2  18
BRANCH   3   4
ATOM      4  C   UNL     1      49.402   6.228  17.580  0.00  0.00    +0.000 C 
BRANCH   4   5
ATOM      5  C   UNL     1      48.604   5.913  16.339  0.00  0.00    +0.000 A 
ATOM      6  C   UNL     1      47.809   4.761  16.300  0.00  0.00    +0.000 A 
ATOM      7  C   UNL     1      47.030   4.467  15.178  0.00  0.00    +0.000 A 
ATOM      8  C   UNL     1      47.024   5.313  14.063  0.00  0.00    +0.000 A 
ATOM     16  C   UNL     1      47.860   6.442  14.083  0.00  0.00    +0.000 A 
ATOM     17  C   UNL     1      48.648   6.735  15.205  0.00  0.00    +0.000 A 
BRANCH   8   9
ATOM      9  C   UNL     1      46.202   4.966  12.841  0.00  0.00    +0.000 C 
BRANCH   9  10
ATOM     10  N   UNL     1      45.046   4.083  12.983  0.00  0.00    +0.000 NA
ATOM     11  C   UNL     1      45.002   2.902  12.117  0.00  0.00    +0.000 C 
ATOM     12  C   UNL     1      44.233   3.106  10.802  0.00  0.00    +0.000 C 
ATOM     13  O   UNL     1      42.912   3.607  11.040  0.00  0.00    +0.000 OA
ATOM     14  C   UNL     1      42.956   4.844  11.759  0.00  0.00    +0.000 C 
ATOM     15  C   UNL     1      43.727   4.714  13.083  0.00  0.00    +0.000 C 
ENDBRANCH   9  10
ENDBRANCH   8   9
ENDBRANCH   4   5
ENDBRANCH   3   4
TORSDOF 5
ENDMDL
MODEL 6
REMARK VINA RESULT:    -7.212      4.265      9.172
REMARK INTER + INTRA:          -9.382
REMARK INTER:                  -8.723
REMARK INTRA:                  -0.659
REMARK UNBOUND:                -0.062
REMARK  Name = 
REMARK  5 active torsions:
REMARK  status: ('A' for Active; 'I' for Inactive)
REMARK    1  A    between atoms: C_2  and  C_18
REMARK    2  A    between atoms: N_3  and  C_4
REMARK    3  A    between atoms: C_4  and  C_5
REMARK    4  A    between atoms: C_8  and  C_9
REMARK    5  A    between atoms: C_9  and  N_10
REMARK                            x       y       z     vdW  Elec       q    Type
REMARK                         _______ _______ _______ _____ _____    ______ ____
ROOT
ATOM      1  O   UNL     1      47.182   3.032  13.992  0.00  0.00    +0.000 OA
ATOM      2  C   UNL     1      46.808   4.110  14.443  0.00  0.00    +0.000 C 
ATOM      3  N   UNL     1      46.836   4.400  15.783  0.00  0.00    +0.000 N 
ATOM     28  H   UNL     1      46.389   5.246  16.116  0.00  0.00    +0.000 HD
ENDROOT
BRANCH   2  18
ATOM     18  C   UNL     1      46.341   5.191  13.561  0.00  0.00    +0.000 A 
ATOM     19  C   UNL     1      47.194   6.236  13.235  0.00  0.00    +0.000 A 
ATOM     20  S   UNL     1      46.486   7.402  12.209  0.00  0.00    +0.000 S 
ATOM     21  C   UNL     1      45.027   6.526  12.130  0.00  0.00    +0.000 A 
ATOM     22  N   UNL     1      43.987   6.963  11.375  0.00  0.00    +0.000 NA
ATOM     23  C   UNL     1      42.965   6.178  11.361  0.00  0.00    +0.000 A 
ATOM     24  N   UNL     1      42.878   4.997  12.049  0.00  0.00    +0.000 N 
ATOM     25  C   UNL     1      43.871   4.560  12.893  0.00  0.00    +0.000 A 
ATOM     26  O   UNL     1      43.696   3.575  13.606  0.00  0.00    +0.000 OA
ATOM     27  C   UNL     1      45.071   5.378  12.898  0.00  0.00    +0.000 A 
ATOM     29  H   UNL     1      42.036   4.441  12.026  0.00  0.00    +0.000 HD
ENDBRANCH   2  18
BRANCH   3   4
ATOM      4  C   UNL     1      47.148   3.425  16.795  0.00  0.00    +0.000 C 
BRANCH   4   5
ATOM      5  C   UNL     1      48.596   3.495  17.213  0.00  0.00    +0.000 A 
ATOM      6  C   UNL     1      49.074   4.635  17.872  0.00  0.00    +0.000 A 
ATOM      7  C   UNL     1      50.400   4.708  18.304  0.00  0.00    +0.000 A 
ATOM      8  C   UNL     1      51.288   3.648  18.089  0.00  0.00    +0.000 A 
ATOM     16  C   UNL     1      50.822   2.526  17.382  0.00  0.00    +0.000 A 
ATOM     17  C   UNL     1      49.493   2.453  16.942  0.00  0.00    +0.000 A 
BRANCH   8   9
ATOM      9  C   UNL     1      52.731   3.753  18.531  0.00  0.00    +0.000 C 
BRANCH   9  10
ATOM     10  N   UNL     1      53.733   4.251  17.590  0.00  0.00    +0.000 NA
ATOM     11  C   UNL     1      55.139   4.077  17.963  0.00  0.00    +0.000 C 
ATOM     12  C   UNL     1      55.755   5.277  18.700  0.00  0.00    +0.000 C 
ATOM     13  O   UNL     1      55.575   6.492  17.963  0.00  0.00    +0.000 OA
ATOM     14  C   UNL     1      54.186   6.745  17.724  0.00  0.00    +0.000 C 
ATOM     15  C   UNL     1      53.503   5.573  17.001  0.00  0.00    +0.000 C 
ENDBRANCH   9  10
ENDBRANCH   8   9
ENDBRANCH   4   5
ENDBRANCH   3   4
TORSDOF 5
ENDMDL
MODEL 7
REMARK VINA RESULT:    -7.061      4.889      7.577
REMARK INTER + INTRA:          -9.187
REMARK INTER:                  -8.355
REMARK INTRA:                  -0.832
REMARK UNBOUND:                -0.062
REMARK  Name = 
REMARK  5 active torsions:
REMARK  status: ('A' for Active; 'I' for Inactive)
REMARK    1  A    between atoms: C_2  and  C_18
REMARK    2  A    between atoms: N_3  and  C_4
REMARK    3  A    between atoms: C_4  and  C_5
REMARK    4  A    between atoms: C_8  and  C_9
REMARK    5  A    between atoms: C_9  and  N_10
REMARK                            x       y       z     vdW  Elec       q    Type
REMARK                         _______ _______ _______ _____ _____    ______ ____
ROOT
ATOM      1  O   UNL     1      44.554   7.640  11.116  0.00  0.00    +0.000 OA
ATOM      2  C   UNL     1      44.967   6.725  11.822  0.00  0.00    +0.000 C 
ATOM      3  N   UNL     1      45.764   6.939  12.917  0.00  0.00    +0.000 N 
ATOM     28  H   UNL     1      46.189   6.146  13.381  0.00  0.00    +0.000 HD
ENDROOT
BRANCH   2  18
ATOM     18  C   UNL     1      44.593   5.326  11.562  0.00  0.00    +0.000 A 
ATOM     19  C   UNL     1      43.837   4.627  12.492  0.00  0.00    +0.000 A 
ATOM     20  S   UNL     1      43.502   3.018  12.031  0.00  0.00    +0.000 S 
ATOM     21  C   UNL     1      44.320   3.214  10.550  0.00  0.00    +0.000 A 
ATOM     22  N   UNL     1      44.385   2.204   9.645  0.00  0.00    +0.000 NA
ATOM     23  C   UNL     1      44.986   2.505   8.545  0.00  0.00    +0.000 A 
ATOM     24  N   UNL     1      45.546   3.724   8.270  0.00  0.00    +0.000 N 
ATOM     25  C   UNL     1      45.582   4.745   9.189  0.00  0.00    +0.000 A 
ATOM     26  O   UNL     1      46.224   5.767   8.963  0.00  0.00    +0.000 OA
ATOM     27  C   UNL     1      44.864   4.478  10.423  0.00  0.00    +0.000 A 
ATOM     29  H   UNL     1      46.036   3.889   7.402  0.00  0.00    +0.000 HD
ENDBRANCH   2  18
BRANCH   3   4
ATOM      4  C   UNL     1      46.322   8.224  13.248  0.00  0.00    +0.000 C 
BRANCH   4   5
ATOM      5  C   UNL     1      47.688   8.417  12.638  0.00  0.00    +0.000 A 
ATOM      6  C   UNL     1      48.601   7.354  12.630  0.00  0.00    +0.000 A 
ATOM      7  C   UNL     1      49.857   7.494  12.037  0.00  0.00    +0.000 A 
ATOM      8  C   UNL     1      50.240   8.699  11.436  0.00  0.00    +0.000 A 
ATOM     16  C   UNL     1      49.344   9.780  11.488  0.00  0.00    +0.000 A 
ATOM     17  C   UNL     1      48.084   9.644  12.090  0.00  0.00    +0.000 A 
BRANCH   8   9
ATOM      9  C   UNL     1      51.616   8.850  10.826  0.00  0.00    +0.000 C 
BRANCH   9  10
ATOM     10  N   UNL     1      52.431   7.658  10.596  0.00  0.00    +0.000 NA
ATOM     11  C   UNL     1      53.783   7.660  11.160  0.00  0.00    +0.000 C 
ATOM     12  C   UNL     1      54.873   8.153  10.196  0.00  0.00    +0.000 C 
ATOM     13  O   UNL     1      54.843   7.432   8.958  0.00  0.00    +0.000 OA
ATOM     14  C   UNL     1      53.564   7.552   8.327  0.00  0.00    +0.000 C 
ATOM     15  C   UNL     1      52.422   7.087   9.246  0.00  0.00    +0.000 C 
ENDBRANCH   9  10
ENDBRANCH   8   9
ENDBRANCH   4   5
ENDBRANCH   3   4
TORSDOF 5
ENDMDL
MODEL 8
REMARK VINA RESULT:    -6.986      2.993      8.928
REMARK INTER + INTRA:          -9.090
REMARK INTER:                  -8.133
REMARK INTRA:                  -0.957
REMARK UNBOUND:                -0.062
REMARK  Name = 
REMARK  5 active torsions:
REMARK  status: ('A' for Active; 'I' for Inactive)
REMARK    1  A    between atoms: C_2  and  C_18
REMARK    2  A    between atoms: N_3  and  C_4
REMARK    3  A    between atoms: C_4  and  C_5
REMARK    4  A    between atoms: C_8  and  C_9
REMARK    5  A    between atoms: C_9  and  N_10
REMARK                            x       y       z     vdW  Elec       q    Type
REMARK                         _______ _______ _______ _____ _____    ______ ____
ROOT
ATOM      1  O   UNL     1      44.914   7.477  12.084  0.00  0.00    +0.000 OA
ATOM      2  C   UNL     1      45.594   6.504  11.771  0.00  0.00    +0.000 C 
ATOM      3  N   UNL     1      46.959   6.561  11.665  0.00  0.00    +0.000 N 
ATOM     28  H   UNL     1      47.458   5.772  11.271  0.00  0.00    +0.000 HD
ENDROOT
BRANCH   2  18
ATOM     18  C   UNL     1      44.983   5.188  11.528  0.00  0.00    +0.000 A 
ATOM     19  C   UNL     1      44.265   4.561  12.535  0.00  0.00    +0.000 A 
ATOM     20  S   UNL     1      43.634   3.042  12.082  0.00  0.00    +0.000 S 
ATOM     21  C   UNL     1      44.264   3.188  10.506  0.00  0.00    +0.000 A 
ATOM     22  N   UNL     1      44.054   2.225   9.574  0.00  0.00    +0.000 NA
ATOM     23  C   UNL     1      44.539   2.488   8.409  0.00  0.00    +0.000 A 
ATOM     24  N   UNL     1      45.233   3.625   8.091  0.00  0.00    +0.000 N 
ATOM     25  C   UNL     1      45.545   4.585   9.024  0.00  0.00    +0.000 A 
ATOM     26  O   UNL     1      46.295   5.514   8.738  0.00  0.00    +0.000 OA
ATOM     27  C   UNL     1      44.969   4.366  10.339  0.00  0.00    +0.000 A 
ATOM     29  H   UNL     1      45.620   3.759   7.168  0.00  0.00    +0.000 HD
ENDBRANCH   2  18
BRANCH   3   4
ATOM      4  C   UNL     1      47.708   7.788  11.751  0.00  0.00    +0.000 C 
BRANCH   4   5
ATOM      5  C   UNL     1      48.351   7.958  13.105  0.00  0.00    +0.000 A 
ATOM      6  C   UNL     1      47.718   8.740  14.080  0.00  0.00    +0.000 A 
ATOM      7  C   UNL     1      48.274   8.882  15.354  0.00  0.00    +0.000 A 
ATOM      8  C   UNL     1      49.476   8.250  15.691  0.00  0.00    +0.000 A 
ATOM     16  C   UNL     1      50.137   7.508  14.696  0.00  0.00    +0.000 A 
ATOM     17  C   UNL     1      49.585   7.370  13.415  0.00  0.00    +0.000 A 
BRANCH   8   9
ATOM      9  C   UNL     1      50.085   8.439  17.063  0.00  0.00    +0.000 C 
BRANCH   9  10
ATOM     10  N   UNL     1      49.930   7.386  18.065  0.00  0.00    +0.000 NA
ATOM     11  C   UNL     1      51.045   6.449  18.222  0.00  0.00    +0.000 C 
ATOM     12  C   UNL     1      50.923   5.169  17.380  0.00  0.00    +0.000 C 
ATOM     13  O   UNL     1      49.672   4.508  17.609  0.00  0.00    +0.000 OA
ATOM     14  C   UNL     1      48.573   5.377  17.312  0.00  0.00    +0.000 C 
ATOM     15  C   UNL     1      48.642   6.687  18.113  0.00  0.00    +0.000 C 
ENDBRANCH   9  10
ENDBRANCH   8   9
ENDBRANCH   4   5
ENDBRANCH   3   4
TORSDOF 5
ENDMDL
MODEL 9
REMARK VINA RESULT:    -6.979      2.264      3.372
REMARK INTER + INTRA:          -9.081
REMARK INTER:                  -8.594
REMARK INTRA:                  -0.486
REMARK UNBOUND:                -0.062
REMARK  Name = 
REMARK  5 active torsions:
REMARK  status: ('A' for Active; 'I' for Inactive)
REMARK    1  A    between atoms: C_2  and  C_18
REMARK    2  A    between atoms: N_3  and  C_4
REMARK    3  A    between atoms: C_4  and  C_5
REMARK    4  A    between atoms: C_8  and  C_9
REMARK    5  A    between atoms: C_9  and  N_10
REMARK                            x       y       z     vdW  Elec       q    Type
REMARK                         _______ _______ _______ _____ _____    ______ ____
ROOT
ATOM      1  O   UNL     1      50.161   7.019  14.770  0.00  0.00    +0.000 OA
ATOM      2  C   UNL     1      49.207   6.920  15.535  0.00  0.00    +0.000 C 
ATOM      3  N   UNL     1      47.907   6.931  15.100  0.00  0.00    +0.000 N 
ATOM     28  H   UNL     1      47.158   6.986  15.779  0.00  0.00    +0.000 HD
ENDROOT
BRANCH   2  18
ATOM     18  C   UNL     1      49.399   6.736  16.982  0.00  0.00    +0.000 A 
ATOM     19  C   UNL     1      49.949   7.758  17.742  0.00  0.00    +0.000 A 
ATOM     20  S   UNL     1      50.105   7.372  19.397  0.00  0.00    +0.000 S 
ATOM     21  C   UNL     1      49.401   5.838  19.162  0.00  0.00    +0.000 A 
ATOM     22  N   UNL     1      49.204   4.990  20.203  0.00  0.00    +0.000 NA
ATOM     23  C   UNL     1      48.613   3.887  19.893  0.00  0.00    +0.000 A 
ATOM     24  N   UNL     1      48.212   3.544  18.630  0.00  0.00    +0.000 N 
ATOM     25  C   UNL     1      48.469   4.332  17.534  0.00  0.00    +0.000 A 
ATOM     26  O   UNL     1      48.230   3.925  16.401  0.00  0.00    +0.000 OA
ATOM     27  C   UNL     1      49.079   5.616  17.837  0.00  0.00    +0.000 A 
ATOM     29  H   UNL     1      47.784   2.648  18.443  0.00  0.00    +0.000 HD
ENDBRANCH   2  18
BRANCH   3   4
ATOM      4  C   UNL     1      47.532   7.219  13.740  0.00  0.00    +0.000 C 
BRANCH   4   5
ATOM      5  C   UNL     1      46.635   6.150  13.167  0.00  0.00    +0.000 A 
ATOM      6  C   UNL     1      45.428   6.512  12.555  0.00  0.00    +0.000 A 
ATOM      7  C   UNL     1      44.598   5.545  11.982  0.00  0.00    +0.000 A 
ATOM      8  C   UNL     1      44.948   4.190  12.005  0.00  0.00    +0.000 A 
ATOM     16  C   UNL     1      46.134   3.822  12.664  0.00  0.00    +0.000 A 
ATOM     17  C   UNL     1      46.965   4.791  13.246  0.00  0.00    +0.000 A 
BRANCH   8   9
ATOM      9  C   UNL     1      44.025   3.149  11.412  0.00  0.00    +0.000 C 
BRANCH   9  10
ATOM     10  N   UNL     1      43.858   3.085   9.961  0.00  0.00    +0.000 NA
ATOM     11  C   UNL     1      44.322   1.868   9.291  0.00  0.00    +0.000 C 
ATOM     12  C   UNL     1      45.763   1.944   8.762  0.00  0.00    +0.000 C 
ATOM     13  O   UNL     1      45.952   3.087   7.919  0.00  0.00    +0.000 OA
ATOM     14  C   UNL     1      45.640   4.296   8.619  0.00  0.00    +0.000 C 
ATOM     15  C   UNL     1      44.213   4.280   9.190  0.00  0.00    +0.000 C 
ENDBRANCH   9  10
ENDBRANCH   8   9
ENDBRANCH   4   5
ENDBRANCH   3   4
TORSDOF 5
ENDMDL
