MODEL 1
REMARK VINA RESULT:    -7.008      0.000      0.000
REMARK INTER + INTRA:          -8.430
REMARK INTER:                  -8.237
REMARK INTRA:                  -0.192
REMARK UNBOUND:                -0.192
REMARK  Name = 
REMARK  6 active torsions:
REMARK  status: ('A' for Active; 'I' for Inactive)
REMARK    1  A    between atoms: C_1  and  C_2
REMARK    2  A    between atoms: C_2  and  C_3
REMARK    3  A    between atoms: C_2  and  C_4
REMARK    4  A    between atoms: C_2  and  C_5
REMARK    5  A    between atoms: C_5  and  N_6
REMARK    6  A    between atoms: C_10  and  C_11
REMARK                            x       y       z     vdW  Elec       q    Type
REMARK                         _______ _______ _______ _____ _____    ______ ____
ROOT
ATOM      6  N   UNL     1      44.340   5.163   9.708  0.00  0.00    +0.000 N 
ATOM      7  C   UNL     1      45.016   4.103   9.084  0.00  0.00    +0.000 A 
ATOM      8  C   UNL     1      45.882   4.392   8.033  0.00  0.00    +0.000 A 
ATOM      9  C   UNL     1      46.568   3.352   7.403  0.00  0.00    +0.000 A 
ATOM     10  C   UNL     1      46.374   2.040   7.833  0.00  0.00    +0.000 A 
ATOM     14  C   UNL     1      45.487   1.844   8.876  0.00  0.00    +0.000 A 
ATOM     15  N   UNL     1      44.809   2.838   9.497  0.00  0.00    +0.000 NA
ATOM     16  H   UNL     1      45.039   5.833  10.017  0.00  0.00    +0.000 HD
ENDROOT
BRANCH  10  11
ATOM     11  C   UNL     1      47.111   0.935   7.174  0.00  0.00    +0.000 C 
ATOM     12  N   UNL     1      46.822  -0.355   7.525  0.00  0.00    +0.000 N 
ATOM     13  O   UNL     1      47.969   1.163   6.330  0.00  0.00    +0.000 OA
ATOM     17  H   UNL     1      46.133  -0.651   8.195  0.00  0.00    +0.000 HD
ATOM     18  H   UNL     1      47.345  -1.078   7.046  0.00  0.00    +0.000 HD
ENDBRANCH  10  11
BRANCH   6   5
ATOM      5  C   UNL     1      43.449   4.744  10.795  0.00  0.00    +0.000 C 
BRANCH   5   2
ATOM      1  C   UNL     1      44.546   6.577  12.163  0.00  0.00    +0.000 C 
ATOM      2  C   UNL     1      44.017   5.134  12.182  0.00  0.00    +0.000 C 
ATOM      3  C   UNL     1      45.141   4.172  12.608  0.00  0.00    +0.000 C 
ATOM      4  C   UNL     1      42.880   5.043  13.221  0.00  0.00    +0.000 C 
ENDBRANCH   5   2
ENDBRANCH   6   5
TORSDOF 3
ENDMDL
MODEL 2
REMARK VINA RESULT:    -6.952      1.407      1.813
REMARK INTER + INTRA:          -8.364
REMARK INTER:                  -8.177
REMARK INTRA:                  -0.187
REMARK UNBOUND:                -0.192
REMARK  Name = 
REMARK  6 active torsions:
REMARK  status: ('A' for Active; 'I' for Inactive)
REMARK    1  A    between atoms: C_1  and  C_2
REMARK    2  A    between atoms: C_2  and  C_3
REMARK    3  A    between atoms: C_2  and  C_4
REMARK    4  A    between atoms: C_2  and  C_5
REMARK    5  A    between atoms: C_5  and  N_6
REMARK    6  A    between atoms: C_10  and  C_11
REMARK                            x       y       z     vdW  Elec       q    Type
REMARK                         _______ _______ _______ _____ _____    ______ ____
ROOT
ATOM      6  N   UNL     1      43.939   3.351  10.354  0.00  0.00    +0.000 N 
ATOM      7  C   UNL     1      44.864   3.106   9.328  0.00  0.00    +0.000 A 
ATOM      8  C   UNL     1      45.231   1.790   9.062  0.00  0.00    +0.000 A 
ATOM      9  C   UNL     1      46.146   1.526   8.040  0.00  0.00    +0.000 A 
ATOM     10  C   UNL     1      46.680   2.583   7.304  0.00  0.00    +0.000 A 
ATOM     14  C   UNL     1      46.268   3.858   7.645  0.00  0.00    +0.000 A 
ATOM     15  N   UNL     1      45.386   4.136   8.633  0.00  0.00    +0.000 NA
ATOM     16  H   UNL     1      43.109   2.798  10.157  0.00  0.00    +0.000 HD
ENDROOT
BRANCH  10  11
ATOM     11  C   UNL     1      47.641   2.304   6.211  0.00  0.00    +0.000 C 
ATOM     12  N   UNL     1      47.690   3.153   5.140  0.00  0.00    +0.000 N 
ATOM     13  O   UNL     1      48.382   1.329   6.254  0.00  0.00    +0.000 OA
ATOM     17  H   UNL     1      47.136   3.982   5.010  0.00  0.00    +0.000 HD
ATOM     18  H   UNL     1      48.364   2.927   4.419  0.00  0.00    +0.000 HD
ENDBRANCH  10  11
BRANCH   6   5
ATOM      5  C   UNL     1      43.631   4.771  10.554  0.00  0.00    +0.000 C 
BRANCH   5   2
ATOM      1  C   UNL     1      44.594   6.747  11.819  0.00  0.00    +0.000 C 
ATOM      2  C   UNL     1      44.144   5.281  11.923  0.00  0.00    +0.000 C 
ATOM      3  C   UNL     1      45.310   4.414  12.432  0.00  0.00    +0.000 C 
ATOM      4  C   UNL     1      42.992   5.193  12.943  0.00  0.00    +0.000 C 
ENDBRANCH   5   2
ENDBRANCH   6   5
TORSDOF 3
ENDMDL
MODEL 3
REMARK VINA RESULT:    -6.280      1.680      2.192
REMARK INTER + INTRA:          -7.574
REMARK INTER:                  -7.280
REMARK INTRA:                  -0.294
REMARK UNBOUND:                -0.192
REMARK  Name = 
REMARK  6 active torsions:
REMARK  status: ('A' for Active; 'I' for Inactive)
REMARK    1  A    between atoms: C_1  and  C_2
REMARK    2  A    between atoms: C_2  and  C_3
REMARK    3  A    between atoms: C_2  and  C_4
REMARK    4  A    between atoms: C_2  and  C_5
REMARK    5  A    between atoms: C_5  and  N_6
REMARK    6  A    between atoms: C_10  and  C_11
REMARK                            x       y       z     vdW  Elec       q    Type
REMARK                         _______ _______ _______ _____ _____    ______ ____
ROOT
ATOM      6  N   UNL     1      44.418   4.583  10.809  0.00  0.00    +0.000 N 
ATOM      7  C   UNL     1      45.074   4.004   9.712  0.00  0.00    +0.000 A 
ATOM      8  C   UNL     1      45.024   2.622   9.560  0.00  0.00    +0.000 A 
ATOM      9  C   UNL     1      45.666   2.027   8.471  0.00  0.00    +0.000 A 
ATOM     10  C   UNL     1      46.348   2.825   7.555  0.00  0.00    +0.000 A 
ATOM     14  C   UNL     1      46.356   4.189   7.791  0.00  0.00    +0.000 A 
ATOM     15  N   UNL     1      45.744   4.783   8.841  0.00  0.00    +0.000 NA
ATOM     16  H   UNL     1      43.449   4.278  10.783  0.00  0.00    +0.000 HD
ENDROOT
BRANCH  10  11
ATOM     11  C   UNL     1      47.020   2.198   6.392  0.00  0.00    +0.000 C 
ATOM     12  N   UNL     1      47.309   2.969   5.300  0.00  0.00    +0.000 N 
ATOM     13  O   UNL     1      47.311   1.009   6.396  0.00  0.00    +0.000 OA
ATOM     17  H   UNL     1      47.122   3.952   5.197  0.00  0.00    +0.000 HD
ATOM     18  H   UNL     1      47.772   2.501   4.530  0.00  0.00    +0.000 HD
ENDBRANCH  10  11
BRANCH   6   5
ATOM      5  C   UNL     1      44.543   6.042  10.876  0.00  0.00    +0.000 C 
BRANCH   5   2
ATOM      1  C   UNL     1      46.915   6.565  11.608  0.00  0.00    +0.000 C 
ATOM      2  C   UNL     1      45.445   6.487  12.053  0.00  0.00    +0.000 C 
ATOM      3  C   UNL     1      45.313   5.521  13.244  0.00  0.00    +0.000 C 
ATOM      4  C   UNL     1      44.999   7.890  12.513  0.00  0.00    +0.000 C 
ENDBRANCH   5   2
ENDBRANCH   6   5
TORSDOF 3
ENDMDL
MODEL 4
REMARK VINA RESULT:    -5.783      4.113      5.623
REMARK INTER + INTRA:          -6.989
REMARK INTER:                  -6.777
REMARK INTRA:                  -0.213
REMARK UNBOUND:                -0.192
REMARK  Name = 
REMARK  6 active torsions:
REMARK  status: ('A' for Active; 'I' for Inactive)
REMARK    1  A    between atoms: C_1  and  C_2
REMARK    2  A    between atoms: C_2  and  C_3
REMARK    3  A    between atoms: C_2  and  C_4
REMARK    4  A    between atoms: C_2  and  C_5
REMARK    5  A    between atoms: C_5  and  N_6
REMARK    6  A    between atoms: C_10  and  C_11
REMARK                            x       y       z     vdW  Elec       q    Type
REMARK                         _______ _______ _______ _____ _____    ______ ____
ROOT
ATOM      6  N   UNL     1      47.118   5.309  14.837  0.00  0.00    +0.000 N 
ATOM      7  C   UNL     1      46.423   4.910  13.685  0.00  0.00    +0.000 A 
ATOM      8  C   UNL     1      46.172   5.858  12.697  0.00  0.00    +0.000 A 
ATOM      9  C   UNL     1      45.487   5.479  11.541  0.00  0.00    +0.000 A 
ATOM     10  C   UNL     1      45.064   4.159  11.393  0.00  0.00    +0.000 A 
ATOM     14  C   UNL     1      45.346   3.288  12.430  0.00  0.00    +0.000 A 
ATOM     15  N   UNL     1      46.005   3.636  13.560  0.00  0.00    +0.000 NA
ATOM     16  H   UNL     1      47.993   5.730  14.538  0.00  0.00    +0.000 HD
ENDROOT
BRANCH  10  11
ATOM     11  C   UNL     1      44.348   3.751  10.161  0.00  0.00    +0.000 C 
ATOM     12  N   UNL     1      44.221   4.653   9.141  0.00  0.00    +0.000 N 
ATOM     13  O   UNL     1      43.872   2.628  10.048  0.00  0.00    +0.000 OA
ATOM     17  H   UNL     1      44.580   5.592   9.126  0.00  0.00    +0.000 HD
ATOM     18  H   UNL     1      43.729   4.331   8.316  0.00  0.00    +0.000 HD
ENDBRANCH  10  11
BRANCH   6   5
ATOM      5  C   UNL     1      47.320   4.234  15.814  0.00  0.00    +0.000 C 
BRANCH   5   2
ATOM      1  C   UNL     1      49.182   3.598  17.415  0.00  0.00    +0.000 C 
ATOM      2  C   UNL     1      48.191   4.700  17.007  0.00  0.00    +0.000 C 
ATOM      3  C   UNL     1      47.314   5.084  18.212  0.00  0.00    +0.000 C 
ATOM      4  C   UNL     1      48.994   5.943  16.573  0.00  0.00    +0.000 C 
ENDBRANCH   5   2
ENDBRANCH   6   5
TORSDOF 3
ENDMDL
MODEL 5
REMARK VINA RESULT:    -5.699      2.867      6.053
REMARK INTER + INTRA:          -6.891
REMARK INTER:                  -6.605
REMARK INTRA:                  -0.286
REMARK UNBOUND:                -0.192
REMARK  Name = 
REMARK  6 active torsions:
REMARK  status: ('A' for Active; 'I' for Inactive)
REMARK    1  A    between atoms: C_1  and  C_2
REMARK    2  A    between atoms: C_2  and  C_3
REMARK    3  A    between atoms: C_2  and  C_4
REMARK    4  A    between atoms: C_2  and  C_5
REMARK    5  A    between atoms: C_5  and  N_6
REMARK    6  A    between atoms: C_10  and  C_11
REMARK                            x       y       z     vdW  Elec       q    Type
REMARK                         _______ _______ _______ _____ _____    ______ ____
ROOT
ATOM      6  N   UNL     1      46.041   4.344   7.868  0.00  0.00    +0.000 N 
ATOM      7  C   UNL     1      45.376   4.361   9.103  0.00  0.00    +0.000 A 
ATOM      8  C   UNL     1      45.662   5.388   9.999  0.00  0.00    +0.000 A 
ATOM      9  C   UNL     1      45.006   5.426  11.232  0.00  0.00    +0.000 A 
ATOM     10  C   UNL     1      44.077   4.436  11.547  0.00  0.00    +0.000 A 
ATOM     14  C   UNL     1      43.864   3.448  10.603  0.00  0.00    +0.000 A 
ATOM     15  N   UNL     1      44.492   3.391   9.405  0.00  0.00    +0.000 NA
ATOM     16  H   UNL     1      45.880   5.242   7.420  0.00  0.00    +0.000 HD
ENDROOT
BRANCH  10  11
ATOM     11  C   UNL     1      43.370   4.481  12.849  0.00  0.00    +0.000 C 
ATOM     12  N   UNL     1      42.659   5.603  13.178  0.00  0.00    +0.000 N 
ATOM     13  O   UNL     1      43.418   3.537  13.628  0.00  0.00    +0.000 OA
ATOM     17  H   UNL     1      42.547   6.425  12.611  0.00  0.00    +0.000 HD
ATOM     18  H   UNL     1      42.188   5.588  14.074  0.00  0.00    +0.000 HD
ENDBRANCH  10  11
BRANCH   6   5
ATOM      5  C   UNL     1      45.670   3.216   7.007  0.00  0.00    +0.000 C 
BRANCH   5   2
ATOM      1  C   UNL     1      46.866   2.293   4.969  0.00  0.00    +0.000 C 
ATOM      2  C   UNL     1      46.917   2.451   6.498  0.00  0.00    +0.000 C 
ATOM      3  C   UNL     1      47.023   1.067   7.161  0.00  0.00    +0.000 C 
ATOM      4  C   UNL     1      48.176   3.264   6.863  0.00  0.00    +0.000 C 
ENDBRANCH   5   2
ENDBRANCH   6   5
TORSDOF 3
ENDMDL
MODEL 6
REMARK VINA RESULT:    -5.323      4.249      6.245
REMARK INTER + INTRA:          -6.449
REMARK INTER:                  -6.218
REMARK INTRA:                  -0.231
REMARK UNBOUND:                -0.192
REMARK  Name = 
REMARK  6 active torsions:
REMARK  status: ('A' for Active; 'I' for Inactive)
REMARK    1  A    between atoms: C_1  and  C_2
REMARK    2  A    between atoms: C_2  and  C_3
REMARK    3  A    between atoms: C_2  and  C_4
REMARK    4  A    between atoms: C_2  and  C_5
REMARK    5  A    between atoms: C_5  and  N_6
REMARK    6  A    between atoms: C_10  and  C_11
REMARK                            x       y       z     vdW  Elec       q    Type
REMARK                         _______ _______ _______ _____ _____    ______ ____
ROOT
ATOM      6  N   UNL     1      47.255   3.744  14.874  0.00  0.00    +0.000 N 
ATOM      7  C   UNL     1      46.353   4.169  13.887  0.00  0.00    +0.000 A 
ATOM      8  C   UNL     1      45.906   3.242  12.950  0.00  0.00    +0.000 A 
ATOM      9  C   UNL     1      45.003   3.644  11.963  0.00  0.00    +0.000 A 
ATOM     10  C   UNL     1      44.564   4.967  11.930  0.00  0.00    +0.000 A 
ATOM     14  C   UNL     1      45.069   5.822  12.893  0.00  0.00    +0.000 A 
ATOM     15  N   UNL     1      45.948   5.453  13.854  0.00  0.00    +0.000 NA
ATOM     16  H   UNL     1      46.837   2.951  15.352  0.00  0.00    +0.000 HD
ENDROOT
BRANCH  10  11
ATOM     11  C   UNL     1      43.596   5.393  10.891  0.00  0.00    +0.000 C 
ATOM     12  N   UNL     1      42.836   6.508  11.113  0.00  0.00    +0.000 N 
ATOM     13  O   UNL     1      43.467   4.761   9.850  0.00  0.00    +0.000 OA
ATOM     17  H   UNL     1      42.869   7.101  11.924  0.00  0.00    +0.000 HD
ATOM     18  H   UNL     1      42.192   6.765  10.375  0.00  0.00    +0.000 HD
ENDBRANCH  10  11
BRANCH   6   5
ATOM      5  C   UNL     1      47.665   4.803  15.802  0.00  0.00    +0.000 C 
BRANCH   5   2
ATOM      1  C   UNL     1      49.480   4.044  17.404  0.00  0.00    +0.000 C 
ATOM      2  C   UNL     1      47.967   4.242  17.214  0.00  0.00    +0.000 C 
ATOM      3  C   UNL     1      47.235   2.908  17.444  0.00  0.00    +0.000 C 
ATOM      4  C   UNL     1      47.470   5.257  18.263  0.00  0.00    +0.000 C 
ENDBRANCH   5   2
ENDBRANCH   6   5
TORSDOF 3
ENDMDL
MODEL 7
REMARK VINA RESULT:    -5.221      3.682      5.339
REMARK INTER + INTRA:          -6.329
REMARK INTER:                  -6.056
REMARK INTRA:                  -0.273
REMARK UNBOUND:                -0.192
REMARK  Name = 
REMARK  6 active torsions:
REMARK  status: ('A' for Active; 'I' for Inactive)
REMARK    1  A    between atoms: C_1  and  C_2
REMARK    2  A    between atoms: C_2  and  C_3
REMARK    3  A    between atoms: C_2  and  C_4
REMARK    4  A    between atoms: C_2  and  C_5
REMARK    5  A    between atoms: C_5  and  N_6
REMARK    6  A    between atoms: C_10  and  C_11
REMARK                            x       y       z     vdW  Elec       q    Type
REMARK                         _______ _______ _______ _____ _____    ______ ____
ROOT
ATOM      6  N   UNL     1      46.811   7.209  13.427  0.00  0.00    +0.000 N 
ATOM      7  C   UNL     1      46.144   6.150  12.792  0.00  0.00    +0.000 A 
ATOM      8  C   UNL     1      46.024   4.939  13.468  0.00  0.00    +0.000 A 
ATOM      9  C   UNL     1      45.359   3.875  12.855  0.00  0.00    +0.000 A 
ATOM     10  C   UNL     1      44.827   4.039  11.577  0.00  0.00    +0.000 A 
ATOM     14  C   UNL     1      45.004   5.273  10.976  0.00  0.00    +0.000 A 
ATOM     15  N   UNL     1      45.649   6.315  11.551  0.00  0.00    +0.000 NA
ATOM     16  H   UNL     1      46.360   7.363  14.324  0.00  0.00    +0.000 HD
ENDROOT
BRANCH  10  11
ATOM     11  C   UNL     1      44.109   2.915  10.931  0.00  0.00    +0.000 C 
ATOM     12  N   UNL     1      44.677   2.304   9.847  0.00  0.00    +0.000 N 
ATOM     13  O   UNL     1      43.023   2.535  11.349  0.00  0.00    +0.000 OA
ATOM     17  H   UNL     1      45.564   2.530   9.431  0.00  0.00    +0.000 HD
ATOM     18  H   UNL     1      44.155   1.537   9.440  0.00  0.00    +0.000 HD
ENDBRANCH  10  11
BRANCH   6   5
ATOM      5  C   UNL     1      46.887   8.433  12.622  0.00  0.00    +0.000 C 
BRANCH   5   2
ATOM      1  C   UNL     1      48.410  10.210  11.644  0.00  0.00    +0.000 C 
ATOM      2  C   UNL     1      48.353   8.833  12.325  0.00  0.00    +0.000 C 
ATOM      3  C   UNL     1      49.041   7.783  11.435  0.00  0.00    +0.000 C 
ATOM      4  C   UNL     1      49.121   8.916  13.660  0.00  0.00    +0.000 C 
ENDBRANCH   5   2
ENDBRANCH   6   5
TORSDOF 3
ENDMDL
MODEL 8
REMARK VINA RESULT:    -5.203      3.857      5.450
REMARK INTER + INTRA:          -6.307
REMARK INTER:                  -5.980
REMARK INTRA:                  -0.327
REMARK UNBOUND:                -0.192
REMARK  Name = 
REMARK  6 active torsions:
REMARK  status: ('A' for Active; 'I' for Inactive)
REMARK    1  A    between atoms: C_1  and  C_2
REMARK    2  A    between atoms: C_2  and  C_3
REMARK    3  A    between atoms: C_2  and  C_4
REMARK    4  A    between atoms: C_2  and  C_5
REMARK    5  A    between atoms: C_5  and  N_6
REMARK    6  A    between atoms: C_10  and  C_11
REMARK                            x       y       z     vdW  Elec       q    Type
REMARK                         _______ _______ _______ _____ _____    ______ ____
ROOT
ATOM      6  N   UNL     1      47.148   6.605  13.985  0.00  0.00    +0.000 N 
ATOM      7  C   UNL     1      46.433   5.913  12.995  0.00  0.00    +0.000 A 
ATOM      8  C   UNL     1      45.997   4.620  13.271  0.00  0.00    +0.000 A 
ATOM      9  C   UNL     1      45.279   3.916  12.300  0.00  0.00    +0.000 A 
ATOM     10  C   UNL     1      45.013   4.517  11.071  0.00  0.00    +0.000 A 
ATOM     14  C   UNL     1      45.495   5.800  10.880  0.00  0.00    +0.000 A 
ATOM     15  N   UNL     1      46.195   6.496  11.805  0.00  0.00    +0.000 NA
ATOM     16  H   UNL     1      46.579   6.609  14.827  0.00  0.00    +0.000 HD
ENDROOT
BRANCH  10  11
ATOM     11  C   UNL     1      44.241   3.777  10.045  0.00  0.00    +0.000 C 
ATOM     12  N   UNL     1      44.074   4.340   8.809  0.00  0.00    +0.000 N 
ATOM     13  O   UNL     1      43.753   2.681  10.289  0.00  0.00    +0.000 OA
ATOM     17  H   UNL     1      44.438   5.226   8.503  0.00  0.00    +0.000 HD
ATOM     18  H   UNL     1      43.544   3.798   8.138  0.00  0.00    +0.000 HD
ENDBRANCH  10  11
BRANCH   6   5
ATOM      5  C   UNL     1      47.565   7.953  13.586  0.00  0.00    +0.000 C 
BRANCH   5   2
ATOM      1  C   UNL     1      49.537   9.545  13.693  0.00  0.00    +0.000 C 
ATOM      2  C   UNL     1      49.108   8.079  13.522  0.00  0.00    +0.000 C 
ATOM      3  C   UNL     1      49.651   7.529  12.191  0.00  0.00    +0.000 C 
ATOM      4  C   UNL     1      49.716   7.254  14.674  0.00  0.00    +0.000 C 
ENDBRANCH   5   2
ENDBRANCH   6   5
TORSDOF 3
ENDMDL
MODEL 9
REMARK VINA RESULT:    -5.177      3.871      5.550
REMARK INTER + INTRA:          -6.277
REMARK INTER:                  -5.938
REMARK INTRA:                  -0.339
REMARK UNBOUND:                -0.192
REMARK  Name = 
REMARK  6 active torsions:
REMARK  status: ('A' for Active; 'I' for Inactive)
REMARK    1  A    between atoms: C_1  and  C_2
REMARK    2  A    between atoms: C_2  and  C_3
REMARK    3  A    between atoms: C_2  and  C_4
REMARK    4  A    between atoms: C_2  and  C_5
REMARK    5  A    between atoms: C_5  and  N_6
REMARK    6  A    between atoms: C_10  and  C_11
REMARK                            x       y       z     vdW  Elec       q    Type
REMARK                         _______ _______ _______ _____ _____    ______ ____
ROOT
ATOM      6  N   UNL     1      47.130   6.604  14.014  0.00  0.00    +0.000 N 
ATOM      7  C   UNL     1      46.423   5.907  13.022  0.00  0.00    +0.000 A 
ATOM      8  C   UNL     1      45.976   4.619  13.305  0.00  0.00    +0.000 A 
ATOM      9  C   UNL     1      45.265   3.911  12.334  0.00  0.00    +0.000 A 
ATOM     10  C   UNL     1      45.016   4.501  11.095  0.00  0.00    +0.000 A 
ATOM     14  C   UNL     1      45.509   5.779  10.897  0.00  0.00    +0.000 A 
ATOM     15  N   UNL     1      46.203   6.480  11.824  0.00  0.00    +0.000 NA
ATOM     16  H   UNL     1      46.552   6.620  14.849  0.00  0.00    +0.000 HD
ENDROOT
BRANCH  10  11
ATOM     11  C   UNL     1      44.252   3.757  10.067  0.00  0.00    +0.000 C 
ATOM     12  N   UNL     1      44.107   4.306   8.823  0.00  0.00    +0.000 N 
ATOM     13  O   UNL     1      43.750   2.668  10.318  0.00  0.00    +0.000 OA
ATOM     17  H   UNL     1      44.485   5.184   8.511  0.00  0.00    +0.000 HD
ATOM     18  H   UNL     1      43.582   3.760   8.151  0.00  0.00    +0.000 HD
ENDBRANCH  10  11
BRANCH   6   5
ATOM      5  C   UNL     1      47.561   7.945  13.606  0.00  0.00    +0.000 C 
BRANCH   5   2
ATOM      1  C   UNL     1      49.709   7.170  14.710  0.00  0.00    +0.000 C 
ATOM      2  C   UNL     1      49.103   8.084  13.633  0.00  0.00    +0.000 C 
ATOM      3  C   UNL     1      49.521   9.543  13.893  0.00  0.00    +0.000 C 
ATOM      4  C   UNL     1      49.659   7.657  12.260  0.00  0.00    +0.000 C 
ENDBRANCH   5   2
ENDBRANCH   6   5
TORSDOF 3
ENDMDL
