MODEL 1
REMARK VINA RESULT:    -6.972      0.000      0.000
REMARK INTER + INTRA:          -7.947
REMARK INTER:                  -7.787
REMARK INTRA:                  -0.159
REMARK UNBOUND:                -0.159
REMARK  Name = 
REMARK  2 active torsions:
REMARK  status: ('A' for Active; 'I' for Inactive)
REMARK    1  A    between atoms: C_2  and  C_4
REMARK    2  A    between atoms: N_8  and  C_9
REMARK                            x       y       z     vdW  Elec       q    Type
REMARK                         _______ _______ _______ _____ _____    ______ ____
ROOT
ATOM      4  C   UNL     1      46.716   2.514   7.179  0.00  0.00    +0.000 A 
ATOM      5  C   UNL     1      46.252   1.447   7.939  0.00  0.00    +0.000 A 
ATOM      6  C   UNL     1      45.368   1.704   8.985  0.00  0.00    +0.000 A 
ATOM      7  C   UNL     1      44.990   3.014   9.281  0.00  0.00    +0.000 A 
ATOM      8  N   UNL     1      44.114   3.188  10.347  0.00  0.00    +0.000 N 
ATOM     14  N   UNL     1      45.466   4.060   8.581  0.00  0.00    +0.000 NA
ATOM     15  C   UNL     1      46.311   3.790   7.544  0.00  0.00    +0.000 A 
ATOM     18  H   UNL     1      43.246   2.692  10.173  0.00  0.00    +0.000 HD
ENDROOT
BRANCH   4   2
ATOM      1  N   UNL     1      47.535   3.253   5.011  0.00  0.00    +0.000 N 
ATOM      2  C   UNL     1      47.627   2.341   6.027  0.00  0.00    +0.000 C 
ATOM      3  O   UNL     1      48.453   1.441   5.992  0.00  0.00    +0.000 OA
ATOM     16  H   UNL     1      48.223   3.176   4.274  0.00  0.00    +0.000 HD
ATOM     17  H   UNL     1      47.043   4.129   5.098  0.00  0.00    +0.000 HD
ENDBRANCH   4   2
BRANCH   8   9
ATOM      9  C   UNL     1      43.925   4.507  10.936  0.00  0.00    +0.000 C 
ATOM     10  C   UNL     1      45.112   4.758  11.875  0.00  0.00    +0.000 C 
ATOM     11  C   UNL     1      44.596   5.608  13.025  0.00  0.00    +0.000 C 
ATOM     12  C   UNL     1      43.082   5.661  12.884  0.00  0.00    +0.000 C 
ATOM     13  C   UNL     1      42.708   4.606  11.848  0.00  0.00    +0.000 C 
ENDBRANCH   8   9
TORSDOF 2
ENDMDL
MODEL 2
REMARK VINA RESULT:    -6.539      3.015      6.291
REMARK INTER + INTRA:          -7.462
REMARK INTER:                  -7.390
REMARK INTRA:                  -0.073
REMARK UNBOUND:                -0.159
REMARK  Name = 
REMARK  2 active torsions:
REMARK  status: ('A' for Active; 'I' for Inactive)
REMARK    1  A    between atoms: C_2  and  C_4
REMARK    2  A    between atoms: N_8  and  C_9
REMARK                            x       y       z     vdW  Elec       q    Type
REMARK                         _______ _______ _______ _____ _____    ______ ____
ROOT
ATOM      4  C   UNL     1      43.656   4.632  11.071  0.00  0.00    +0.000 A 
ATOM      5  C   UNL     1      43.326   3.288  10.953  0.00  0.00    +0.000 A 
ATOM      6  C   UNL     1      44.123   2.471  10.153  0.00  0.00    +0.000 A 
ATOM      7  C   UNL     1      45.208   3.008   9.459  0.00  0.00    +0.000 A 
ATOM      8  N   UNL     1      45.947   2.129   8.674  0.00  0.00    +0.000 N 
ATOM     14  N   UNL     1      45.512   4.317   9.531  0.00  0.00    +0.000 NA
ATOM     15  C   UNL     1      44.737   5.099  10.337  0.00  0.00    +0.000 A 
ATOM     18  H   UNL     1      46.335   1.388   9.248  0.00  0.00    +0.000 HD
ENDROOT
BRANCH   4   2
ATOM      1  N   UNL     1      42.544   6.775  11.373  0.00  0.00    +0.000 N 
ATOM      2  C   UNL     1      42.894   5.572  11.922  0.00  0.00    +0.000 C 
ATOM      3  O   UNL     1      42.560   5.281  13.061  0.00  0.00    +0.000 OA
ATOM     16  H   UNL     1      41.947   7.369  11.932  0.00  0.00    +0.000 HD
ATOM     17  H   UNL     1      42.591   6.965  10.382  0.00  0.00    +0.000 HD
ENDBRANCH   4   2
BRANCH   8   9
ATOM      9  C   UNL     1      46.872   2.639   7.672  0.00  0.00    +0.000 C 
ATOM     10  C   UNL     1      46.028   3.198   6.520  0.00  0.00    +0.000 C 
ATOM     11  C   UNL     1      46.817   2.970   5.240  0.00  0.00    +0.000 C 
ATOM     12  C   UNL     1      47.998   2.084   5.608  0.00  0.00    +0.000 C 
ATOM     13  C   UNL     1      47.723   1.560   7.014  0.00  0.00    +0.000 C 
ENDBRANCH   8   9
TORSDOF 2
ENDMDL
MODEL 3
REMARK VINA RESULT:    -6.521      2.839      6.403
REMARK INTER + INTRA:          -7.443
REMARK INTER:                  -7.473
REMARK INTRA:                   0.030
REMARK UNBOUND:                -0.159
REMARK  Name = 
REMARK  2 active torsions:
REMARK  status: ('A' for Active; 'I' for Inactive)
REMARK    1  A    between atoms: C_2  and  C_4
REMARK    2  A    between atoms: N_8  and  C_9
REMARK                            x       y       z     vdW  Elec       q    Type
REMARK                         _______ _______ _______ _____ _____    ______ ____
ROOT
ATOM      4  C   UNL     1      44.110   4.473  11.607  0.00  0.00    +0.000 A 
ATOM      5  C   UNL     1      45.035   5.460  11.293  0.00  0.00    +0.000 A 
ATOM      6  C   UNL     1      45.643   5.434  10.039  0.00  0.00    +0.000 A 
ATOM      7  C   UNL     1      45.350   4.411   9.137  0.00  0.00    +0.000 A 
ATOM      8  N   UNL     1      46.006   4.449   7.911  0.00  0.00    +0.000 N 
ATOM     14  N   UNL     1      44.488   3.424   9.445  0.00  0.00    +0.000 NA
ATOM     15  C   UNL     1      43.883   3.478  10.667  0.00  0.00    +0.000 A 
ATOM     18  H   UNL     1      45.786   5.310   7.421  0.00  0.00    +0.000 HD
ENDROOT
BRANCH   4   2
ATOM      1  N   UNL     1      42.643   5.534  13.233  0.00  0.00    +0.000 N 
ATOM      2  C   UNL     1      43.385   4.435  12.896  0.00  0.00    +0.000 C 
ATOM      3  O   UNL     1      43.417   3.452  13.622  0.00  0.00    +0.000 OA
ATOM     16  H   UNL     1      42.082   5.459  14.070  0.00  0.00    +0.000 HD
ATOM     17  H   UNL     1      42.401   6.260  12.575  0.00  0.00    +0.000 HD
ENDBRANCH   4   2
BRANCH   8   9
ATOM      9  C   UNL     1      46.024   3.275   7.050  0.00  0.00    +0.000 C 
ATOM     10  C   UNL     1      46.826   2.190   7.781  0.00  0.00    +0.000 C 
ATOM     11  C   UNL     1      47.533   1.367   6.716  0.00  0.00    +0.000 C 
ATOM     12  C   UNL     1      47.337   2.099   5.396  0.00  0.00    +0.000 C 
ATOM     13  C   UNL     1      46.787   3.478   5.747  0.00  0.00    +0.000 C 
ENDBRANCH   8   9
TORSDOF 2
ENDMDL
MODEL 4
REMARK VINA RESULT:    -6.456      1.221      1.838
REMARK INTER + INTRA:          -7.370
REMARK INTER:                  -7.416
REMARK INTRA:                   0.045
REMARK UNBOUND:                -0.159
REMARK  Name = 
REMARK  2 active torsions:
REMARK  status: ('A' for Active; 'I' for Inactive)
REMARK    1  A    between atoms: C_2  and  C_4
REMARK    2  A    between atoms: N_8  and  C_9
REMARK                            x       y       z     vdW  Elec       q    Type
REMARK                         _______ _______ _______ _____ _____    ______ ____
ROOT
ATOM      4  C   UNL     1      46.662   2.524   7.365  0.00  0.00    +0.000 A 
ATOM      5  C   UNL     1      46.730   3.897   7.170  0.00  0.00    +0.000 A 
ATOM      6  C   UNL     1      46.083   4.736   8.077  0.00  0.00    +0.000 A 
ATOM      7  C   UNL     1      45.352   4.196   9.136  0.00  0.00    +0.000 A 
ATOM      8  N   UNL     1      44.726   5.098   9.990  0.00  0.00    +0.000 N 
ATOM     14  N   UNL     1      45.243   2.866   9.311  0.00  0.00    +0.000 NA
ATOM     15  C   UNL     1      45.902   2.059   8.430  0.00  0.00    +0.000 A 
ATOM     18  H   UNL     1      45.413   5.707  10.421  0.00  0.00    +0.000 HD
ENDROOT
BRANCH   4   2
ATOM      1  N   UNL     1      48.315   2.039   5.646  0.00  0.00    +0.000 N 
ATOM      2  C   UNL     1      47.344   1.554   6.480  0.00  0.00    +0.000 C 
ATOM      3  O   UNL     1      47.080   0.362   6.510  0.00  0.00    +0.000 OA
ATOM     16  H   UNL     1      48.835   1.355   5.115  0.00  0.00    +0.000 HD
ATOM     17  H   UNL     1      48.724   2.956   5.750  0.00  0.00    +0.000 HD
ENDBRANCH   4   2
BRANCH   8   9
ATOM      9  C   UNL     1      43.690   4.644  10.906  0.00  0.00    +0.000 C 
ATOM     10  C   UNL     1      43.053   5.895  11.524  0.00  0.00    +0.000 C 
ATOM     11  C   UNL     1      42.636   5.529  12.940  0.00  0.00    +0.000 C 
ATOM     12  C   UNL     1      43.228   4.156  13.228  0.00  0.00    +0.000 C 
ATOM     13  C   UNL     1      44.225   3.873  12.108  0.00  0.00    +0.000 C 
ENDBRANCH   8   9
TORSDOF 2
ENDMDL
MODEL 5
REMARK VINA RESULT:    -6.424      1.644      1.847
REMARK INTER + INTRA:          -7.334
REMARK INTER:                  -7.195
REMARK INTRA:                  -0.139
REMARK UNBOUND:                -0.159
REMARK  Name = 
REMARK  2 active torsions:
REMARK  status: ('A' for Active; 'I' for Inactive)
REMARK    1  A    between atoms: C_2  and  C_4
REMARK    2  A    between atoms: N_8  and  C_9
REMARK                            x       y       z     vdW  Elec       q    Type
REMARK                         _______ _______ _______ _____ _____    ______ ____
ROOT
ATOM      4  C   UNL     1      46.511   2.700   7.443  0.00  0.00    +0.000 A 
ATOM      5  C   UNL     1      45.689   2.126   8.405  0.00  0.00    +0.000 A 
ATOM      6  C   UNL     1      45.088   2.954   9.352  0.00  0.00    +0.000 A 
ATOM      7  C   UNL     1      45.342   4.326   9.349  0.00  0.00    +0.000 A 
ATOM      8  N   UNL     1      44.713   5.081  10.334  0.00  0.00    +0.000 N 
ATOM     14  N   UNL     1      46.169   4.888   8.449  0.00  0.00    +0.000 NA
ATOM     15  C   UNL     1      46.731   4.068   7.514  0.00  0.00    +0.000 A 
ATOM     18  H   UNL     1      43.705   4.994  10.253  0.00  0.00    +0.000 HD
ENDROOT
BRANCH   4   2
ATOM      1  N   UNL     1      47.833   2.605   5.403  0.00  0.00    +0.000 N 
ATOM      2  C   UNL     1      47.164   1.912   6.375  0.00  0.00    +0.000 C 
ATOM      3  O   UNL     1      47.140   0.690   6.372  0.00  0.00    +0.000 OA
ATOM     16  H   UNL     1      48.350   2.053   4.732  0.00  0.00    +0.000 HD
ATOM     17  H   UNL     1      48.075   3.581   5.488  0.00  0.00    +0.000 HD
ENDBRANCH   4   2
BRANCH   8   9
ATOM      9  C   UNL     1      45.162   6.437  10.618  0.00  0.00    +0.000 C 
ATOM     10  C   UNL     1      46.444   6.323  11.453  0.00  0.00    +0.000 C 
ATOM     11  C   UNL     1      46.468   7.515  12.396  0.00  0.00    +0.000 C 
ATOM     12  C   UNL     1      45.109   8.192  12.279  0.00  0.00    +0.000 C 
ATOM     13  C   UNL     1      44.212   7.226  11.512  0.00  0.00    +0.000 C 
ENDBRANCH   8   9
TORSDOF 2
ENDMDL
MODEL 6
REMARK VINA RESULT:    -5.820      4.251      5.961
REMARK INTER + INTRA:          -6.660
REMARK INTER:                  -6.541
REMARK INTRA:                  -0.119
REMARK UNBOUND:                -0.159
REMARK  Name = 
REMARK  2 active torsions:
REMARK  status: ('A' for Active; 'I' for Inactive)
REMARK    1  A    between atoms: C_2  and  C_4
REMARK    2  A    between atoms: N_8  and  C_9
REMARK                            x       y       z     vdW  Elec       q    Type
REMARK                         _______ _______ _______ _____ _____    ______ ____
ROOT
ATOM      4  C   UNL     1      45.194   4.340  11.484  0.00  0.00    +0.000 A 
ATOM      5  C   UNL     1      45.675   5.613  11.760  0.00  0.00    +0.000 A 
ATOM      6  C   UNL     1      46.366   5.825  12.951  0.00  0.00    +0.000 A 
ATOM      7  C   UNL     1      46.535   4.781  13.861  0.00  0.00    +0.000 A 
ATOM      8  N   UNL     1      47.227   5.075  15.032  0.00  0.00    +0.000 N 
ATOM     14  N   UNL     1      46.037   3.553  13.626  0.00  0.00    +0.000 NA
ATOM     15  C   UNL     1      45.384   3.356  12.444  0.00  0.00    +0.000 A 
ATOM     18  H   UNL     1      48.164   5.397  14.814  0.00  0.00    +0.000 HD
ENDROOT
BRANCH   4   2
ATOM      1  N   UNL     1      44.688   4.823   9.154  0.00  0.00    +0.000 N 
ATOM      2  C   UNL     1      44.480   4.006  10.232  0.00  0.00    +0.000 C 
ATOM      3  O   UNL     1      43.757   3.025  10.147  0.00  0.00    +0.000 OA
ATOM     16  H   UNL     1      44.267   4.532   8.281  0.00  0.00    +0.000 HD
ATOM     17  H   UNL     1      45.440   5.494   9.106  0.00  0.00    +0.000 HD
ENDBRANCH   4   2
BRANCH   8   9
ATOM      9  C   UNL     1      47.169   4.167  16.168  0.00  0.00    +0.000 C 
ATOM     10  C   UNL     1      47.534   4.979  17.417  0.00  0.00    +0.000 C 
ATOM     11  C   UNL     1      48.254   4.035  18.366  0.00  0.00    +0.000 C 
ATOM     12  C   UNL     1      48.512   2.750  17.592  0.00  0.00    +0.000 C 
ATOM     13  C   UNL     1      48.219   3.063  16.128  0.00  0.00    +0.000 C 
ENDBRANCH   8   9
TORSDOF 2
ENDMDL
MODEL 7
REMARK VINA RESULT:    -5.527      4.386      6.911
REMARK INTER + INTRA:          -6.333
REMARK INTER:                  -6.092
REMARK INTRA:                  -0.241
REMARK UNBOUND:                -0.159
REMARK  Name = 
REMARK  2 active torsions:
REMARK  status: ('A' for Active; 'I' for Inactive)
REMARK    1  A    between atoms: C_2  and  C_4
REMARK    2  A    between atoms: N_8  and  C_9
REMARK                            x       y       z     vdW  Elec       q    Type
REMARK                         _______ _______ _______ _____ _____    ______ ____
ROOT
ATOM      4  C   UNL     1      47.153   7.928  13.358  0.00  0.00    +0.000 A 
ATOM      5  C   UNL     1      46.026   8.492  12.774  0.00  0.00    +0.000 A 
ATOM      6  C   UNL     1      45.238   7.703  11.938  0.00  0.00    +0.000 A 
ATOM      7  C   UNL     1      45.601   6.382  11.670  0.00  0.00    +0.000 A 
ATOM      8  N   UNL     1      44.769   5.664  10.818  0.00  0.00    +0.000 N 
ATOM     14  N   UNL     1      46.713   5.836  12.196  0.00  0.00    +0.000 NA
ATOM     15  C   UNL     1      47.461   6.614  13.031  0.00  0.00    +0.000 A 
ATOM     18  H   UNL     1      43.832   5.612  11.204  0.00  0.00    +0.000 HD
ENDROOT
BRANCH   4   2
ATOM      1  N   UNL     1      47.445   9.251  15.379  0.00  0.00    +0.000 N 
ATOM      2  C   UNL     1      48.032   8.671  14.287  0.00  0.00    +0.000 C 
ATOM      3  O   UNL     1      49.239   8.742  14.110  0.00  0.00    +0.000 OA
ATOM     16  H   UNL     1      48.069   9.677  16.051  0.00  0.00    +0.000 HD
ATOM     17  H   UNL     1      46.511   9.028  15.688  0.00  0.00    +0.000 HD
ENDBRANCH   4   2
BRANCH   8   9
ATOM      9  C   UNL     1      45.226   4.417  10.223  0.00  0.00    +0.000 C 
ATOM     10  C   UNL     1      45.670   4.735   8.789  0.00  0.00    +0.000 C 
ATOM     11  C   UNL     1      45.366   3.506   7.947  0.00  0.00    +0.000 C 
ATOM     12  C   UNL     1      44.546   2.569   8.822  0.00  0.00    +0.000 C 
ATOM     13  C   UNL     1      44.125   3.379  10.044  0.00  0.00    +0.000 C 
ENDBRANCH   8   9
TORSDOF 2
ENDMDL
MODEL 8
REMARK VINA RESULT:    -5.467      4.274      5.772
REMARK INTER + INTRA:          -6.265
REMARK INTER:                  -6.026
REMARK INTRA:                  -0.239
REMARK UNBOUND:                -0.159
REMARK  Name = 
REMARK  2 active torsions:
REMARK  status: ('A' for Active; 'I' for Inactive)
REMARK    1  A    between atoms: C_2  and  C_4
REMARK    2  A    between atoms: N_8  and  C_9
REMARK                            x       y       z     vdW  Elec       q    Type
REMARK                         _______ _______ _______ _____ _____    ______ ____
ROOT
ATOM      4  C   UNL     1      44.884   3.939  11.470  0.00  0.00    +0.000 A 
ATOM      5  C   UNL     1      45.376   3.970  12.768  0.00  0.00    +0.000 A 
ATOM      6  C   UNL     1      46.164   5.051  13.161  0.00  0.00    +0.000 A 
ATOM      7  C   UNL     1      46.479   6.059  12.250  0.00  0.00    +0.000 A 
ATOM      8  N   UNL     1      47.279   7.097  12.716  0.00  0.00    +0.000 N 
ATOM     14  N   UNL     1      46.044   6.020  10.977  0.00  0.00    +0.000 NA
ATOM     15  C   UNL     1      45.254   4.968  10.615  0.00  0.00    +0.000 A 
ATOM     18  H   UNL     1      46.826   7.568  13.493  0.00  0.00    +0.000 HD
ENDROOT
BRANCH   4   2
ATOM      1  N   UNL     1      44.420   2.187   9.847  0.00  0.00    +0.000 N 
ATOM      2  C   UNL     1      44.011   2.856  10.969  0.00  0.00    +0.000 C 
ATOM      3  O   UNL     1      42.981   2.543  11.546  0.00  0.00    +0.000 OA
ATOM     16  H   UNL     1      43.862   1.391   9.569  0.00  0.00    +0.000 HD
ATOM     17  H   UNL     1      45.357   2.249   9.477  0.00  0.00    +0.000 HD
ENDBRANCH   4   2
BRANCH   8   9
ATOM      9  C   UNL     1      47.925   8.004  11.779  0.00  0.00    +0.000 C 
ATOM     10  C   UNL     1      49.418   7.650  11.762  0.00  0.00    +0.000 C 
ATOM     11  C   UNL     1      50.179   8.943  11.516  0.00  0.00    +0.000 C 
ATOM     12  C   UNL     1      49.164  10.073  11.619  0.00  0.00    +0.000 C 
ATOM     13  C   UNL     1      47.900   9.464  12.217  0.00  0.00    +0.000 C 
ENDBRANCH   8   9
TORSDOF 2
ENDMDL
MODEL 9
REMARK VINA RESULT:    -5.444      3.347      6.105
REMARK INTER + INTRA:          -6.240
REMARK INTER:                  -7.201
REMARK INTRA:                   0.961
REMARK UNBOUND:                -0.159
REMARK  Name = 
REMARK  2 active torsions:
REMARK  status: ('A' for Active; 'I' for Inactive)
REMARK    1  A    between atoms: C_2  and  C_4
REMARK    2  A    between atoms: N_8  and  C_9
REMARK                            x       y       z     vdW  Elec       q    Type
REMARK                         _______ _______ _______ _____ _____    ______ ____
ROOT
ATOM      4  C   UNL     1      45.323   6.505  12.177  0.00  0.00    +0.000 A 
ATOM      5  C   UNL     1      44.236   5.756  12.611  0.00  0.00    +0.000 A 
ATOM      6  C   UNL     1      43.874   4.621  11.888  0.00  0.00    +0.000 A 
ATOM      7  C   UNL     1      44.571   4.271  10.731  0.00  0.00    +0.000 A 
ATOM      8  N   UNL     1      44.141   3.131  10.061  0.00  0.00    +0.000 N 
ATOM     14  N   UNL     1      45.598   5.012  10.276  0.00  0.00    +0.000 NA
ATOM     15  C   UNL     1      45.956   6.107  11.008  0.00  0.00    +0.000 A 
ATOM     18  H   UNL     1      44.205   2.321  10.668  0.00  0.00    +0.000 HD
ENDROOT
BRANCH   4   2
ATOM      1  N   UNL     1      46.925   7.563  13.671  0.00  0.00    +0.000 N 
ATOM      2  C   UNL     1      45.807   7.705  12.895  0.00  0.00    +0.000 C 
ATOM      3  O   UNL     1      45.255   8.789  12.778  0.00  0.00    +0.000 OA
ATOM     16  H   UNL     1      47.297   8.409  14.082  0.00  0.00    +0.000 HD
ATOM     17  H   UNL     1      47.539   6.764  13.615  0.00  0.00    +0.000 HD
ENDBRANCH   4   2
BRANCH   8   9
ATOM      9  C   UNL     1      44.575   2.874   8.695  0.00  0.00    +0.000 C 
ATOM     10  C   UNL     1      45.622   1.754   8.756  0.00  0.00    +0.000 C 
ATOM     11  C   UNL     1      46.616   2.014   7.636  0.00  0.00    +0.000 C 
ATOM     12  C   UNL     1      46.291   3.391   7.073  0.00  0.00    +0.000 C 
ATOM     13  C   UNL     1      45.322   4.040   8.057  0.00  0.00    +0.000 C 
ENDBRANCH   8   9
TORSDOF 2
ENDMDL
