MODEL 1
REMARK VINA RESULT:    -7.354      0.000      0.000
REMARK INTER + INTRA:         -17.013
REMARK INTER:                 -14.232
REMARK INTRA:                  -2.781
REMARK UNBOUND:                -2.781
REMARK  Name = 
REMARK  17 active torsions:
REMARK  status: ('A' for Active; 'I' for Inactive)
REMARK    1  A    between atoms: C_1  and  C_2
REMARK    2  A    between atoms: C_2  and  C_3
REMARK    3  A    between atoms: C_3  and  C_4
REMARK    4  A    between atoms: C_4  and  C_5
REMARK    5  A    between atoms: C_5  and  C_6
REMARK    6  A    between atoms: C_6  and  C_7
REMARK    7  A    between atoms: C_7  and  C_8
REMARK    8  A    between atoms: C_8  and  N_9
REMARK    9  A    between atoms: N_9  and  C_10
REMARK   10  A    between atoms: C_10  and  C_11
REMARK   11  A    between atoms: C_14  and  C_15
REMARK   12  A    between atoms: C_15  and  N_16
REMARK   13  A    between atoms: C_17  and  C_19
REMARK   14  A    between atoms: C_26  and  O_27
REMARK   15  A    between atoms: O_27  and  C_28
REMARK   16  A    between atoms: C_28  and  C_29
REMARK   17  A    between atoms: C_32  and  N_33
REMARK                            x       y       z     vdW  Elec       q    Type
REMARK                         _______ _______ _______ _____ _____    ______ ____
ROOT
ATOM     16  N   UNL     1      49.097   7.868  14.321  0.00  0.00    +0.000 N 
ATOM     17  C   UNL     1      49.672   7.450  15.489  0.00  0.00    +0.000 C 
ATOM     18  O   UNL     1      50.040   6.296  15.677  0.00  0.00    +0.000 OA
ATOM     42  H   UNL     1      48.629   8.761  14.318  0.00  0.00    +0.000 HD
ENDROOT
BRANCH  17  19
ATOM     19  C   UNL     1      49.886   8.510  16.481  0.00  0.00    +0.000 A 
ATOM     20  C   UNL     1      50.882   9.455  16.280  0.00  0.00    +0.000 A 
ATOM     21  S   UNL     1      50.918  10.658  17.488  0.00  0.00    +0.000 S 
ATOM     22  C   UNL     1      49.642   9.920  18.335  0.00  0.00    +0.000 A 
ATOM     23  N   UNL     1      49.185  10.465  19.477  0.00  0.00    +0.000 NA
ATOM     24  C   UNL     1      48.187   9.764  20.019  0.00  0.00    +0.000 A 
ATOM     25  N   UNL     1      47.647   8.626  19.562  0.00  0.00    +0.000 NA
ATOM     26  C   UNL     1      48.151   8.114  18.426  0.00  0.00    +0.000 A 
ATOM     38  C   UNL     1      49.175   8.766  17.725  0.00  0.00    +0.000 A 
BRANCH  26  27
ATOM     27  O   UNL     1      47.561   6.988  17.893  0.00  0.00    +0.000 OA
BRANCH  27  28
ATOM     28  C   UNL     1      47.499   5.860  18.764  0.00  0.00    +0.000 C 
BRANCH  28  29
ATOM     29  C   UNL     1      48.290   4.701  18.206  0.00  0.00    +0.000 A 
ATOM     30  C   UNL     1      47.647   3.732  17.426  0.00  0.00    +0.000 A 
ATOM     31  C   UNL     1      48.364   2.669  16.873  0.00  0.00    +0.000 A 
ATOM     32  C   UNL     1      49.745   2.548  17.077  0.00  0.00    +0.000 A 
ATOM     36  C   UNL     1      50.375   3.494  17.896  0.00  0.00    +0.000 A 
ATOM     37  C   UNL     1      49.659   4.558  18.460  0.00  0.00    +0.000 A 
BRANCH  32  33
ATOM     33  N   UNL     1      50.524   1.502  16.551  0.00  0.00    +0.000 NA
ATOM     34  N   UNL     1      51.384   1.044  17.331  0.00  0.00    +0.000 NA
ATOM     35  N   UNL     1      52.178   0.625  18.032  0.00  0.00    +0.000 NA
ENDBRANCH  32  33
ENDBRANCH  28  29
ENDBRANCH  27  28
ENDBRANCH  26  27
ENDBRANCH  17  19
BRANCH  16  15
ATOM     15  C   UNL     1      48.794   7.002  13.217  0.00  0.00    +0.000 C 
BRANCH  15  14
ATOM     11  C   UNL     1      44.701   5.570  13.099  0.00  0.00    +0.000 A 
ATOM     12  C   UNL     1      45.019   6.804  12.518  0.00  0.00    +0.000 A 
ATOM     13  C   UNL     1      46.327   7.289  12.552  0.00  0.00    +0.000 A 
ATOM     14  C   UNL     1      47.346   6.566  13.191  0.00  0.00    +0.000 A 
ATOM     39  C   UNL     1      47.011   5.353  13.809  0.00  0.00    +0.000 A 
ATOM     40  C   UNL     1      45.708   4.857  13.757  0.00  0.00    +0.000 A 
BRANCH  11  10
ATOM     10  C   UNL     1      43.308   5.008  12.987  0.00  0.00    +0.000 C 
BRANCH  10   9
ATOM      9  N   UNL     1      43.067   4.504  11.638  0.00  0.00    +0.000 NA
ATOM     41  H   UNL     1      42.089   4.641  11.392  0.00  0.00    +0.000 HD
BRANCH   9   8
ATOM      8  C   UNL     1      43.401   3.091  11.536  0.00  0.00    +0.000 C 
BRANCH   8   7
ATOM      7  C   UNL     1      44.711   2.956  10.769  0.00  0.00    +0.000 C 
BRANCH   7   6
ATOM      6  C   UNL     1      44.758   3.966   9.630  0.00  0.00    +0.000 C 
BRANCH   6   5
ATOM      5  C   UNL     1      44.938   3.264   8.291  0.00  0.00    +0.000 C 
BRANCH   5   4
ATOM      4  C   UNL     1      45.592   1.902   8.491  0.00  0.00    +0.000 C 
BRANCH   4   3
ATOM      3  C   UNL     1      46.812   1.753   7.591  0.00  0.00    +0.000 C 
BRANCH   3   2
ATOM      1  C   UNL     1      46.960   2.818   5.326  0.00  0.00    +0.000 C 
ATOM      2  C   UNL     1      47.082   3.042   6.822  0.00  0.00    +0.000 C 
ENDBRANCH   3   2
ENDBRANCH   4   3
ENDBRANCH   5   4
ENDBRANCH   6   5
ENDBRANCH   7   6
ENDBRANCH   8   7
ENDBRANCH   9   8
ENDBRANCH  10   9
ENDBRANCH  11  10
ENDBRANCH  15  14
ENDBRANCH  16  15
TORSDOF 16
ENDMDL
MODEL 2
REMARK VINA RESULT:    -7.080      3.383      4.865
REMARK INTER + INTRA:         -16.483
REMARK INTER:                 -12.705
REMARK INTRA:                  -3.777
REMARK UNBOUND:                -2.781
REMARK  Name = 
REMARK  17 active torsions:
REMARK  status: ('A' for Active; 'I' for Inactive)
REMARK    1  A    between atoms: C_1  and  C_2
REMARK    2  A    between atoms: C_2  and  C_3
REMARK    3  A    between atoms: C_3  and  C_4
REMARK    4  A    between atoms: C_4  and  C_5
REMARK    5  A    between atoms: C_5  and  C_6
REMARK    6  A    between atoms: C_6  and  C_7
REMARK    7  A    between atoms: C_7  and  C_8
REMARK    8  A    between atoms: C_8  and  N_9
REMARK    9  A    between atoms: N_9  and  C_10
REMARK   10  A    between atoms: C_10  and  C_11
REMARK   11  A    between atoms: C_14  and  C_15
REMARK   12  A    between atoms: C_15  and  N_16
REMARK   13  A    between atoms: C_17  and  C_19
REMARK   14  A    between atoms: C_26  and  O_27
REMARK   15  A    between atoms: O_27  and  C_28
REMARK   16  A    between atoms: C_28  and  C_29
REMARK   17  A    between atoms: C_32  and  N_33
REMARK                            x       y       z     vdW  Elec       q    Type
REMARK                         _______ _______ _______ _____ _____    ______ ____
ROOT
ATOM     16  N   UNL     1      49.990   8.884  11.773  0.00  0.00    +0.000 N 
ATOM     17  C   UNL     1      51.086   9.503  11.239  0.00  0.00    +0.000 C 
ATOM     18  O   UNL     1      51.077  10.667  10.857  0.00  0.00    +0.000 OA
ATOM     42  H   UNL     1      50.010   7.879  11.860  0.00  0.00    +0.000 HD
ENDROOT
BRANCH  17  19
ATOM     19  C   UNL     1      52.306   8.687  11.227  0.00  0.00    +0.000 A 
ATOM     20  C   UNL     1      52.868   8.298  10.020  0.00  0.00    +0.000 A 
ATOM     21  S   UNL     1      54.329   7.438  10.206  0.00  0.00    +0.000 S 
ATOM     22  C   UNL     1      54.220   7.518  11.901  0.00  0.00    +0.000 A 
ATOM     23  N   UNL     1      55.178   6.963  12.666  0.00  0.00    +0.000 NA
ATOM     24  C   UNL     1      54.943   7.109  13.971  0.00  0.00    +0.000 A 
ATOM     25  N   UNL     1      53.893   7.707  14.549  0.00  0.00    +0.000 NA
ATOM     26  C   UNL     1      52.956   8.230  13.741  0.00  0.00    +0.000 A 
ATOM     38  C   UNL     1      53.091   8.188  12.346  0.00  0.00    +0.000 A 
BRANCH  26  27
ATOM     27  O   UNL     1      51.906   8.919  14.310  0.00  0.00    +0.000 OA
BRANCH  27  28
ATOM     28  C   UNL     1      51.669   8.642  15.688  0.00  0.00    +0.000 C 
BRANCH  28  29
ATOM     29  C   UNL     1      50.628   7.559  15.852  0.00  0.00    +0.000 A 
ATOM     30  C   UNL     1      49.459   7.597  15.084  0.00  0.00    +0.000 A 
ATOM     31  C   UNL     1      48.498   6.589  15.196  0.00  0.00    +0.000 A 
ATOM     32  C   UNL     1      48.683   5.512  16.072  0.00  0.00    +0.000 A 
ATOM     36  C   UNL     1      49.833   5.503  16.872  0.00  0.00    +0.000 A 
ATOM     37  C   UNL     1      50.796   6.516  16.770  0.00  0.00    +0.000 A 
BRANCH  32  33
ATOM     33  N   UNL     1      47.755   4.467  16.233  0.00  0.00    +0.000 NA
ATOM     34  N   UNL     1      47.533   3.798  15.204  0.00  0.00    +0.000 NA
ATOM     35  N   UNL     1      47.317   3.187  14.267  0.00  0.00    +0.000 NA
ENDBRANCH  32  33
ENDBRANCH  28  29
ENDBRANCH  27  28
ENDBRANCH  26  27
ENDBRANCH  17  19
BRANCH  16  15
ATOM     15  C   UNL     1      48.694   9.493  11.882  0.00  0.00    +0.000 C 
BRANCH  15  14
ATOM     11  C   UNL     1      45.474   6.676  12.594  0.00  0.00    +0.000 A 
ATOM     12  C   UNL     1      46.661   6.233  11.998  0.00  0.00    +0.000 A 
ATOM     13  C   UNL     1      47.706   7.123  11.751  0.00  0.00    +0.000 A 
ATOM     14  C   UNL     1      47.583   8.484  12.068  0.00  0.00    +0.000 A 
ATOM     39  C   UNL     1      46.375   8.929  12.622  0.00  0.00    +0.000 A 
ATOM     40  C   UNL     1      45.336   8.036  12.890  0.00  0.00    +0.000 A 
BRANCH  11  10
ATOM     10  C   UNL     1      44.379   5.700  12.938  0.00  0.00    +0.000 C 
BRANCH  10   9
ATOM      9  N   UNL     1      44.927   4.357  13.103  0.00  0.00    +0.000 NA
ATOM     41  H   UNL     1      45.867   4.322  12.717  0.00  0.00    +0.000 HD
BRANCH   9   8
ATOM      8  C   UNL     1      44.093   3.363  12.445  0.00  0.00    +0.000 C 
BRANCH   8   7
ATOM      7  C   UNL     1      43.802   3.836  11.025  0.00  0.00    +0.000 C 
BRANCH   7   6
ATOM      6  C   UNL     1      44.859   3.300  10.068  0.00  0.00    +0.000 C 
BRANCH   6   5
ATOM      5  C   UNL     1      44.705   3.925   8.688  0.00  0.00    +0.000 C 
BRANCH   5   4
ATOM      4  C   UNL     1      45.547   3.169   7.667  0.00  0.00    +0.000 C 
BRANCH   4   3
ATOM      3  C   UNL     1      46.066   1.864   8.258  0.00  0.00    +0.000 C 
BRANCH   3   2
ATOM      1  C   UNL     1      47.943   2.261   6.645  0.00  0.00    +0.000 C 
ATOM      2  C   UNL     1      47.085   1.213   7.329  0.00  0.00    +0.000 C 
ENDBRANCH   3   2
ENDBRANCH   4   3
ENDBRANCH   5   4
ENDBRANCH   6   5
ENDBRANCH   7   6
ENDBRANCH   8   7
ENDBRANCH   9   8
ENDBRANCH  10   9
ENDBRANCH  11  10
ENDBRANCH  15  14
ENDBRANCH  16  15
TORSDOF 16
ENDMDL
MODEL 3
REMARK VINA RESULT:    -6.914      3.100      8.750
REMARK INTER + INTRA:         -16.161
REMARK INTER:                 -12.409
REMARK INTRA:                  -3.752
REMARK UNBOUND:                -2.781
REMARK  Name = 
REMARK  17 active torsions:
REMARK  status: ('A' for Active; 'I' for Inactive)
REMARK    1  A    between atoms: C_1  and  C_2
REMARK    2  A    between atoms: C_2  and  C_3
REMARK    3  A    between atoms: C_3  and  C_4
REMARK    4  A    between atoms: C_4  and  C_5
REMARK    5  A    between atoms: C_5  and  C_6
REMARK    6  A    between atoms: C_6  and  C_7
REMARK    7  A    between atoms: C_7  and  C_8
REMARK    8  A    between atoms: C_8  and  N_9
REMARK    9  A    between atoms: N_9  and  C_10
REMARK   10  A    between atoms: C_10  and  C_11
REMARK   11  A    between atoms: C_14  and  C_15
REMARK   12  A    between atoms: C_15  and  N_16
REMARK   13  A    between atoms: C_17  and  C_19
REMARK   14  A    between atoms: C_26  and  O_27
REMARK   15  A    between atoms: O_27  and  C_28
REMARK   16  A    between atoms: C_28  and  C_29
REMARK   17  A    between atoms: C_32  and  N_33
REMARK                            x       y       z     vdW  Elec       q    Type
REMARK                         _______ _______ _______ _____ _____    ______ ____
ROOT
ATOM     16  N   UNL     1      46.867   5.513  14.335  0.00  0.00    +0.000 N 
ATOM     17  C   UNL     1      47.684   6.165  13.452  0.00  0.00    +0.000 C 
ATOM     18  O   UNL     1      48.656   5.636  12.926  0.00  0.00    +0.000 OA
ATOM     42  H   UNL     1      46.228   6.067  14.884  0.00  0.00    +0.000 HD
ENDROOT
BRANCH  17  19
ATOM     19  C   UNL     1      47.261   7.529  13.118  0.00  0.00    +0.000 A 
ATOM     20  C   UNL     1      48.033   8.611  13.517  0.00  0.00    +0.000 A 
ATOM     21  S   UNL     1      47.433  10.106  12.958  0.00  0.00    +0.000 S 
ATOM     22  C   UNL     1      46.102   9.353  12.215  0.00  0.00    +0.000 A 
ATOM     23  N   UNL     1      45.193  10.090  11.551  0.00  0.00    +0.000 NA
ATOM     24  C   UNL     1      44.211   9.352  11.031  0.00  0.00    +0.000 A 
ATOM     25  N   UNL     1      44.053   8.024  11.122  0.00  0.00    +0.000 NA
ATOM     26  C   UNL     1      44.980   7.336  11.810  0.00  0.00    +0.000 A 
ATOM     38  C   UNL     1      46.091   7.976  12.377  0.00  0.00    +0.000 A 
BRANCH  26  27
ATOM     27  O   UNL     1      44.883   5.961  11.851  0.00  0.00    +0.000 OA
BRANCH  27  28
ATOM     28  C   UNL     1      43.896   5.392  10.994  0.00  0.00    +0.000 C 
BRANCH  28  29
ATOM     29  C   UNL     1      44.495   4.322  10.112  0.00  0.00    +0.000 A 
ATOM     30  C   UNL     1      45.378   4.681   9.086  0.00  0.00    +0.000 A 
ATOM     31  C   UNL     1      45.969   3.707   8.279  0.00  0.00    +0.000 A 
ATOM     32  C   UNL     1      45.702   2.346   8.480  0.00  0.00    +0.000 A 
ATOM     36  C   UNL     1      44.783   1.996   9.477  0.00  0.00    +0.000 A 
ATOM     37  C   UNL     1      44.180   2.970  10.284  0.00  0.00    +0.000 A 
BRANCH  32  33
ATOM     33  N   UNL     1      46.261   1.316   7.702  0.00  0.00    +0.000 NA
ATOM     34  N   UNL     1      47.366   1.587   7.189  0.00  0.00    +0.000 NA
ATOM     35  N   UNL     1      48.370   1.828   6.708  0.00  0.00    +0.000 NA
ENDBRANCH  32  33
ENDBRANCH  28  29
ENDBRANCH  27  28
ENDBRANCH  26  27
ENDBRANCH  17  19
BRANCH  16  15
ATOM     15  C   UNL     1      47.091   4.174  14.802  0.00  0.00    +0.000 C 
BRANCH  15  14
ATOM     11  C   UNL     1      48.370   4.208  18.947  0.00  0.00    +0.000 A 
ATOM     12  C   UNL     1      48.732   3.137  18.120  0.00  0.00    +0.000 A 
ATOM     13  C   UNL     1      48.324   3.101  16.787  0.00  0.00    +0.000 A 
ATOM     14  C   UNL     1      47.522   4.120  16.251  0.00  0.00    +0.000 A 
ATOM     39  C   UNL     1      47.126   5.166  17.096  0.00  0.00    +0.000 A 
ATOM     40  C   UNL     1      47.552   5.214  18.425  0.00  0.00    +0.000 A 
BRANCH  11  10
ATOM     10  C   UNL     1      48.881   4.290  20.362  0.00  0.00    +0.000 C 
BRANCH  10   9
ATOM      9  N   UNL     1      50.316   4.560  20.371  0.00  0.00    +0.000 NA
ATOM     41  H   UNL     1      50.730   4.173  21.217  0.00  0.00    +0.000 HD
BRANCH   9   8
ATOM      8  C   UNL     1      50.584   5.988  20.307  0.00  0.00    +0.000 C 
BRANCH   8   7
ATOM      7  C   UNL     1      51.966   6.198  19.700  0.00  0.00    +0.000 C 
BRANCH   7   6
ATOM      6  C   UNL     1      52.182   5.229  18.545  0.00  0.00    +0.000 C 
BRANCH   6   5
ATOM      5  C   UNL     1      52.145   5.962  17.211  0.00  0.00    +0.000 C 
BRANCH   5   4
ATOM      4  C   UNL     1      50.731   5.953  16.641  0.00  0.00    +0.000 C 
BRANCH   4   3
ATOM      3  C   UNL     1      50.357   7.330  16.108  0.00  0.00    +0.000 C 
BRANCH   3   2
ATOM      1  C   UNL     1      50.266   9.141  17.839  0.00  0.00    +0.000 C 
ATOM      2  C   UNL     1      49.473   8.077  17.102  0.00  0.00    +0.000 C 
ENDBRANCH   3   2
ENDBRANCH   4   3
ENDBRANCH   5   4
ENDBRANCH   6   5
ENDBRANCH   7   6
ENDBRANCH   8   7
ENDBRANCH   9   8
ENDBRANCH  10   9
ENDBRANCH  11  10
ENDBRANCH  15  14
ENDBRANCH  16  15
TORSDOF 16
ENDMDL
MODEL 4
REMARK VINA RESULT:    -6.806      2.711      3.594
REMARK INTER + INTRA:         -15.953
REMARK INTER:                 -12.356
REMARK INTRA:                  -3.597
REMARK UNBOUND:                -2.781
REMARK  Name = 
REMARK  17 active torsions:
REMARK  status: ('A' for Active; 'I' for Inactive)
REMARK    1  A    between atoms: C_1  and  C_2
REMARK    2  A    between atoms: C_2  and  C_3
REMARK    3  A    between atoms: C_3  and  C_4
REMARK    4  A    between atoms: C_4  and  C_5
REMARK    5  A    between atoms: C_5  and  C_6
REMARK    6  A    between atoms: C_6  and  C_7
REMARK    7  A    between atoms: C_7  and  C_8
REMARK    8  A    between atoms: C_8  and  N_9
REMARK    9  A    between atoms: N_9  and  C_10
REMARK   10  A    between atoms: C_10  and  C_11
REMARK   11  A    between atoms: C_14  and  C_15
REMARK   12  A    between atoms: C_15  and  N_16
REMARK   13  A    between atoms: C_17  and  C_19
REMARK   14  A    between atoms: C_26  and  O_27
REMARK   15  A    between atoms: O_27  and  C_28
REMARK   16  A    between atoms: C_28  and  C_29
REMARK   17  A    between atoms: C_32  and  N_33
REMARK                            x       y       z     vdW  Elec       q    Type
REMARK                         _______ _______ _______ _____ _____    ______ ____
ROOT
ATOM     16  N   UNL     1      51.527   7.613  14.745  0.00  0.00    +0.000 N 
ATOM     17  C   UNL     1      52.146   8.072  15.875  0.00  0.00    +0.000 C 
ATOM     18  O   UNL     1      52.207   9.260  16.167  0.00  0.00    +0.000 OA
ATOM     42  H   UNL     1      51.703   6.661  14.463  0.00  0.00    +0.000 HD
ENDROOT
BRANCH  17  19
ATOM     19  C   UNL     1      52.666   7.022  16.758  0.00  0.00    +0.000 A 
ATOM     20  C   UNL     1      53.677   6.182  16.314  0.00  0.00    +0.000 A 
ATOM     21  S   UNL     1      54.216   5.091  17.509  0.00  0.00    +0.000 S 
ATOM     22  C   UNL     1      53.079   5.676  18.630  0.00  0.00    +0.000 A 
ATOM     23  N   UNL     1      53.021   5.153  19.868  0.00  0.00    +0.000 NA
ATOM     24  C   UNL     1      52.076   5.717  20.621  0.00  0.00    +0.000 A 
ATOM     25  N   UNL     1      51.221   6.687  20.267  0.00  0.00    +0.000 NA
ATOM     26  C   UNL     1      51.310   7.164  19.014  0.00  0.00    +0.000 A 
ATOM     38  C   UNL     1      52.285   6.693  18.123  0.00  0.00    +0.000 A 
BRANCH  26  27
ATOM     27  O   UNL     1      50.496   8.216  18.651  0.00  0.00    +0.000 OA
BRANCH  27  28
ATOM     28  C   UNL     1      49.109   8.039  18.930  0.00  0.00    +0.000 C 
BRANCH  28  29
ATOM     29  C   UNL     1      48.556   6.843  18.193  0.00  0.00    +0.000 A 
ATOM     30  C   UNL     1      48.768   6.716  16.815  0.00  0.00    +0.000 A 
ATOM     31  C   UNL     1      48.294   5.602  16.119  0.00  0.00    +0.000 A 
ATOM     32  C   UNL     1      47.601   4.579  16.781  0.00  0.00    +0.000 A 
ATOM     36  C   UNL     1      47.351   4.734  18.151  0.00  0.00    +0.000 A 
ATOM     37  C   UNL     1      47.817   5.854  18.853  0.00  0.00    +0.000 A 
BRANCH  32  33
ATOM     33  N   UNL     1      47.095   3.434  16.140  0.00  0.00    +0.000 NA
ATOM     34  N   UNL     1      47.188   3.445  14.896  0.00  0.00    +0.000 NA
ATOM     35  N   UNL     1      47.259   3.450  13.759  0.00  0.00    +0.000 NA
ENDBRANCH  32  33
ENDBRANCH  28  29
ENDBRANCH  27  28
ENDBRANCH  26  27
ENDBRANCH  17  19
BRANCH  16  15
ATOM     15  C   UNL     1      50.948   8.462  13.742  0.00  0.00    +0.000 C 
BRANCH  15  14
ATOM     11  C   UNL     1      46.806   7.428  12.975  0.00  0.00    +0.000 A 
ATOM     12  C   UNL     1      47.828   6.662  12.399  0.00  0.00    +0.000 A 
ATOM     13  C   UNL     1      49.167   6.982  12.626  0.00  0.00    +0.000 A 
ATOM     14  C   UNL     1      49.520   8.091  13.409  0.00  0.00    +0.000 A 
ATOM     39  C   UNL     1      48.492   8.880  13.943  0.00  0.00    +0.000 A 
ATOM     40  C   UNL     1      47.152   8.549  13.736  0.00  0.00    +0.000 A 
BRANCH  11  10
ATOM     10  C   UNL     1      45.362   7.033  12.800  0.00  0.00    +0.000 C 
BRANCH  10   9
ATOM      9  N   UNL     1      45.125   5.706  13.362  0.00  0.00    +0.000 NA
ATOM     41  H   UNL     1      46.010   5.212  13.455  0.00  0.00    +0.000 HD
BRANCH   9   8
ATOM      8  C   UNL     1      44.222   4.933  12.523  0.00  0.00    +0.000 C 
BRANCH   8   7
ATOM      7  C   UNL     1      44.200   5.554  11.131  0.00  0.00    +0.000 C 
BRANCH   7   6
ATOM      6  C   UNL     1      45.066   4.739  10.180  0.00  0.00    +0.000 C 
BRANCH   6   5
ATOM      5  C   UNL     1      44.830   3.247  10.377  0.00  0.00    +0.000 C 
BRANCH   5   4
ATOM      4  C   UNL     1      44.777   2.537   9.031  0.00  0.00    +0.000 C 
BRANCH   4   3
ATOM      3  C   UNL     1      45.519   3.339   7.969  0.00  0.00    +0.000 C 
BRANCH   3   2
ATOM      1  C   UNL     1      46.785   2.903   5.849  0.00  0.00    +0.000 C 
ATOM      2  C   UNL     1      46.594   2.490   7.297  0.00  0.00    +0.000 C 
ENDBRANCH   3   2
ENDBRANCH   4   3
ENDBRANCH   5   4
ENDBRANCH   6   5
ENDBRANCH   7   6
ENDBRANCH   8   7
ENDBRANCH   9   8
ENDBRANCH  10   9
ENDBRANCH  11  10
ENDBRANCH  15  14
ENDBRANCH  16  15
TORSDOF 16
ENDMDL
MODEL 5
REMARK VINA RESULT:    -6.804      3.173      8.915
REMARK INTER + INTRA:         -15.949
REMARK INTER:                 -13.307
REMARK INTRA:                  -2.642
REMARK UNBOUND:                -2.781
REMARK  Name = 
REMARK  17 active torsions:
REMARK  status: ('A' for Active; 'I' for Inactive)
REMARK    1  A    between atoms: C_1  and  C_2
REMARK    2  A    between atoms: C_2  and  C_3
REMARK    3  A    between atoms: C_3  and  C_4
REMARK    4  A    between atoms: C_4  and  C_5
REMARK    5  A    between atoms: C_5  and  C_6
REMARK    6  A    between atoms: C_6  and  C_7
REMARK    7  A    between atoms: C_7  and  C_8
REMARK    8  A    between atoms: C_8  and  N_9
REMARK    9  A    between atoms: N_9  and  C_10
REMARK   10  A    between atoms: C_10  and  C_11
REMARK   11  A    between atoms: C_14  and  C_15
REMARK   12  A    between atoms: C_15  and  N_16
REMARK   13  A    between atoms: C_17  and  C_19
REMARK   14  A    between atoms: C_26  and  O_27
REMARK   15  A    between atoms: O_27  and  C_28
REMARK   16  A    between atoms: C_28  and  C_29
REMARK   17  A    between atoms: C_32  and  N_33
REMARK                            x       y       z     vdW  Elec       q    Type
REMARK                         _______ _______ _______ _____ _____    ______ ____
ROOT
ATOM     16  N   UNL     1      46.610   5.534  14.071  0.00  0.00    +0.000 N 
ATOM     17  C   UNL     1      47.445   6.269  13.275  0.00  0.00    +0.000 C 
ATOM     18  O   UNL     1      48.535   5.860  12.894  0.00  0.00    +0.000 OA
ATOM     42  H   UNL     1      45.840   6.011  14.516  0.00  0.00    +0.000 HD
ENDROOT
BRANCH  17  19
ATOM     19  C   UNL     1      46.901   7.562  12.844  0.00  0.00    +0.000 A 
ATOM     20  C   UNL     1      47.613   8.727  13.084  0.00  0.00    +0.000 A 
ATOM     21  S   UNL     1      46.870  10.115  12.430  0.00  0.00    +0.000 S 
ATOM     22  C   UNL     1      45.554   9.203  11.856  0.00  0.00    +0.000 A 
ATOM     23  N   UNL     1      44.553   9.807  11.191  0.00  0.00    +0.000 NA
ATOM     24  C   UNL     1      43.599   8.955  10.812  0.00  0.00    +0.000 A 
ATOM     25  N   UNL     1      43.547   7.635  11.039  0.00  0.00    +0.000 NA
ATOM     26  C   UNL     1      44.564   7.084  11.722  0.00  0.00    +0.000 A 
ATOM     38  C   UNL     1      45.657   7.852  12.148  0.00  0.00    +0.000 A 
BRANCH  26  27
ATOM     27  O   UNL     1      44.572   5.716  11.900  0.00  0.00    +0.000 OA
BRANCH  27  28
ATOM     28  C   UNL     1      43.704   4.983  11.039  0.00  0.00    +0.000 C 
BRANCH  28  29
ATOM     29  C   UNL     1      44.492   4.188  10.024  0.00  0.00    +0.000 A 
ATOM     30  C   UNL     1      45.297   4.854   9.093  0.00  0.00    +0.000 A 
ATOM     31  C   UNL     1      46.059   4.139   8.166  0.00  0.00    +0.000 A 
ATOM     32  C   UNL     1      46.044   2.738   8.149  0.00  0.00    +0.000 A 
ATOM     36  C   UNL     1      45.201   2.078   9.053  0.00  0.00    +0.000 A 
ATOM     37  C   UNL     1      44.428   2.791   9.979  0.00  0.00    +0.000 A 
BRANCH  32  33
ATOM     33  N   UNL     1      46.785   1.959   7.243  0.00  0.00    +0.000 NA
ATOM     34  N   UNL     1      46.776   0.733   7.473  0.00  0.00    +0.000 NA
ATOM     35  N   UNL     1      46.782  -0.387   7.682  0.00  0.00    +0.000 NA
ENDBRANCH  32  33
ENDBRANCH  28  29
ENDBRANCH  27  28
ENDBRANCH  26  27
ENDBRANCH  17  19
BRANCH  16  15
ATOM     15  C   UNL     1      46.937   4.243  14.607  0.00  0.00    +0.000 C 
BRANCH  15  14
ATOM     11  C   UNL     1      48.562   4.392  18.627  0.00  0.00    +0.000 A 
ATOM     12  C   UNL     1      48.807   5.450  17.742  0.00  0.00    +0.000 A 
ATOM     13  C   UNL     1      48.301   5.419  16.442  0.00  0.00    +0.000 A 
ATOM     14  C   UNL     1      47.562   4.319  15.983  0.00  0.00    +0.000 A 
ATOM     39  C   UNL     1      47.361   3.243  16.859  0.00  0.00    +0.000 A 
ATOM     40  C   UNL     1      47.846   3.282  18.167  0.00  0.00    +0.000 A 
BRANCH  11  10
ATOM     10  C   UNL     1      49.035   4.464  20.056  0.00  0.00    +0.000 C 
BRANCH  10   9
ATOM      9  N   UNL     1      49.372   5.839  20.413  0.00  0.00    +0.000 NA
ATOM     41  H   UNL     1      49.141   6.459  19.640  0.00  0.00    +0.000 HD
BRANCH   9   8
ATOM      8  C   UNL     1      50.785   5.968  20.735  0.00  0.00    +0.000 C 
BRANCH   8   7
ATOM      7  C   UNL     1      51.404   7.002  19.801  0.00  0.00    +0.000 C 
BRANCH   7   6
ATOM      6  C   UNL     1      52.257   6.311  18.746  0.00  0.00    +0.000 C 
BRANCH   6   5
ATOM      5  C   UNL     1      52.538   4.867  19.138  0.00  0.00    +0.000 C 
BRANCH   5   4
ATOM      4  C   UNL     1      52.228   3.932  17.976  0.00  0.00    +0.000 C 
BRANCH   4   3
ATOM      3  C   UNL     1      53.107   2.689  18.035  0.00  0.00    +0.000 C 
BRANCH   3   2
ATOM      1  C   UNL     1      50.955   1.769  17.137  0.00  0.00    +0.000 C 
ATOM      2  C   UNL     1      52.286   1.429  17.782  0.00  0.00    +0.000 C 
ENDBRANCH   3   2
ENDBRANCH   4   3
ENDBRANCH   5   4
ENDBRANCH   6   5
ENDBRANCH   7   6
ENDBRANCH   8   7
ENDBRANCH   9   8
ENDBRANCH  10   9
ENDBRANCH  11  10
ENDBRANCH  15  14
ENDBRANCH  16  15
TORSDOF 16
ENDMDL
MODEL 6
REMARK VINA RESULT:    -6.743      2.409      3.283
REMARK INTER + INTRA:         -15.831
REMARK INTER:                 -12.194
REMARK INTRA:                  -3.636
REMARK UNBOUND:                -2.781
REMARK  Name = 
REMARK  17 active torsions:
REMARK  status: ('A' for Active; 'I' for Inactive)
REMARK    1  A    between atoms: C_1  and  C_2
REMARK    2  A    between atoms: C_2  and  C_3
REMARK    3  A    between atoms: C_3  and  C_4
REMARK    4  A    between atoms: C_4  and  C_5
REMARK    5  A    between atoms: C_5  and  C_6
REMARK    6  A    between atoms: C_6  and  C_7
REMARK    7  A    between atoms: C_7  and  C_8
REMARK    8  A    between atoms: C_8  and  N_9
REMARK    9  A    between atoms: N_9  and  C_10
REMARK   10  A    between atoms: C_10  and  C_11
REMARK   11  A    between atoms: C_14  and  C_15
REMARK   12  A    between atoms: C_15  and  N_16
REMARK   13  A    between atoms: C_17  and  C_19
REMARK   14  A    between atoms: C_26  and  O_27
REMARK   15  A    between atoms: O_27  and  C_28
REMARK   16  A    between atoms: C_28  and  C_29
REMARK   17  A    between atoms: C_32  and  N_33
REMARK                            x       y       z     vdW  Elec       q    Type
REMARK                         _______ _______ _______ _____ _____    ______ ____
ROOT
ATOM     16  N   UNL     1      50.292   8.822  12.770  0.00  0.00    +0.000 N 
ATOM     17  C   UNL     1      50.804   9.684  13.701  0.00  0.00    +0.000 C 
ATOM     18  O   UNL     1      50.358  10.810  13.884  0.00  0.00    +0.000 OA
ATOM     42  H   UNL     1      50.839   8.010  12.527  0.00  0.00    +0.000 HD
ENDROOT
BRANCH  17  19
ATOM     19  C   UNL     1      51.885   9.128  14.523  0.00  0.00    +0.000 A 
ATOM     20  C   UNL     1      53.064   8.709  13.925  0.00  0.00    +0.000 A 
ATOM     21  S   UNL     1      54.235   8.182  15.048  0.00  0.00    +0.000 S 
ATOM     22  C   UNL     1      53.179   8.450  16.354  0.00  0.00    +0.000 A 
ATOM     23  N   UNL     1      53.581   8.194  17.611  0.00  0.00    +0.000 NA
ATOM     24  C   UNL     1      52.637   8.453  18.517  0.00  0.00    +0.000 A 
ATOM     25  N   UNL     1      51.394   8.901  18.294  0.00  0.00    +0.000 NA
ATOM     26  C   UNL     1      51.036   9.126  17.019  0.00  0.00    +0.000 A 
ATOM     38  C   UNL     1      51.940   8.936  15.964  0.00  0.00    +0.000 A 
BRANCH  26  27
ATOM     27  O   UNL     1      49.790   9.661  16.770  0.00  0.00    +0.000 OA
BRANCH  27  28
ATOM     28  C   UNL     1      48.707   9.033  17.452  0.00  0.00    +0.000 C 
BRANCH  28  29
ATOM     29  C   UNL     1      48.572   7.587  17.038  0.00  0.00    +0.000 A 
ATOM     30  C   UNL     1      48.575   6.582  18.013  0.00  0.00    +0.000 A 
ATOM     31  C   UNL     1      48.419   5.241  17.657  0.00  0.00    +0.000 A 
ATOM     32  C   UNL     1      48.248   4.866  16.318  0.00  0.00    +0.000 A 
ATOM     36  C   UNL     1      48.291   5.870  15.343  0.00  0.00    +0.000 A 
ATOM     37  C   UNL     1      48.456   7.217  15.693  0.00  0.00    +0.000 A 
BRANCH  32  33
ATOM     33  N   UNL     1      48.088   3.535  15.893  0.00  0.00    +0.000 NA
ATOM     34  N   UNL     1      47.526   3.400  14.787  0.00  0.00    +0.000 NA
ATOM     35  N   UNL     1      47.005   3.267  13.783  0.00  0.00    +0.000 NA
ENDBRANCH  32  33
ENDBRANCH  28  29
ENDBRANCH  27  28
ENDBRANCH  26  27
ENDBRANCH  17  19
BRANCH  16  15
ATOM     15  C   UNL     1      49.234   9.156  11.859  0.00  0.00    +0.000 C 
BRANCH  15  14
ATOM     11  C   UNL     1      45.581   6.902  12.484  0.00  0.00    +0.000 A 
ATOM     12  C   UNL     1      45.645   8.241  12.888  0.00  0.00    +0.000 A 
ATOM     13  C   UNL     1      46.812   8.983  12.704  0.00  0.00    +0.000 A 
ATOM     14  C   UNL     1      47.955   8.398  12.139  0.00  0.00    +0.000 A 
ATOM     39  C   UNL     1      47.899   7.044  11.779  0.00  0.00    +0.000 A 
ATOM     40  C   UNL     1      46.725   6.307  11.941  0.00  0.00    +0.000 A 
BRANCH  11  10
ATOM     10  C   UNL     1      44.295   6.127  12.603  0.00  0.00    +0.000 C 
BRANCH  10   9
ATOM      9  N   UNL     1      44.558   4.768  13.068  0.00  0.00    +0.000 NA
ATOM     41  H   UNL     1      45.490   4.482  12.774  0.00  0.00    +0.000 HD
BRANCH   9   8
ATOM      8  C   UNL     1      43.574   3.833  12.545  0.00  0.00    +0.000 C 
BRANCH   8   7
ATOM      7  C   UNL     1      43.416   4.078  11.049  0.00  0.00    +0.000 C 
BRANCH   7   6
ATOM      6  C   UNL     1      44.509   3.348  10.280  0.00  0.00    +0.000 C 
BRANCH   6   5
ATOM      5  C   UNL     1      45.071   4.229   9.172  0.00  0.00    +0.000 C 
BRANCH   5   4
ATOM      4  C   UNL     1      45.575   3.371   8.018  0.00  0.00    +0.000 C 
BRANCH   4   3
ATOM      3  C   UNL     1      45.697   1.913   8.444  0.00  0.00    +0.000 C 
BRANCH   3   2
ATOM      1  C   UNL     1      47.591   2.188   6.826  0.00  0.00    +0.000 C 
ATOM      2  C   UNL     1      46.775   1.198   7.636  0.00  0.00    +0.000 C 
ENDBRANCH   3   2
ENDBRANCH   4   3
ENDBRANCH   5   4
ENDBRANCH   6   5
ENDBRANCH   7   6
ENDBRANCH   8   7
ENDBRANCH   9   8
ENDBRANCH  10   9
ENDBRANCH  11  10
ENDBRANCH  15  14
ENDBRANCH  16  15
TORSDOF 16
ENDMDL
MODEL 7
REMARK VINA RESULT:    -6.566      4.068      6.260
REMARK INTER + INTRA:         -15.489
REMARK INTER:                 -13.244
REMARK INTRA:                  -2.245
REMARK UNBOUND:                -2.781
REMARK  Name = 
REMARK  17 active torsions:
REMARK  status: ('A' for Active; 'I' for Inactive)
REMARK    1  A    between atoms: C_1  and  C_2
REMARK    2  A    between atoms: C_2  and  C_3
REMARK    3  A    between atoms: C_3  and  C_4
REMARK    4  A    between atoms: C_4  and  C_5
REMARK    5  A    between atoms: C_5  and  C_6
REMARK    6  A    between atoms: C_6  and  C_7
REMARK    7  A    between atoms: C_7  and  C_8
REMARK    8  A    between atoms: C_8  and  N_9
REMARK    9  A    between atoms: N_9  and  C_10
REMARK   10  A    between atoms: C_10  and  C_11
REMARK   11  A    between atoms: C_14  and  C_15
REMARK   12  A    between atoms: C_15  and  N_16
REMARK   13  A    between atoms: C_17  and  C_19
REMARK   14  A    between atoms: C_26  and  O_27
REMARK   15  A    between atoms: O_27  and  C_28
REMARK   16  A    between atoms: C_28  and  C_29
REMARK   17  A    between atoms: C_32  and  N_33
REMARK                            x       y       z     vdW  Elec       q    Type
REMARK                         _______ _______ _______ _____ _____    ______ ____
ROOT
ATOM     16  N   UNL     1      49.568   7.125  13.100  0.00  0.00    +0.000 N 
ATOM     17  C   UNL     1      49.920   8.002  14.089  0.00  0.00    +0.000 C 
ATOM     18  O   UNL     1      49.384   9.094  14.236  0.00  0.00    +0.000 OA
ATOM     42  H   UNL     1      50.189   6.354  12.910  0.00  0.00    +0.000 HD
ENDROOT
BRANCH  17  19
ATOM     19  C   UNL     1      50.942   7.503  15.016  0.00  0.00    +0.000 A 
ATOM     20  C   UNL     1      50.565   6.790  16.145  0.00  0.00    +0.000 A 
ATOM     21  S   UNL     1      51.891   6.212  17.048  0.00  0.00    +0.000 S 
ATOM     22  C   UNL     1      52.999   6.942  15.985  0.00  0.00    +0.000 A 
ATOM     23  N   UNL     1      54.322   6.820  16.200  0.00  0.00    +0.000 NA
ATOM     24  C   UNL     1      55.053   7.452  15.281  0.00  0.00    +0.000 A 
ATOM     25  N   UNL     1      54.612   8.168  14.238  0.00  0.00    +0.000 NA
ATOM     26  C   UNL     1      53.282   8.272  14.077  0.00  0.00    +0.000 A 
ATOM     38  C   UNL     1      52.390   7.626  14.944  0.00  0.00    +0.000 A 
BRANCH  26  27
ATOM     27  O   UNL     1      52.804   8.937  12.968  0.00  0.00    +0.000 OA
BRANCH  27  28
ATOM     28  C   UNL     1      53.787   9.300  12.001  0.00  0.00    +0.000 C 
BRANCH  28  29
ATOM     29  C   UNL     1      53.469   8.698  10.652  0.00  0.00    +0.000 A 
ATOM     30  C   UNL     1      52.745   7.503  10.578  0.00  0.00    +0.000 A 
ATOM     31  C   UNL     1      52.412   6.945   9.341  0.00  0.00    +0.000 A 
ATOM     32  C   UNL     1      52.787   7.570   8.145  0.00  0.00    +0.000 A 
ATOM     36  C   UNL     1      53.552   8.741   8.225  0.00  0.00    +0.000 A 
ATOM     37  C   UNL     1      53.896   9.301   9.463  0.00  0.00    +0.000 A 
BRANCH  32  33
ATOM     33  N   UNL     1      52.486   7.061   6.869  0.00  0.00    +0.000 NA
ATOM     34  N   UNL     1      52.689   5.838   6.730  0.00  0.00    +0.000 NA
ATOM     35  N   UNL     1      52.880   4.724   6.591  0.00  0.00    +0.000 NA
ENDBRANCH  32  33
ENDBRANCH  28  29
ENDBRANCH  27  28
ENDBRANCH  26  27
ENDBRANCH  17  19
BRANCH  16  15
ATOM     15  C   UNL     1      48.592   7.406  12.085  0.00  0.00    +0.000 C 
BRANCH  15  14
ATOM     11  C   UNL     1      44.804   5.461  12.908  0.00  0.00    +0.000 A 
ATOM     12  C   UNL     1      44.837   6.580  12.068  0.00  0.00    +0.000 A 
ATOM     13  C   UNL     1      46.044   7.227  11.796  0.00  0.00    +0.000 A 
ATOM     14  C   UNL     1      47.243   6.789  12.379  0.00  0.00    +0.000 A 
ATOM     39  C   UNL     1      47.194   5.696  13.255  0.00  0.00    +0.000 A 
ATOM     40  C   UNL     1      45.991   5.035  13.510  0.00  0.00    +0.000 A 
BRANCH  11  10
ATOM     10  C   UNL     1      43.515   4.712  13.133  0.00  0.00    +0.000 C 
BRANCH  10   9
ATOM      9  N   UNL     1      43.713   3.281  12.920  0.00  0.00    +0.000 NA
ATOM     41  H   UNL     1      44.692   3.046  13.070  0.00  0.00    +0.000 HD
BRANCH   9   8
ATOM      8  C   UNL     1      43.318   2.889  11.576  0.00  0.00    +0.000 C 
BRANCH   8   7
ATOM      7  C   UNL     1      44.530   3.011  10.659  0.00  0.00    +0.000 C 
BRANCH   7   6
ATOM      6  C   UNL     1      44.208   3.925   9.484  0.00  0.00    +0.000 C 
BRANCH   6   5
ATOM      5  C   UNL     1      45.478   4.319   8.742  0.00  0.00    +0.000 C 
BRANCH   5   4
ATOM      4  C   UNL     1      45.684   3.420   7.530  0.00  0.00    +0.000 C 
BRANCH   4   3
ATOM      3  C   UNL     1      46.313   2.095   7.942  0.00  0.00    +0.000 C 
BRANCH   3   2
ATOM      1  C   UNL     1      47.364   2.576   5.717  0.00  0.00    +0.000 C 
ATOM      2  C   UNL     1      47.293   1.604   6.881  0.00  0.00    +0.000 C 
ENDBRANCH   3   2
ENDBRANCH   4   3
ENDBRANCH   5   4
ENDBRANCH   6   5
ENDBRANCH   7   6
ENDBRANCH   8   7
ENDBRANCH   9   8
ENDBRANCH  10   9
ENDBRANCH  11  10
ENDBRANCH  15  14
ENDBRANCH  16  15
TORSDOF 16
ENDMDL
MODEL 8
REMARK VINA RESULT:    -6.486      1.441      2.075
REMARK INTER + INTRA:         -15.334
REMARK INTER:                 -13.116
REMARK INTRA:                  -2.218
REMARK UNBOUND:                -2.781
REMARK  Name = 
REMARK  17 active torsions:
REMARK  status: ('A' for Active; 'I' for Inactive)
REMARK    1  A    between atoms: C_1  and  C_2
REMARK    2  A    between atoms: C_2  and  C_3
REMARK    3  A    between atoms: C_3  and  C_4
REMARK    4  A    between atoms: C_4  and  C_5
REMARK    5  A    between atoms: C_5  and  C_6
REMARK    6  A    between atoms: C_6  and  C_7
REMARK    7  A    between atoms: C_7  and  C_8
REMARK    8  A    between atoms: C_8  and  N_9
REMARK    9  A    between atoms: N_9  and  C_10
REMARK   10  A    between atoms: C_10  and  C_11
REMARK   11  A    between atoms: C_14  and  C_15
REMARK   12  A    between atoms: C_15  and  N_16
REMARK   13  A    between atoms: C_17  and  C_19
REMARK   14  A    between atoms: C_26  and  O_27
REMARK   15  A    between atoms: O_27  and  C_28
REMARK   16  A    between atoms: C_28  and  C_29
REMARK   17  A    between atoms: C_32  and  N_33
REMARK                            x       y       z     vdW  Elec       q    Type
REMARK                         _______ _______ _______ _____ _____    ______ ____
ROOT
ATOM     16  N   UNL     1      48.171   7.531  14.906  0.00  0.00    +0.000 N 
ATOM     17  C   UNL     1      49.384   7.546  15.538  0.00  0.00    +0.000 C 
ATOM     18  O   UNL     1      50.438   7.296  14.965  0.00  0.00    +0.000 OA
ATOM     42  H   UNL     1      47.340   7.532  15.479  0.00  0.00    +0.000 HD
ENDROOT
BRANCH  17  19
ATOM     19  C   UNL     1      49.338   7.962  16.944  0.00  0.00    +0.000 A 
ATOM     20  C   UNL     1      49.961   9.136  17.341  0.00  0.00    +0.000 A 
ATOM     21  S   UNL     1      49.720   9.500  18.989  0.00  0.00    +0.000 S 
ATOM     22  C   UNL     1      48.822   8.076  19.226  0.00  0.00    +0.000 A 
ATOM     23  N   UNL     1      48.317   7.790  20.440  0.00  0.00    +0.000 NA
ATOM     24  C   UNL     1      47.644   6.639  20.460  0.00  0.00    +0.000 A 
ATOM     25  N   UNL     1      47.455   5.787  19.443  0.00  0.00    +0.000 NA
ATOM     26  C   UNL     1      47.994   6.111  18.255  0.00  0.00    +0.000 A 
ATOM     38  C   UNL     1      48.694   7.312  18.076  0.00  0.00    +0.000 A 
BRANCH  26  27
ATOM     27  O   UNL     1      47.746   5.291  17.175  0.00  0.00    +0.000 OA
BRANCH  27  28
ATOM     28  C   UNL     1      47.811   3.892  17.442  0.00  0.00    +0.000 C 
BRANCH  28  29
ATOM     29  C   UNL     1      49.242   3.408  17.455  0.00  0.00    +0.000 A 
ATOM     30  C   UNL     1      50.270   4.291  17.805  0.00  0.00    +0.000 A 
ATOM     31  C   UNL     1      51.597   3.857  17.856  0.00  0.00    +0.000 A 
ATOM     32  C   UNL     1      51.932   2.527  17.567  0.00  0.00    +0.000 A 
ATOM     36  C   UNL     1      50.905   1.660  17.173  0.00  0.00    +0.000 A 
ATOM     37  C   UNL     1      49.573   2.092  17.112  0.00  0.00    +0.000 A 
BRANCH  32  33
ATOM     33  N   UNL     1      53.246   2.028  17.598  0.00  0.00    +0.000 NA
ATOM     34  N   UNL     1      53.951   2.461  18.531  0.00  0.00    +0.000 NA
ATOM     35  N   UNL     1      54.606   2.859  19.374  0.00  0.00    +0.000 NA
ENDBRANCH  32  33
ENDBRANCH  28  29
ENDBRANCH  27  28
ENDBRANCH  26  27
ENDBRANCH  17  19
BRANCH  16  15
ATOM     15  C   UNL     1      47.981   7.155  13.534  0.00  0.00    +0.000 C 
BRANCH  15  14
ATOM     11  C   UNL     1      44.636   4.473  12.880  0.00  0.00    +0.000 A 
ATOM     12  C   UNL     1      44.532   5.815  12.493  0.00  0.00    +0.000 A 
ATOM     13  C   UNL     1      45.592   6.697  12.702  0.00  0.00    +0.000 A 
ATOM     14  C   UNL     1      46.773   6.269  13.327  0.00  0.00    +0.000 A 
ATOM     39  C   UNL     1      46.852   4.936  13.754  0.00  0.00    +0.000 A 
ATOM     40  C   UNL     1      45.801   4.047  13.525  0.00  0.00    +0.000 A 
BRANCH  11  10
ATOM     10  C   UNL     1      43.525   3.501  12.578  0.00  0.00    +0.000 C 
BRANCH  10   9
ATOM      9  N   UNL     1      44.009   2.422  11.722  0.00  0.00    +0.000 NA
ATOM     41  H   UNL     1      44.991   2.243  11.921  0.00  0.00    +0.000 HD
BRANCH   9   8
ATOM      8  C   UNL     1      43.851   2.755  10.314  0.00  0.00    +0.000 C 
BRANCH   8   7
ATOM      7  C   UNL     1      45.224   3.070   9.732  0.00  0.00    +0.000 C 
BRANCH   7   6
ATOM      6  C   UNL     1      45.198   4.422   9.032  0.00  0.00    +0.000 C 
BRANCH   6   5
ATOM      5  C   UNL     1      46.277   4.495   7.959  0.00  0.00    +0.000 C 
BRANCH   5   4
ATOM      4  C   UNL     1      46.124   3.342   6.975  0.00  0.00    +0.000 C 
BRANCH   4   3
ATOM      3  C   UNL     1      47.487   2.774   6.596  0.00  0.00    +0.000 C 
BRANCH   3   2
ATOM      1  C   UNL     1      46.831   0.606   7.671  0.00  0.00    +0.000 C 
ATOM      2  C   UNL     1      47.418   1.259   6.433  0.00  0.00    +0.000 C 
ENDBRANCH   3   2
ENDBRANCH   4   3
ENDBRANCH   5   4
ENDBRANCH   6   5
ENDBRANCH   7   6
ENDBRANCH   8   7
ENDBRANCH   9   8
ENDBRANCH  10   9
ENDBRANCH  11  10
ENDBRANCH  15  14
ENDBRANCH  16  15
TORSDOF 16
ENDMDL
MODEL 9
REMARK VINA RESULT:    -6.453      2.720      5.710
REMARK INTER + INTRA:         -15.269
REMARK INTER:                 -12.206
REMARK INTRA:                  -3.063
REMARK UNBOUND:                -2.781
REMARK  Name = 
REMARK  17 active torsions:
REMARK  status: ('A' for Active; 'I' for Inactive)
REMARK    1  A    between atoms: C_1  and  C_2
REMARK    2  A    between atoms: C_2  and  C_3
REMARK    3  A    between atoms: C_3  and  C_4
REMARK    4  A    between atoms: C_4  and  C_5
REMARK    5  A    between atoms: C_5  and  C_6
REMARK    6  A    between atoms: C_6  and  C_7
REMARK    7  A    between atoms: C_7  and  C_8
REMARK    8  A    between atoms: C_8  and  N_9
REMARK    9  A    between atoms: N_9  and  C_10
REMARK   10  A    between atoms: C_10  and  C_11
REMARK   11  A    between atoms: C_14  and  C_15
REMARK   12  A    between atoms: C_15  and  N_16
REMARK   13  A    between atoms: C_17  and  C_19
REMARK   14  A    between atoms: C_26  and  O_27
REMARK   15  A    between atoms: O_27  and  C_28
REMARK   16  A    between atoms: C_28  and  C_29
REMARK   17  A    between atoms: C_32  and  N_33
REMARK                            x       y       z     vdW  Elec       q    Type
REMARK                         _______ _______ _______ _____ _____    ______ ____
ROOT
ATOM     16  N   UNL     1      49.027   3.247  17.529  0.00  0.00    +0.000 N 
ATOM     17  C   UNL     1      49.828   2.347  16.881  0.00  0.00    +0.000 C 
ATOM     18  O   UNL     1      49.468   1.728  15.887  0.00  0.00    +0.000 OA
ATOM     42  H   UNL     1      49.305   3.550  18.450  0.00  0.00    +0.000 HD
ENDROOT
BRANCH  17  19
ATOM     19  C   UNL     1      51.186   2.234  17.423  0.00  0.00    +0.000 A 
ATOM     20  C   UNL     1      51.765   0.984  17.589  0.00  0.00    +0.000 A 
ATOM     21  S   UNL     1      53.376   1.059  18.140  0.00  0.00    +0.000 S 
ATOM     22  C   UNL     1      53.326   2.756  18.221  0.00  0.00    +0.000 A 
ATOM     23  N   UNL     1      54.408   3.446  18.625  0.00  0.00    +0.000 NA
ATOM     24  C   UNL     1      54.204   4.764  18.637  0.00  0.00    +0.000 A 
ATOM     25  N   UNL     1      53.079   5.418  18.317  0.00  0.00    +0.000 NA
ATOM     26  C   UNL     1      52.021   4.682  17.936  0.00  0.00    +0.000 A 
ATOM     38  C   UNL     1      52.103   3.286  17.837  0.00  0.00    +0.000 A 
BRANCH  26  27
ATOM     27  O   UNL     1      50.878   5.335  17.527  0.00  0.00    +0.000 OA
BRANCH  27  28
ATOM     28  C   UNL     1      50.635   6.592  18.154  0.00  0.00    +0.000 C 
BRANCH  28  29
ATOM     29  C   UNL     1      50.156   7.615  17.151  0.00  0.00    +0.000 A 
ATOM     30  C   UNL     1      48.995   8.352  17.411  0.00  0.00    +0.000 A 
ATOM     31  C   UNL     1      48.551   9.326  16.512  0.00  0.00    +0.000 A 
ATOM     32  C   UNL     1      49.259   9.595  15.334  0.00  0.00    +0.000 A 
ATOM     36  C   UNL     1      50.394   8.822  15.057  0.00  0.00    +0.000 A 
ATOM     37  C   UNL     1      50.839   7.838  15.950  0.00  0.00    +0.000 A 
BRANCH  32  33
ATOM     33  N   UNL     1      48.866  10.559  14.388  0.00  0.00    +0.000 NA
ATOM     34  N   UNL     1      48.269  10.104  13.391  0.00  0.00    +0.000 NA
ATOM     35  N   UNL     1      47.732   9.697  12.472  0.00  0.00    +0.000 NA
ENDBRANCH  32  33
ENDBRANCH  28  29
ENDBRANCH  27  28
ENDBRANCH  26  27
ENDBRANCH  17  19
BRANCH  16  15
ATOM     15  C   UNL     1      47.663   3.516  17.170  0.00  0.00    +0.000 C 
BRANCH  15  14
ATOM     11  C   UNL     1      47.222   5.569  13.374  0.00  0.00    +0.000 A 
ATOM     12  C   UNL     1      46.778   4.247  13.500  0.00  0.00    +0.000 A 
ATOM     13  C   UNL     1      46.918   3.564  14.709  0.00  0.00    +0.000 A 
ATOM     14  C   UNL     1      47.530   4.175  15.815  0.00  0.00    +0.000 A 
ATOM     39  C   UNL     1      48.013   5.482  15.666  0.00  0.00    +0.000 A 
ATOM     40  C   UNL     1      47.854   6.174  14.464  0.00  0.00    +0.000 A 
BRANCH  11  10
ATOM     10  C   UNL     1      46.995   6.334  12.095  0.00  0.00    +0.000 C 
BRANCH  10   9
ATOM      9  N   UNL     1      45.723   7.049  12.149  0.00  0.00    +0.000 NA
ATOM     41  H   UNL     1      45.412   7.120  13.115  0.00  0.00    +0.000 HD
BRANCH   9   8
ATOM      8  C   UNL     1      44.705   6.374  11.357  0.00  0.00    +0.000 C 
BRANCH   8   7
ATOM      7  C   UNL     1      45.397   5.536  10.288  0.00  0.00    +0.000 C 
BRANCH   7   6
ATOM      6  C   UNL     1      44.453   4.456   9.777  0.00  0.00    +0.000 C 
BRANCH   6   5
ATOM      5  C   UNL     1      44.904   3.079  10.244  0.00  0.00    +0.000 C 
BRANCH   5   4
ATOM      4  C   UNL     1      45.159   2.171   9.047  0.00  0.00    +0.000 C 
BRANCH   4   3
ATOM      3  C   UNL     1      45.357   2.993   7.780  0.00  0.00    +0.000 C 
BRANCH   3   2
ATOM      1  C   UNL     1      47.194   1.373   7.247  0.00  0.00    +0.000 C 
ATOM      2  C   UNL     1      46.775   2.831   7.241  0.00  0.00    +0.000 C 
ENDBRANCH   3   2
ENDBRANCH   4   3
ENDBRANCH   5   4
ENDBRANCH   6   5
ENDBRANCH   7   6
ENDBRANCH   8   7
ENDBRANCH   9   8
ENDBRANCH  10   9
ENDBRANCH  11  10
ENDBRANCH  15  14
ENDBRANCH  16  15
TORSDOF 16
ENDMDL
