MODEL 1
REMARK VINA RESULT:    -7.718      0.000      0.000
REMARK INTER + INTRA:         -13.254
REMARK INTER:                 -12.004
REMARK INTRA:                  -1.251
REMARK UNBOUND:                -1.251
REMARK  Name = 
REMARK  12 active torsions:
REMARK  status: ('A' for Active; 'I' for Inactive)
REMARK    1  A    between atoms: N_1  and  C_2
REMARK    2  A    between atoms: N_10  and  C_11
REMARK    3  A    between atoms: C_13  and  C_14
REMARK    4  A    between atoms: C_14  and  S_15
REMARK    5  A    between atoms: S_15  and  C_16
REMARK    6  A    between atoms: C_16  and  C_17
REMARK    7  A    between atoms: C_17  and  C_18
REMARK    8  A    between atoms: C_18  and  N_19
REMARK    9  A    between atoms: C_18  and  C_20
REMARK   10  A    between atoms: C_20  and  O_22
REMARK   11  A    between atoms: C_23  and  O_24
REMARK   12  A    between atoms: C_25  and  O_26
REMARK                            x       y       z     vdW  Elec       q    Type
REMARK                         _______ _______ _______ _____ _____    ______ ____
ROOT
ATOM     11  C   UNK     1      44.404   3.750   9.990  0.00  0.00    +0.000 C 
ATOM     12  O   UNK     1      43.614   4.953   9.872  0.00  0.00    +0.000 OA
ATOM     13  C   UNK     1      43.411   5.534  11.181  0.00  0.00    +0.000 C 
ATOM     23  C   UNK     1      43.951   4.519  12.183  0.00  0.00    +0.000 C 
ATOM     25  C   UNK     1      45.010   3.763  11.393  0.00  0.00    +0.000 C 
ENDROOT
BRANCH  11  10
ATOM      2  C   UNK     1      47.486   2.060   6.663  0.00  0.00    +0.000 A 
ATOM      3  N   UNK     1      47.254   0.758   6.944  0.00  0.00    +0.000 NA
ATOM      4  C   UNK     1      46.381   0.461   7.933  0.00  0.00    +0.000 A 
ATOM      5  N   UNK     1      45.660   1.306   8.698  0.00  0.00    +0.000 NA
ATOM      6  C   UNK     1      45.914   2.583   8.368  0.00  0.00    +0.000 A 
ATOM      7  C   UNK     1      46.782   3.037   7.388  0.00  0.00    +0.000 A 
ATOM      8  N   UNK     1      46.765   4.416   7.319  0.00  0.00    +0.000 NA
ATOM      9  C   UNK     1      45.901   4.786   8.242  0.00  0.00    +0.000 A 
ATOM     10  N   UNK     1      45.376   3.717   8.917  0.00  0.00    +0.000 N 
BRANCH   2   1
ATOM      1  N   UNK     1      48.404   2.369   5.668  0.00  0.00    +0.000 N 
ATOM     27  H   UNK     1      47.986   2.425   4.750  0.00  0.00    +0.000 HD
ATOM     28  H   UNK     1      49.072   3.083   5.935  0.00  0.00    +0.000 HD
ENDBRANCH   2   1
ENDBRANCH  11  10
BRANCH  25  26
ATOM     26  O   UNK     1      45.216   2.466  11.945  0.00  0.00    +0.000 OA
ATOM     33  H   UNK     1      45.444   2.598  12.890  0.00  0.00    +0.000 HD
ENDBRANCH  25  26
BRANCH  23  24
ATOM     24  O   UNK     1      42.928   3.582  12.574  0.00  0.00    +0.000 OA
ATOM     32  H   UNK     1      42.838   2.895  11.887  0.00  0.00    +0.000 HD
ENDBRANCH  23  24
BRANCH  13  14
ATOM     14  C   UNK     1      44.107   6.899  11.276  0.00  0.00    +0.000 C 
BRANCH  14  15
ATOM     15  S   UNK     1      45.129   6.922  12.788  0.00  0.00    +0.000 S 
BRANCH  15  16
ATOM     16  C   UNK     1      46.785   6.781  12.052  0.00  0.00    +0.000 C 
BRANCH  16  17
ATOM     17  C   UNK     1      47.670   5.870  12.909  0.00  0.00    +0.000 C 
BRANCH  17  18
ATOM     18  C   UNK     1      47.190   5.661  14.353  0.00  0.00    +0.000 C 
BRANCH  18  19
ATOM     19  N   UNK     1      48.137   6.333  15.275  0.00  0.00    +0.000 NA
ATOM     29  H   UNK     1      47.958   7.339  15.231  0.00  0.00    +0.000 HD
ATOM     30  H   UNK     1      49.081   6.233  14.901  0.00  0.00    +0.000 HD
ENDBRANCH  18  19
BRANCH  18  20
ATOM     20  C   UNK     1      47.111   4.160  14.694  0.00  0.00    +0.000 C 
ATOM     21  O   UNK     1      47.313   3.262  13.891  0.00  0.00    +0.000 OA
BRANCH  20  22
ATOM     22  O   UNK     1      46.771   3.913  15.980  0.00  0.00    +0.000 OA
ATOM     31  H   UNK     1      46.355   3.036  16.118  0.00  0.00    +0.000 HD
ENDBRANCH  20  22
ENDBRANCH  18  20
ENDBRANCH  17  18
ENDBRANCH  16  17
ENDBRANCH  15  16
ENDBRANCH  14  15
ENDBRANCH  13  14
TORSDOF 12
ENDMDL
MODEL 2
REMARK VINA RESULT:    -7.329      2.784      6.857
REMARK INTER + INTRA:         -12.650
REMARK INTER:                 -12.184
REMARK INTRA:                  -0.466
REMARK UNBOUND:                -1.251
REMARK  Name = 
REMARK  12 active torsions:
REMARK  status: ('A' for Active; 'I' for Inactive)
REMARK    1  A    between atoms: N_1  and  C_2
REMARK    2  A    between atoms: N_10  and  C_11
REMARK    3  A    between atoms: C_13  and  C_14
REMARK    4  A    between atoms: C_14  and  S_15
REMARK    5  A    between atoms: S_15  and  C_16
REMARK    6  A    between atoms: C_16  and  C_17
REMARK    7  A    between atoms: C_17  and  C_18
REMARK    8  A    between atoms: C_18  and  N_19
REMARK    9  A    between atoms: C_18  and  C_20
REMARK   10  A    between atoms: C_20  and  O_22
REMARK   11  A    between atoms: C_23  and  O_24
REMARK   12  A    between atoms: C_25  and  O_26
REMARK                            x       y       z     vdW  Elec       q    Type
REMARK                         _______ _______ _______ _____ _____    ______ ____
ROOT
ATOM     11  C   UNK     1      44.669   6.240  12.878  0.00  0.00    +0.000 C 
ATOM     12  O   UNK     1      44.167   4.925  13.202  0.00  0.00    +0.000 OA
ATOM     13  C   UNK     1      43.197   4.515  12.210  0.00  0.00    +0.000 C 
ATOM     23  C   UNK     1      42.950   5.735  11.329  0.00  0.00    +0.000 C 
ATOM     25  C   UNK     1      44.249   6.523  11.436  0.00  0.00    +0.000 C 
ENDROOT
BRANCH  11  10
ATOM      2  C   UNK     1      49.190   7.897  13.368  0.00  0.00    +0.000 A 
ATOM      3  N   UNK     1      48.858   9.192  13.162  0.00  0.00    +0.000 NA
ATOM      4  C   UNK     1      47.565   9.491  12.909  0.00  0.00    +0.000 A 
ATOM      5  N   UNK     1      46.506   8.656  12.850  0.00  0.00    +0.000 NA
ATOM      6  C   UNK     1      46.885   7.388  13.077  0.00  0.00    +0.000 A 
ATOM      7  C   UNK     1      48.167   6.933  13.344  0.00  0.00    +0.000 A 
ATOM      8  N   UNK     1      48.169   5.567  13.547  0.00  0.00    +0.000 NA
ATOM      9  C   UNK     1      46.910   5.206  13.406  0.00  0.00    +0.000 A 
ATOM     10  N   UNK     1      46.099   6.266  13.101  0.00  0.00    +0.000 N 
BRANCH   2   1
ATOM      1  N   UNK     1      50.522   7.583  13.600  0.00  0.00    +0.000 N 
ATOM     27  H   UNK     1      51.161   8.194  13.110  0.00  0.00    +0.000 HD
ATOM     28  H   UNK     1      50.725   7.351  14.566  0.00  0.00    +0.000 HD
ENDBRANCH   2   1
ENDBRANCH  11  10
BRANCH  25  26
ATOM     26  O   UNK     1      44.022   7.902  11.160  0.00  0.00    +0.000 OA
ATOM     33  H   UNK     1      44.875   8.361  11.311  0.00  0.00    +0.000 HD
ENDBRANCH  25  26
BRANCH  23  24
ATOM     24  O   UNK     1      41.885   6.550  11.857  0.00  0.00    +0.000 OA
ATOM     32  H   UNK     1      41.339   6.015  12.464  0.00  0.00    +0.000 HD
ENDBRANCH  23  24
BRANCH  13  14
ATOM     14  C   UNK     1      43.712   3.302  11.424  0.00  0.00    +0.000 C 
BRANCH  14  15
ATOM     15  S   UNK     1      44.131   3.845   9.732  0.00  0.00    +0.000 S 
BRANCH  15  16
ATOM     16  C   UNK     1      45.112   2.419   9.177  0.00  0.00    +0.000 C 
BRANCH  16  17
ATOM     17  C   UNK     1      45.447   2.554   7.688  0.00  0.00    +0.000 C 
BRANCH  17  18
ATOM     18  C   UNK     1      46.920   2.855   7.372  0.00  0.00    +0.000 C 
BRANCH  18  19
ATOM     19  N   UNK     1      46.982   3.926   6.350  0.00  0.00    +0.000 NA
ATOM     29  H   UNK     1      46.873   4.824   6.828  0.00  0.00    +0.000 HD
ATOM     30  H   UNK     1      46.154   3.859   5.758  0.00  0.00    +0.000 HD
ENDBRANCH  18  19
BRANCH  18  20
ATOM     20  C   UNK     1      47.638   1.596   6.849  0.00  0.00    +0.000 C 
ATOM     21  O   UNK     1      47.444   0.468   7.275  0.00  0.00    +0.000 OA
BRANCH  20  22
ATOM     22  O   UNK     1      48.538   1.852   5.872  0.00  0.00    +0.000 OA
ATOM     31  H   UNK     1      48.977   1.050   5.517  0.00  0.00    +0.000 HD
ENDBRANCH  20  22
ENDBRANCH  18  20
ENDBRANCH  17  18
ENDBRANCH  16  17
ENDBRANCH  15  16
ENDBRANCH  14  15
ENDBRANCH  13  14
TORSDOF 12
ENDMDL
MODEL 3
REMARK VINA RESULT:    -6.994      2.532      3.805
REMARK INTER + INTRA:         -12.130
REMARK INTER:                 -11.484
REMARK INTRA:                  -0.645
REMARK UNBOUND:                -1.251
REMARK  Name = 
REMARK  12 active torsions:
REMARK  status: ('A' for Active; 'I' for Inactive)
REMARK    1  A    between atoms: N_1  and  C_2
REMARK    2  A    between atoms: N_10  and  C_11
REMARK    3  A    between atoms: C_13  and  C_14
REMARK    4  A    between atoms: C_14  and  S_15
REMARK    5  A    between atoms: S_15  and  C_16
REMARK    6  A    between atoms: C_16  and  C_17
REMARK    7  A    between atoms: C_17  and  C_18
REMARK    8  A    between atoms: C_18  and  N_19
REMARK    9  A    between atoms: C_18  and  C_20
REMARK   10  A    between atoms: C_20  and  O_22
REMARK   11  A    between atoms: C_23  and  O_24
REMARK   12  A    between atoms: C_25  and  O_26
REMARK                            x       y       z     vdW  Elec       q    Type
REMARK                         _______ _______ _______ _____ _____    ______ ____
ROOT
ATOM     11  C   UNK     1      44.511   3.221  10.209  0.00  0.00    +0.000 C 
ATOM     12  O   UNK     1      43.352   4.073  10.075  0.00  0.00    +0.000 OA
ATOM     13  C   UNK     1      43.049   4.688  11.349  0.00  0.00    +0.000 C 
ATOM     23  C   UNK     1      43.966   4.024  12.369  0.00  0.00    +0.000 C 
ATOM     25  C   UNK     1      45.166   3.585  11.541  0.00  0.00    +0.000 C 
ENDROOT
BRANCH  11  10
ATOM      2  C   UNK     1      47.409   2.219   6.464  0.00  0.00    +0.000 A 
ATOM      3  N   UNK     1      47.361   0.878   6.639  0.00  0.00    +0.000 NA
ATOM      4  C   UNK     1      46.636   0.392   7.671  0.00  0.00    +0.000 A 
ATOM      5  N   UNK     1      45.905   1.073   8.578  0.00  0.00    +0.000 NA
ATOM      6  C   UNK     1      45.972   2.394   8.350  0.00  0.00    +0.000 A 
ATOM      7  C   UNK     1      46.674   3.035   7.341  0.00  0.00    +0.000 A 
ATOM      8  N   UNK     1      46.489   4.402   7.407  0.00  0.00    +0.000 NA
ATOM      9  C   UNK     1      45.688   4.582   8.437  0.00  0.00    +0.000 A 
ATOM     10  N   UNK     1      45.365   3.402   9.053  0.00  0.00    +0.000 N 
BRANCH   2   1
ATOM      1  N   UNK     1      48.176   2.723   5.423  0.00  0.00    +0.000 N 
ATOM     27  H   UNK     1      47.938   3.676   5.183  0.00  0.00    +0.000 HD
ATOM     28  H   UNK     1      49.158   2.474   5.480  0.00  0.00    +0.000 HD
ENDBRANCH   2   1
ENDBRANCH  11  10
BRANCH  25  26
ATOM     26  O   UNK     1      45.838   2.498  12.170  0.00  0.00    +0.000 OA
ATOM     33  H   UNK     1      46.757   2.797  12.338  0.00  0.00    +0.000 HD
ENDBRANCH  25  26
BRANCH  23  24
ATOM     24  O   UNK     1      43.352   2.846  12.929  0.00  0.00    +0.000 OA
ATOM     32  H   UNK     1      42.430   2.783  12.617  0.00  0.00    +0.000 HD
ENDBRANCH  23  24
BRANCH  13  14
ATOM     14  C   UNK     1      43.242   6.209  11.269  0.00  0.00    +0.000 C 
BRANCH  14  15
ATOM     15  S   UNK     1      44.466   6.703  12.529  0.00  0.00    +0.000 S 
BRANCH  15  16
ATOM     16  C   UNK     1      45.420   7.926  11.582  0.00  0.00    +0.000 C 
BRANCH  16  17
ATOM     17  C   UNK     1      44.885   9.337  11.849  0.00  0.00    +0.000 C 
BRANCH  17  18
ATOM     18  C   UNK     1      43.990   9.919  10.745  0.00  0.00    +0.000 C 
BRANCH  18  19
ATOM     19  N   UNK     1      44.643  11.126  10.185  0.00  0.00    +0.000 NA
ATOM     29  H   UNK     1      43.918  11.830  10.025  0.00  0.00    +0.000 HD
ATOM     30  H   UNK     1      44.985  10.906   9.250  0.00  0.00    +0.000 HD
ENDBRANCH  18  19
BRANCH  18  20
ATOM     20  C   UNK     1      42.602  10.290  11.302  0.00  0.00    +0.000 C 
ATOM     21  O   UNK     1      42.377  11.277  11.985  0.00  0.00    +0.000 OA
BRANCH  20  22
ATOM     22  O   UNK     1      41.634   9.400  10.982  0.00  0.00    +0.000 OA
ATOM     31  H   UNK     1      41.369   8.819  11.727  0.00  0.00    +0.000 HD
ENDBRANCH  20  22
ENDBRANCH  18  20
ENDBRANCH  17  18
ENDBRANCH  16  17
ENDBRANCH  15  16
ENDBRANCH  14  15
ENDBRANCH  13  14
TORSDOF 12
ENDMDL
MODEL 4
REMARK VINA RESULT:    -6.886      2.837      6.960
REMARK INTER + INTRA:         -11.961
REMARK INTER:                 -11.277
REMARK INTRA:                  -0.684
REMARK UNBOUND:                -1.251
REMARK  Name = 
REMARK  12 active torsions:
REMARK  status: ('A' for Active; 'I' for Inactive)
REMARK    1  A    between atoms: N_1  and  C_2
REMARK    2  A    between atoms: N_10  and  C_11
REMARK    3  A    between atoms: C_13  and  C_14
REMARK    4  A    between atoms: C_14  and  S_15
REMARK    5  A    between atoms: S_15  and  C_16
REMARK    6  A    between atoms: C_16  and  C_17
REMARK    7  A    between atoms: C_17  and  C_18
REMARK    8  A    between atoms: C_18  and  N_19
REMARK    9  A    between atoms: C_18  and  C_20
REMARK   10  A    between atoms: C_20  and  O_22
REMARK   11  A    between atoms: C_23  and  O_24
REMARK   12  A    between atoms: C_25  and  O_26
REMARK                            x       y       z     vdW  Elec       q    Type
REMARK                         _______ _______ _______ _____ _____    ______ ____
ROOT
ATOM     11  C   UNK     1      45.910   6.306  13.199  0.00  0.00    +0.000 C 
ATOM     12  O   UNK     1      45.951   4.875  13.395  0.00  0.00    +0.000 OA
ATOM     13  C   UNK     1      44.828   4.259  12.724  0.00  0.00    +0.000 C 
ATOM     23  C   UNK     1      43.940   5.403  12.248  0.00  0.00    +0.000 C 
ATOM     25  C   UNK     1      44.910   6.562  12.073  0.00  0.00    +0.000 C 
ENDROOT
BRANCH  11  10
ATOM      2  C   UNK     1      50.528   7.588  13.873  0.00  0.00    +0.000 A 
ATOM      3  N   UNK     1      50.544   7.271  15.188  0.00  0.00    +0.000 NA
ATOM      4  C   UNK     1      49.407   6.799  15.747  0.00  0.00    +0.000 A 
ATOM      5  N   UNK     1      48.215   6.568  15.158  0.00  0.00    +0.000 NA
ATOM      6  C   UNK     1      48.258   6.882  13.854  0.00  0.00    +0.000 A 
ATOM      7  C   UNK     1      49.343   7.378  13.148  0.00  0.00    +0.000 A 
ATOM      8  N   UNK     1      49.020   7.561  11.818  0.00  0.00    +0.000 NA
ATOM      9  C   UNK     1      47.762   7.182  11.724  0.00  0.00    +0.000 A 
ATOM     10  N   UNK     1      47.251   6.784  12.930  0.00  0.00    +0.000 N 
BRANCH   2   1
ATOM      1  N   UNK     1      51.686   8.100  13.303  0.00  0.00    +0.000 N 
ATOM     27  H   UNK     1      51.833   7.781  12.356  0.00  0.00    +0.000 HD
ATOM     28  H   UNK     1      51.844   9.081  13.509  0.00  0.00    +0.000 HD
ENDBRANCH   2   1
ENDBRANCH  11  10
BRANCH  25  26
ATOM     26  O   UNK     1      44.227   7.808  12.179  0.00  0.00    +0.000 OA
ATOM     33  H   UNK     1      44.738   8.353  12.815  0.00  0.00    +0.000 HD
ENDBRANCH  25  26
BRANCH  23  24
ATOM     24  O   UNK     1      42.979   5.769  13.258  0.00  0.00    +0.000 OA
ATOM     32  H   UNK     1      42.579   6.629  13.028  0.00  0.00    +0.000 HD
ENDBRANCH  23  24
BRANCH  13  14
ATOM     14  C   UNK     1      45.314   3.360  11.580  0.00  0.00    +0.000 C 
BRANCH  14  15
ATOM     15  S   UNK     1      44.135   3.500  10.193  0.00  0.00    +0.000 S 
BRANCH  15  16
ATOM     16  C   UNK     1      45.266   4.012   8.866  0.00  0.00    +0.000 C 
BRANCH  16  17
ATOM     17  C   UNK     1      45.760   2.788   8.089  0.00  0.00    +0.000 C 
BRANCH  17  18
ATOM     18  C   UNK     1      47.058   2.995   7.294  0.00  0.00    +0.000 C 
BRANCH  18  19
ATOM     19  N   UNK     1      46.803   3.968   6.205  0.00  0.00    +0.000 NA
ATOM     29  H   UNK     1      45.965   4.501   6.449  0.00  0.00    +0.000 HD
ATOM     30  H   UNK     1      46.532   3.453   5.367  0.00  0.00    +0.000 HD
ENDBRANCH  18  19
BRANCH  18  20
ATOM     20  C   UNK     1      47.555   1.664   6.697  0.00  0.00    +0.000 C 
ATOM     21  O   UNK     1      47.121   0.567   7.010  0.00  0.00    +0.000 OA
BRANCH  20  22
ATOM     22  O   UNK     1      48.550   1.815   5.793  0.00  0.00    +0.000 OA
ATOM     31  H   UNK     1      48.281   2.305   4.986  0.00  0.00    +0.000 HD
ENDBRANCH  20  22
ENDBRANCH  18  20
ENDBRANCH  17  18
ENDBRANCH  16  17
ENDBRANCH  15  16
ENDBRANCH  14  15
ENDBRANCH  13  14
TORSDOF 12
ENDMDL
MODEL 5
REMARK VINA RESULT:    -6.583      3.800      5.408
REMARK INTER + INTRA:         -11.489
REMARK INTER:                 -10.241
REMARK INTRA:                  -1.248
REMARK UNBOUND:                -1.251
REMARK  Name = 
REMARK  12 active torsions:
REMARK  status: ('A' for Active; 'I' for Inactive)
REMARK    1  A    between atoms: N_1  and  C_2
REMARK    2  A    between atoms: N_10  and  C_11
REMARK    3  A    between atoms: C_13  and  C_14
REMARK    4  A    between atoms: C_14  and  S_15
REMARK    5  A    between atoms: S_15  and  C_16
REMARK    6  A    between atoms: C_16  and  C_17
REMARK    7  A    between atoms: C_17  and  C_18
REMARK    8  A    between atoms: C_18  and  N_19
REMARK    9  A    between atoms: C_18  and  C_20
REMARK   10  A    between atoms: C_20  and  O_22
REMARK   11  A    between atoms: C_23  and  O_24
REMARK   12  A    between atoms: C_25  and  O_26
REMARK                            x       y       z     vdW  Elec       q    Type
REMARK                         _______ _______ _______ _____ _____    ______ ____
ROOT
ATOM     11  C   UNK     1      47.039   7.065  12.233  0.00  0.00    +0.000 C 
ATOM     12  O   UNK     1      48.315   7.127  12.908  0.00  0.00    +0.000 OA
ATOM     13  C   UNK     1      48.509   8.449  13.464  0.00  0.00    +0.000 C 
ATOM     23  C   UNK     1      47.364   9.304  12.932  0.00  0.00    +0.000 C 
ATOM     25  C   UNK     1      46.251   8.297  12.679  0.00  0.00    +0.000 C 
ENDROOT
BRANCH  11  10
ATOM      2  C   UNK     1      44.086   3.242  11.948  0.00  0.00    +0.000 A 
ATOM      3  N   UNK     1      43.469   3.659  10.818  0.00  0.00    +0.000 NA
ATOM      4  C   UNK     1      43.846   4.840  10.281  0.00  0.00    +0.000 A 
ATOM      5  N   UNK     1      44.802   5.691  10.710  0.00  0.00    +0.000 NA
ATOM      6  C   UNK     1      45.393   5.224  11.821  0.00  0.00    +0.000 A 
ATOM      7  C   UNK     1      45.111   4.040  12.485  0.00  0.00    +0.000 A 
ATOM      8  N   UNK     1      45.939   3.881  13.578  0.00  0.00    +0.000 NA
ATOM      9  C   UNK     1      46.708   4.951  13.572  0.00  0.00    +0.000 A 
ATOM     10  N   UNK     1      46.403   5.802  12.544  0.00  0.00    +0.000 N 
BRANCH   2   1
ATOM      1  N   UNK     1      43.680   2.043  12.518  0.00  0.00    +0.000 N 
ATOM     27  H   UNK     1      43.929   1.968  13.495  0.00  0.00    +0.000 HD
ATOM     28  H   UNK     1      42.752   1.749  12.236  0.00  0.00    +0.000 HD
ENDBRANCH   2   1
ENDBRANCH  11  10
BRANCH  25  26
ATOM     26  O   UNK     1      45.345   8.789  11.696  0.00  0.00    +0.000 OA
ATOM     33  H   UNK     1      45.796   9.536  11.250  0.00  0.00    +0.000 HD
ENDBRANCH  25  26
BRANCH  23  24
ATOM     24  O   UNK     1      47.713   9.915  11.675  0.00  0.00    +0.000 OA
ATOM     32  H   UNK     1      47.618  10.883  11.747  0.00  0.00    +0.000 HD
ENDBRANCH  23  24
BRANCH  13  14
ATOM     14  C   UNK     1      48.549   8.385  14.997  0.00  0.00    +0.000 C 
BRANCH  14  15
ATOM     15  S   UNK     1      49.615   6.987  15.488  0.00  0.00    +0.000 S 
BRANCH  15  16
ATOM     16  C   UNK     1      49.171   6.854  17.246  0.00  0.00    +0.000 C 
BRANCH  16  17
ATOM     17  C   UNK     1      48.877   5.395  17.609  0.00  0.00    +0.000 C 
BRANCH  17  18
ATOM     18  C   UNK     1      47.445   4.923  17.318  0.00  0.00    +0.000 C 
BRANCH  18  19
ATOM     19  N   UNK     1      46.606   5.170  18.516  0.00  0.00    +0.000 NA
ATOM     29  H   UNK     1      46.255   4.269  18.846  0.00  0.00    +0.000 HD
ATOM     30  H   UNK     1      45.767   5.672  18.226  0.00  0.00    +0.000 HD
ENDBRANCH  18  19
BRANCH  18  20
ATOM     20  C   UNK     1      47.421   3.422  16.969  0.00  0.00    +0.000 C 
ATOM     21  O   UNK     1      48.130   2.903  16.122  0.00  0.00    +0.000 OA
BRANCH  20  22
ATOM     22  O   UNK     1      46.512   2.715  17.680  0.00  0.00    +0.000 OA
ATOM     31  H   UNK     1      45.946   2.133  17.130  0.00  0.00    +0.000 HD
ENDBRANCH  20  22
ENDBRANCH  18  20
ENDBRANCH  17  18
ENDBRANCH  16  17
ENDBRANCH  15  16
ENDBRANCH  14  15
ENDBRANCH  13  14
TORSDOF 12
ENDMDL
MODEL 6
REMARK VINA RESULT:    -6.527      2.345      7.118
REMARK INTER + INTRA:         -11.403
REMARK INTER:                 -10.779
REMARK INTRA:                  -0.623
REMARK UNBOUND:                -1.251
REMARK  Name = 
REMARK  12 active torsions:
REMARK  status: ('A' for Active; 'I' for Inactive)
REMARK    1  A    between atoms: N_1  and  C_2
REMARK    2  A    between atoms: N_10  and  C_11
REMARK    3  A    between atoms: C_13  and  C_14
REMARK    4  A    between atoms: C_14  and  S_15
REMARK    5  A    between atoms: S_15  and  C_16
REMARK    6  A    between atoms: C_16  and  C_17
REMARK    7  A    between atoms: C_17  and  C_18
REMARK    8  A    between atoms: C_18  and  N_19
REMARK    9  A    between atoms: C_18  and  C_20
REMARK   10  A    between atoms: C_20  and  O_22
REMARK   11  A    between atoms: C_23  and  O_24
REMARK   12  A    between atoms: C_25  and  O_26
REMARK                            x       y       z     vdW  Elec       q    Type
REMARK                         _______ _______ _______ _____ _____    ______ ____
ROOT
ATOM     11  C   UNK     1      45.300   4.482  13.483  0.00  0.00    +0.000 C 
ATOM     12  O   UNK     1      45.612   3.284  12.739  0.00  0.00    +0.000 OA
ATOM     13  C   UNK     1      44.886   3.283  11.488  0.00  0.00    +0.000 C 
ATOM     23  C   UNK     1      43.924   4.464  11.556  0.00  0.00    +0.000 C 
ATOM     25  C   UNK     1      44.613   5.435  12.505  0.00  0.00    +0.000 C 
ENDROOT
BRANCH  11  10
ATOM      2  C   UNK     1      48.890   5.246  16.637  0.00  0.00    +0.000 A 
ATOM      3  N   UNK     1      48.412   4.384  17.564  0.00  0.00    +0.000 NA
ATOM      4  C   UNK     1      47.255   3.738  17.302  0.00  0.00    +0.000 A 
ATOM      5  N   UNK     1      46.483   3.812  16.197  0.00  0.00    +0.000 NA
ATOM      6  C   UNK     1      47.009   4.666  15.305  0.00  0.00    +0.000 A 
ATOM      7  C   UNK     1      48.178   5.400  15.435  0.00  0.00    +0.000 A 
ATOM      8  N   UNK     1      48.413   6.154  14.303  0.00  0.00    +0.000 NA
ATOM      9  C   UNK     1      47.403   5.879  13.503  0.00  0.00    +0.000 A 
ATOM     10  N   UNK     1      46.517   5.002  14.071  0.00  0.00    +0.000 N 
BRANCH   2   1
ATOM      1  N   UNK     1      50.064   5.933  16.916  0.00  0.00    +0.000 N 
ATOM     27  H   UNK     1      50.305   6.606  16.202  0.00  0.00    +0.000 HD
ATOM     28  H   UNK     1      50.154   6.211  17.887  0.00  0.00    +0.000 HD
ENDBRANCH   2   1
ENDBRANCH  11  10
BRANCH  25  26
ATOM     26  O   UNK     1      43.661   6.301  13.114  0.00  0.00    +0.000 OA
ATOM     33  H   UNK     1      43.795   6.225  14.083  0.00  0.00    +0.000 HD
ENDBRANCH  25  26
BRANCH  23  24
ATOM     24  O   UNK     1      42.667   4.076  12.146  0.00  0.00    +0.000 OA
ATOM     32  H   UNK     1      42.734   4.133  13.118  0.00  0.00    +0.000 HD
ENDBRANCH  23  24
BRANCH  13  14
ATOM     14  C   UNK     1      45.858   3.368  10.304  0.00  0.00    +0.000 C 
BRANCH  14  15
ATOM     15  S   UNK     1      45.022   4.237   8.933  0.00  0.00    +0.000 S 
BRANCH  15  16
ATOM     16  C   UNK     1      46.383   4.311   7.729  0.00  0.00    +0.000 C 
BRANCH  16  17
ATOM     17  C   UNK     1      46.351   3.080   6.818  0.00  0.00    +0.000 C 
BRANCH  17  18
ATOM     18  C   UNK     1      47.418   2.016   7.115  0.00  0.00    +0.000 C 
BRANCH  18  19
ATOM     19  N   UNK     1      48.226   1.793   5.893  0.00  0.00    +0.000 NA
ATOM     29  H   UNK     1      48.323   2.690   5.411  0.00  0.00    +0.000 HD
ATOM     30  H   UNK     1      47.684   1.222   5.245  0.00  0.00    +0.000 HD
ENDBRANCH  18  19
BRANCH  18  20
ATOM     20  C   UNK     1      46.766   0.691   7.556  0.00  0.00    +0.000 C 
ATOM     21  O   UNK     1      47.064  -0.404   7.106  0.00  0.00    +0.000 OA
BRANCH  20  22
ATOM     22  O   UNK     1      45.798   0.848   8.489  0.00  0.00    +0.000 OA
ATOM     31  H   UNK     1      45.937   0.308   9.297  0.00  0.00    +0.000 HD
ENDBRANCH  20  22
ENDBRANCH  18  20
ENDBRANCH  17  18
ENDBRANCH  16  17
ENDBRANCH  15  16
ENDBRANCH  14  15
ENDBRANCH  13  14
TORSDOF 12
ENDMDL
MODEL 7
REMARK VINA RESULT:    -6.492      3.154      4.885
REMARK INTER + INTRA:         -11.348
REMARK INTER:                 -10.312
REMARK INTRA:                  -1.036
REMARK UNBOUND:                -1.251
REMARK  Name = 
REMARK  12 active torsions:
REMARK  status: ('A' for Active; 'I' for Inactive)
REMARK    1  A    between atoms: N_1  and  C_2
REMARK    2  A    between atoms: N_10  and  C_11
REMARK    3  A    between atoms: C_13  and  C_14
REMARK    4  A    between atoms: C_14  and  S_15
REMARK    5  A    between atoms: S_15  and  C_16
REMARK    6  A    between atoms: C_16  and  C_17
REMARK    7  A    between atoms: C_17  and  C_18
REMARK    8  A    between atoms: C_18  and  N_19
REMARK    9  A    between atoms: C_18  and  C_20
REMARK   10  A    between atoms: C_20  and  O_22
REMARK   11  A    between atoms: C_23  and  O_24
REMARK   12  A    between atoms: C_25  and  O_26
REMARK                            x       y       z     vdW  Elec       q    Type
REMARK                         _______ _______ _______ _____ _____    ______ ____
ROOT
ATOM     11  C   UNK     1      46.206   7.157  11.855  0.00  0.00    +0.000 C 
ATOM     12  O   UNK     1      47.613   6.891  11.663  0.00  0.00    +0.000 OA
ATOM     13  C   UNK     1      48.398   7.896  12.345  0.00  0.00    +0.000 C 
ATOM     23  C   UNK     1      47.408   8.951  12.826  0.00  0.00    +0.000 C 
ATOM     25  C   UNK     1      46.108   8.176  12.990  0.00  0.00    +0.000 C 
ENDROOT
BRANCH  11  10
ATOM      2  C   UNK     1      43.929   2.954  11.101  0.00  0.00    +0.000 A 
ATOM      3  N   UNK     1      44.015   3.018   9.752  0.00  0.00    +0.000 NA
ATOM      4  C   UNK     1      44.607   4.100   9.199  0.00  0.00    +0.000 A 
ATOM      5  N   UNK     1      45.167   5.160   9.818  0.00  0.00    +0.000 NA
ATOM      6  C   UNK     1      45.070   5.039  11.152  0.00  0.00    +0.000 A 
ATOM      7  C   UNK     1      44.490   3.997  11.858  0.00  0.00    +0.000 A 
ATOM      8  N   UNK     1      44.598   4.206  13.218  0.00  0.00    +0.000 NA
ATOM      9  C   UNK     1      45.233   5.355  13.330  0.00  0.00    +0.000 A 
ATOM     10  N   UNK     1      45.520   5.908  12.111  0.00  0.00    +0.000 N 
BRANCH   2   1
ATOM      1  N   UNK     1      43.296   1.858  11.671  0.00  0.00    +0.000 N 
ATOM     27  H   UNK     1      43.560   0.982  11.241  0.00  0.00    +0.000 HD
ATOM     28  H   UNK     1      43.242   1.898  12.683  0.00  0.00    +0.000 HD
ENDBRANCH   2   1
ENDBRANCH  11  10
BRANCH  25  26
ATOM     26  O   UNK     1      44.988   9.050  12.886  0.00  0.00    +0.000 OA
ATOM     33  H   UNK     1      44.227   8.577  13.285  0.00  0.00    +0.000 HD
ENDBRANCH  25  26
BRANCH  23  24
ATOM     24  O   UNK     1      47.203   9.966  11.824  0.00  0.00    +0.000 OA
ATOM     32  H   UNK     1      46.422   9.737  11.286  0.00  0.00    +0.000 HD
ENDBRANCH  23  24
BRANCH  13  14
ATOM     14  C   UNK     1      49.203   7.263  13.488  0.00  0.00    +0.000 C 
BRANCH  14  15
ATOM     15  S   UNK     1      49.242   8.436  14.886  0.00  0.00    +0.000 S 
BRANCH  15  16
ATOM     16  C   UNK     1      49.120   7.274  16.278  0.00  0.00    +0.000 C 
BRANCH  16  17
ATOM     17  C   UNK     1      48.390   6.000  15.841  0.00  0.00    +0.000 C 
BRANCH  17  18
ATOM     18  C   UNK     1      48.401   4.855  16.864  0.00  0.00    +0.000 C 
BRANCH  18  19
ATOM     19  N   UNK     1      49.789   4.354  17.009  0.00  0.00    +0.000 NA
ATOM     29  H   UNK     1      50.256   4.456  16.106  0.00  0.00    +0.000 HD
ATOM     30  H   UNK     1      49.756   3.345  17.158  0.00  0.00    +0.000 HD
ENDBRANCH  18  19
BRANCH  18  20
ATOM     20  C   UNK     1      47.478   3.705  16.413  0.00  0.00    +0.000 C 
ATOM     21  O   UNK     1      47.501   3.204  15.301  0.00  0.00    +0.000 OA
BRANCH  20  22
ATOM     22  O   UNK     1      46.607   3.304  17.368  0.00  0.00    +0.000 OA
ATOM     31  H   UNK     1      45.728   3.737  17.308  0.00  0.00    +0.000 HD
ENDBRANCH  20  22
ENDBRANCH  18  20
ENDBRANCH  17  18
ENDBRANCH  16  17
ENDBRANCH  15  16
ENDBRANCH  14  15
ENDBRANCH  13  14
TORSDOF 12
ENDMDL
MODEL 8
REMARK VINA RESULT:    -6.138      4.577      6.462
REMARK INTER + INTRA:         -10.797
REMARK INTER:                  -9.525
REMARK INTRA:                  -1.272
REMARK UNBOUND:                -1.251
REMARK  Name = 
REMARK  12 active torsions:
REMARK  status: ('A' for Active; 'I' for Inactive)
REMARK    1  A    between atoms: N_1  and  C_2
REMARK    2  A    between atoms: N_10  and  C_11
REMARK    3  A    between atoms: C_13  and  C_14
REMARK    4  A    between atoms: C_14  and  S_15
REMARK    5  A    between atoms: S_15  and  C_16
REMARK    6  A    between atoms: C_16  and  C_17
REMARK    7  A    between atoms: C_17  and  C_18
REMARK    8  A    between atoms: C_18  and  N_19
REMARK    9  A    between atoms: C_18  and  C_20
REMARK   10  A    between atoms: C_20  and  O_22
REMARK   11  A    between atoms: C_23  and  O_24
REMARK   12  A    between atoms: C_25  and  O_26
REMARK                            x       y       z     vdW  Elec       q    Type
REMARK                         _______ _______ _______ _____ _____    ______ ____
ROOT
ATOM     11  C   UNK     1      48.440   6.967  13.190  0.00  0.00    +0.000 C 
ATOM     12  O   UNK     1      48.801   6.235  14.382  0.00  0.00    +0.000 OA
ATOM     13  C   UNK     1      49.826   6.957  15.105  0.00  0.00    +0.000 C 
ATOM     23  C   UNK     1      50.252   8.107  14.201  0.00  0.00    +0.000 C 
ATOM     25  C   UNK     1      49.017   8.373  13.351  0.00  0.00    +0.000 C 
ENDROOT
BRANCH  11  10
ATOM      2  C   UNK     1      43.941   5.247  12.711  0.00  0.00    +0.000 A 
ATOM      3  N   UNK     1      44.307   3.947  12.793  0.00  0.00    +0.000 NA
ATOM      4  C   UNK     1      45.620   3.659  12.937  0.00  0.00    +0.000 A 
ATOM      5  N   UNK     1      46.661   4.511  13.036  0.00  0.00    +0.000 NA
ATOM      6  C   UNK     1      46.243   5.785  12.966  0.00  0.00    +0.000 A 
ATOM      7  C   UNK     1      44.939   6.232  12.815  0.00  0.00    +0.000 A 
ATOM      8  N   UNK     1      44.891   7.611  12.807  0.00  0.00    +0.000 NA
ATOM      9  C   UNK     1      46.145   7.990  12.951  0.00  0.00    +0.000 A 
ATOM     10  N   UNK     1      47.001   6.925  13.030  0.00  0.00    +0.000 N 
BRANCH   2   1
ATOM      1  N   UNK     1      42.597   5.546  12.535  0.00  0.00    +0.000 N 
ATOM     27  H   UNK     1      42.069   4.774  12.151  0.00  0.00    +0.000 HD
ATOM     28  H   UNK     1      42.191   6.071  13.301  0.00  0.00    +0.000 HD
ENDBRANCH   2   1
ENDBRANCH  11  10
BRANCH  25  26
ATOM     26  O   UNK     1      49.379   8.992  12.121  0.00  0.00    +0.000 OA
ATOM     33  H   UNK     1      50.348   8.876  12.024  0.00  0.00    +0.000 HD
ENDBRANCH  25  26
BRANCH  23  24
ATOM     24  O   UNK     1      51.324   7.708  13.324  0.00  0.00    +0.000 OA
ATOM     32  H   UNK     1      50.949   7.357  12.494  0.00  0.00    +0.000 HD
ENDBRANCH  23  24
BRANCH  13  14
ATOM     14  C   UNK     1      49.291   7.428  16.465  0.00  0.00    +0.000 C 
BRANCH  14  15
ATOM     15  S   UNK     1      50.325   6.693  17.778  0.00  0.00    +0.000 S 
BRANCH  15  16
ATOM     16  C   UNK     1      49.361   5.195  18.138  0.00  0.00    +0.000 C 
BRANCH  16  17
ATOM     17  C   UNK     1      50.036   3.968  17.518  0.00  0.00    +0.000 C 
BRANCH  17  18
ATOM     18  C   UNK     1      49.110   2.770  17.261  0.00  0.00    +0.000 C 
BRANCH  18  19
ATOM     19  N   UNK     1      49.752   1.871  16.273  0.00  0.00    +0.000 NA
ATOM     29  H   UNK     1      49.537   2.226  15.338  0.00  0.00    +0.000 HD
ATOM     30  H   UNK     1      49.285   0.965  16.306  0.00  0.00    +0.000 HD
ENDBRANCH  18  19
BRANCH  18  20
ATOM     20  C   UNK     1      47.742   3.237  16.726  0.00  0.00    +0.000 C 
ATOM     21  O   UNK     1      46.688   3.103  17.327  0.00  0.00    +0.000 OA
BRANCH  20  22
ATOM     22  O   UNK     1      47.805   3.802  15.498  0.00  0.00    +0.000 OA
ATOM     31  H   UNK     1      47.680   3.165  14.763  0.00  0.00    +0.000 HD
ENDBRANCH  20  22
ENDBRANCH  18  20
ENDBRANCH  17  18
ENDBRANCH  16  17
ENDBRANCH  15  16
ENDBRANCH  14  15
ENDBRANCH  13  14
TORSDOF 12
ENDMDL
