MODEL 1
REMARK VINA RESULT:    -7.521      0.000      0.000
REMARK INTER + INTRA:         -12.445
REMARK INTER:                 -11.479
REMARK INTRA:                  -0.966
REMARK UNBOUND:                -0.966
REMARK  Name = 
REMARK  10 active torsions:
REMARK  status: ('A' for Active; 'I' for Inactive)
REMARK    1  A    between atoms: C_1  and  C_2
REMARK    2  A    between atoms: C_2  and  C_3
REMARK    3  A    between atoms: C_3  and  C_4
REMARK    4  A    between atoms: C_4  and  C_5
REMARK    5  A    between atoms: C_5  and  N_6
REMARK    6  A    between atoms: N_6  and  C_7
REMARK    7  A    between atoms: C_7  and  C_8
REMARK    8  A    between atoms: C_11  and  C_12
REMARK    9  A    between atoms: C_12  and  N_13
REMARK   10  A    between atoms: C_14  and  C_16
REMARK                            x       y       z     vdW  Elec       q    Type
REMARK                         _______ _______ _______ _____ _____    ______ ____
ROOT
ATOM     12  C   UNL     1      46.759   7.957  12.981  0.00  0.00    +0.000 C 
ENDROOT
BRANCH  12  11
ATOM      8  C   UNL     1      44.621   4.823  10.895  0.00  0.00    +0.000 A 
ATOM      9  C   UNL     1      45.672   5.511  10.268  0.00  0.00    +0.000 A 
ATOM     10  C   UNL     1      46.368   6.518  10.942  0.00  0.00    +0.000 A 
ATOM     11  C   UNL     1      46.024   6.865  12.253  0.00  0.00    +0.000 A 
ATOM     26  C   UNL     1      44.946   6.210  12.864  0.00  0.00    +0.000 A 
ATOM     27  C   UNL     1      44.258   5.195  12.197  0.00  0.00    +0.000 A 
BRANCH   8   7
ATOM      7  C   UNL     1      43.874   3.721  10.175  0.00  0.00    +0.000 C 
BRANCH   7   6
ATOM      6  N   UNL     1      44.604   2.454  10.236  0.00  0.00    +0.000 NA
ATOM     28  H   UNL     1      45.537   2.620  10.608  0.00  0.00    +0.000 HD
BRANCH   6   5
ATOM      5  C   UNL     1      44.705   1.834   8.918  0.00  0.00    +0.000 C 
BRANCH   5   4
ATOM      4  C   UNL     1      45.859   2.475   8.144  0.00  0.00    +0.000 C 
BRANCH   4   3
ATOM      3  C   UNL     1      46.837   1.415   7.634  0.00  0.00    +0.000 C 
BRANCH   3   2
ATOM      1  C   UNL     1      46.912   2.866   5.579  0.00  0.00    +0.000 C 
ATOM      2  C   UNL     1      47.710   1.961   6.505  0.00  0.00    +0.000 C 
ENDBRANCH   3   2
ENDBRANCH   4   3
ENDBRANCH   5   4
ENDBRANCH   6   5
ENDBRANCH   7   6
ENDBRANCH   8   7
ENDBRANCH  12  11
BRANCH  12  13
ATOM     13  N   UNL     1      47.232   7.493  14.261  0.00  0.00    +0.000 N 
ATOM     14  C   UNL     1      48.315   6.661  14.359  0.00  0.00    +0.000 C 
ATOM     15  O   UNL     1      48.955   6.305  13.371  0.00  0.00    +0.000 OA
ATOM     29  H   UNL     1      46.599   7.592  15.047  0.00  0.00    +0.000 HD
BRANCH  14  16
ATOM     16  C   UNL     1      48.714   6.260  15.713  0.00  0.00    +0.000 A 
ATOM     17  C   UNL     1      49.634   7.029  16.412  0.00  0.00    +0.000 A 
ATOM     18  S   UNL     1      49.946   6.462  17.989  0.00  0.00    +0.000 S 
ATOM     19  C   UNL     1      48.900   5.138  17.778  0.00  0.00    +0.000 A 
ATOM     20  N   UNL     1      48.721   4.223  18.769  0.00  0.00    +0.000 NA
ATOM     21  C   UNL     1      47.923   3.255  18.466  0.00  0.00    +0.000 A 
ATOM     22  N   UNL     1      47.284   3.120  17.262  0.00  0.00    +0.000 N 
ATOM     23  C   UNL     1      47.415   4.031  16.240  0.00  0.00    +0.000 A 
ATOM     24  O   UNL     1      46.800   3.896  15.187  0.00  0.00    +0.000 OA
ATOM     25  C   UNL     1      48.309   5.136  16.526  0.00  0.00    +0.000 A 
ATOM     30  H   UNL     1      46.664   2.341  17.088  0.00  0.00    +0.000 HD
ENDBRANCH  14  16
ENDBRANCH  12  13
TORSDOF 9
ENDMDL
MODEL 2
REMARK VINA RESULT:    -7.273      1.531      1.954
REMARK INTER + INTRA:         -12.066
REMARK INTER:                 -11.002
REMARK INTRA:                  -1.064
REMARK UNBOUND:                -0.966
REMARK  Name = 
REMARK  10 active torsions:
REMARK  status: ('A' for Active; 'I' for Inactive)
REMARK    1  A    between atoms: C_1  and  C_2
REMARK    2  A    between atoms: C_2  and  C_3
REMARK    3  A    between atoms: C_3  and  C_4
REMARK    4  A    between atoms: C_4  and  C_5
REMARK    5  A    between atoms: C_5  and  N_6
REMARK    6  A    between atoms: N_6  and  C_7
REMARK    7  A    between atoms: C_7  and  C_8
REMARK    8  A    between atoms: C_11  and  C_12
REMARK    9  A    between atoms: C_12  and  N_13
REMARK   10  A    between atoms: C_14  and  C_16
REMARK                            x       y       z     vdW  Elec       q    Type
REMARK                         _______ _______ _______ _____ _____    ______ ____
ROOT
ATOM     12  C   UNL     1      48.014   6.816  13.273  0.00  0.00    +0.000 C 
ENDROOT
BRANCH  12  11
ATOM      8  C   UNL     1      44.898   4.381  11.512  0.00  0.00    +0.000 A 
ATOM      9  C   UNL     1      45.447   4.047  12.760  0.00  0.00    +0.000 A 
ATOM     10  C   UNL     1      46.448   4.835  13.333  0.00  0.00    +0.000 A 
ATOM     11  C   UNL     1      46.927   5.970  12.669  0.00  0.00    +0.000 A 
ATOM     26  C   UNL     1      46.411   6.280  11.404  0.00  0.00    +0.000 A 
ATOM     27  C   UNL     1      45.402   5.500  10.835  0.00  0.00    +0.000 A 
BRANCH   8   7
ATOM      7  C   UNL     1      43.803   3.540  10.894  0.00  0.00    +0.000 C 
BRANCH   7   6
ATOM      6  N   UNL     1      43.995   3.389   9.451  0.00  0.00    +0.000 NA
ATOM     28  H   UNL     1      43.101   3.505   8.979  0.00  0.00    +0.000 HD
BRANCH   6   5
ATOM      5  C   UNL     1      44.558   2.082   9.121  0.00  0.00    +0.000 C 
BRANCH   5   4
ATOM      4  C   UNL     1      45.943   2.270   8.500  0.00  0.00    +0.000 C 
BRANCH   4   3
ATOM      3  C   UNL     1      45.939   3.409   7.478  0.00  0.00    +0.000 C 
BRANCH   3   2
ATOM      1  C   UNL     1      47.838   2.140   6.423  0.00  0.00    +0.000 C 
ATOM      2  C   UNL     1      46.598   2.983   6.168  0.00  0.00    +0.000 C 
ENDBRANCH   3   2
ENDBRANCH   4   3
ENDBRANCH   5   4
ENDBRANCH   6   5
ENDBRANCH   7   6
ENDBRANCH   8   7
ENDBRANCH  12  11
BRANCH  12  13
ATOM     13  N   UNL     1      47.884   6.871  14.707  0.00  0.00    +0.000 N 
ATOM     14  C   UNL     1      48.981   6.790  15.524  0.00  0.00    +0.000 C 
ATOM     15  O   UNL     1      50.123   6.706  15.075  0.00  0.00    +0.000 OA
ATOM     29  H   UNL     1      46.958   6.718  15.090  0.00  0.00    +0.000 HD
BRANCH  14  16
ATOM     16  C   UNL     1      48.731   6.866  16.968  0.00  0.00    +0.000 A 
ATOM     17  C   UNL     1      48.361   8.078  17.535  0.00  0.00    +0.000 A 
ATOM     18  S   UNL     1      48.051   7.986  19.209  0.00  0.00    +0.000 S 
ATOM     19  C   UNL     1      48.449   6.333  19.247  0.00  0.00    +0.000 A 
ATOM     20  N   UNL     1      48.409   5.631  20.412  0.00  0.00    +0.000 NA
ATOM     21  C   UNL     1      48.762   4.394  20.303  0.00  0.00    +0.000 A 
ATOM     22  N   UNL     1      49.147   3.794  19.134  0.00  0.00    +0.000 N 
ATOM     23  C   UNL     1      49.178   4.456  17.928  0.00  0.00    +0.000 A 
ATOM     24  O   UNL     1      49.495   3.877  16.894  0.00  0.00    +0.000 OA
ATOM     25  C   UNL     1      48.799   5.854  17.997  0.00  0.00    +0.000 A 
ATOM     30  H   UNL     1      49.405   2.817  19.112  0.00  0.00    +0.000 HD
ENDBRANCH  14  16
ENDBRANCH  12  13
TORSDOF 9
ENDMDL
MODEL 3
REMARK VINA RESULT:    -6.975      2.137      2.750
REMARK INTER + INTRA:         -11.611
REMARK INTER:                 -10.574
REMARK INTRA:                  -1.037
REMARK UNBOUND:                -0.966
REMARK  Name = 
REMARK  10 active torsions:
REMARK  status: ('A' for Active; 'I' for Inactive)
REMARK    1  A    between atoms: C_1  and  C_2
REMARK    2  A    between atoms: C_2  and  C_3
REMARK    3  A    between atoms: C_3  and  C_4
REMARK    4  A    between atoms: C_4  and  C_5
REMARK    5  A    between atoms: C_5  and  N_6
REMARK    6  A    between atoms: N_6  and  C_7
REMARK    7  A    between atoms: C_7  and  C_8
REMARK    8  A    between atoms: C_11  and  C_12
REMARK    9  A    between atoms: C_12  and  N_13
REMARK   10  A    between atoms: C_14  and  C_16
REMARK                            x       y       z     vdW  Elec       q    Type
REMARK                         _______ _______ _______ _____ _____    ______ ____
ROOT
ATOM     12  C   UNL     1      47.908   7.099  13.760  0.00  0.00    +0.000 C 
ENDROOT
BRANCH  12  11
ATOM      8  C   UNL     1      45.206   4.731  11.345  0.00  0.00    +0.000 A 
ATOM      9  C   UNL     1      45.508   4.350  12.662  0.00  0.00    +0.000 A 
ATOM     10  C   UNL     1      46.374   5.117  13.445  0.00  0.00    +0.000 A 
ATOM     11  C   UNL     1      46.964   6.276  12.928  0.00  0.00    +0.000 A 
ATOM     26  C   UNL     1      46.698   6.632  11.599  0.00  0.00    +0.000 A 
ATOM     27  C   UNL     1      45.822   5.874  10.819  0.00  0.00    +0.000 A 
BRANCH   8   7
ATOM      7  C   UNL     1      44.256   3.912  10.498  0.00  0.00    +0.000 C 
BRANCH   7   6
ATOM      6  N   UNL     1      44.701   2.522  10.390  0.00  0.00    +0.000 NA
ATOM     28  H   UNL     1      45.556   2.399  10.927  0.00  0.00    +0.000 HD
BRANCH   6   5
ATOM      5  C   UNL     1      44.937   2.144   8.999  0.00  0.00    +0.000 C 
BRANCH   5   4
ATOM      4  C   UNL     1      44.878   3.394   8.119  0.00  0.00    +0.000 C 
BRANCH   4   3
ATOM      3  C   UNL     1      46.272   3.789   7.628  0.00  0.00    +0.000 C 
BRANCH   3   2
ATOM      1  C   UNL     1      47.028   2.775   5.453  0.00  0.00    +0.000 C 
ATOM      2  C   UNL     1      46.983   2.611   6.964  0.00  0.00    +0.000 C 
ENDBRANCH   3   2
ENDBRANCH   4   3
ENDBRANCH   5   4
ENDBRANCH   6   5
ENDBRANCH   7   6
ENDBRANCH   8   7
ENDBRANCH  12  11
BRANCH  12  13
ATOM     13  N   UNL     1      47.847   6.708  15.145  0.00  0.00    +0.000 N 
ATOM     14  C   UNL     1      48.984   6.441  15.859  0.00  0.00    +0.000 C 
ATOM     15  O   UNL     1      50.105   6.559  15.367  0.00  0.00    +0.000 OA
ATOM     29  H   UNL     1      46.947   6.396  15.494  0.00  0.00    +0.000 HD
BRANCH  14  16
ATOM     16  C   UNL     1      48.802   6.060  17.265  0.00  0.00    +0.000 A 
ATOM     17  C   UNL     1      49.082   4.760  17.663  0.00  0.00    +0.000 A 
ATOM     18  S   UNL     1      48.876   4.495  19.334  0.00  0.00    +0.000 S 
ATOM     19  C   UNL     1      48.357   6.096  19.579  0.00  0.00    +0.000 A 
ATOM     20  N   UNL     1      47.996   6.532  20.816  0.00  0.00    +0.000 NA
ATOM     21  C   UNL     1      47.595   7.759  20.855  0.00  0.00    +0.000 A 
ATOM     22  N   UNL     1      47.527   8.590  19.769  0.00  0.00    +0.000 N 
ATOM     23  C   UNL     1      47.904   8.202  18.505  0.00  0.00    +0.000 A 
ATOM     24  O   UNL     1      47.862   8.984  17.561  0.00  0.00    +0.000 OA
ATOM     25  C   UNL     1      48.354   6.827  18.404  0.00  0.00    +0.000 A 
ATOM     30  H   UNL     1      47.211   9.545  19.866  0.00  0.00    +0.000 HD
ENDBRANCH  14  16
ENDBRANCH  12  13
TORSDOF 9
ENDMDL
MODEL 4
REMARK VINA RESULT:    -6.585      3.675      9.116
REMARK INTER + INTRA:         -11.017
REMARK INTER:                  -9.140
REMARK INTRA:                  -1.877
REMARK UNBOUND:                -0.966
REMARK  Name = 
REMARK  10 active torsions:
REMARK  status: ('A' for Active; 'I' for Inactive)
REMARK    1  A    between atoms: C_1  and  C_2
REMARK    2  A    between atoms: C_2  and  C_3
REMARK    3  A    between atoms: C_3  and  C_4
REMARK    4  A    between atoms: C_4  and  C_5
REMARK    5  A    between atoms: C_5  and  N_6
REMARK    6  A    between atoms: N_6  and  C_7
REMARK    7  A    between atoms: C_7  and  C_8
REMARK    8  A    between atoms: C_11  and  C_12
REMARK    9  A    between atoms: C_12  and  N_13
REMARK   10  A    between atoms: C_14  and  C_16
REMARK                            x       y       z     vdW  Elec       q    Type
REMARK                         _______ _______ _______ _____ _____    ______ ____
ROOT
ATOM     12  C   UNL     1      47.306   3.463  16.584  0.00  0.00    +0.000 C 
ENDROOT
BRANCH  12  11
ATOM      8  C   UNL     1      51.298   4.672  17.745  0.00  0.00    +0.000 A 
ATOM      9  C   UNL     1      50.923   3.320  17.776  0.00  0.00    +0.000 A 
ATOM     10  C   UNL     1      49.638   2.927  17.395  0.00  0.00    +0.000 A 
ATOM     11  C   UNL     1      48.697   3.877  16.983  0.00  0.00    +0.000 A 
ATOM     26  C   UNL     1      49.056   5.231  16.994  0.00  0.00    +0.000 A 
ATOM     27  C   UNL     1      50.344   5.624  17.362  0.00  0.00    +0.000 A 
BRANCH   8   7
ATOM      7  C   UNL     1      52.694   5.101  18.142  0.00  0.00    +0.000 C 
BRANCH   7   6
ATOM      6  N   UNL     1      52.668   6.005  19.293  0.00  0.00    +0.000 NA
ATOM     28  H   UNL     1      53.577   6.453  19.389  0.00  0.00    +0.000 HD
BRANCH   6   5
ATOM      5  C   UNL     1      52.339   5.292  20.524  0.00  0.00    +0.000 C 
BRANCH   5   4
ATOM      4  C   UNL     1      51.051   5.870  21.114  0.00  0.00    +0.000 C 
BRANCH   4   3
ATOM      3  C   UNL     1      49.920   4.841  21.082  0.00  0.00    +0.000 C 
BRANCH   3   2
ATOM      1  C   UNL     1      48.757   6.957  20.375  0.00  0.00    +0.000 C 
ATOM      2  C   UNL     1      48.578   5.499  20.766  0.00  0.00    +0.000 C 
ENDBRANCH   3   2
ENDBRANCH   4   3
ENDBRANCH   5   4
ENDBRANCH   6   5
ENDBRANCH   7   6
ENDBRANCH   8   7
ENDBRANCH  12  11
BRANCH  12  13
ATOM     13  N   UNL     1      46.730   4.416  15.670  0.00  0.00    +0.000 N 
ATOM     14  C   UNL     1      46.746   4.203  14.317  0.00  0.00    +0.000 C 
ATOM     15  O   UNL     1      47.214   3.178  13.825  0.00  0.00    +0.000 OA
ATOM     29  H   UNL     1      46.545   5.346  16.032  0.00  0.00    +0.000 HD
BRANCH  14  16
ATOM     16  C   UNL     1      46.122   5.236  13.483  0.00  0.00    +0.000 A 
ATOM     17  C   UNL     1      46.803   6.420  13.236  0.00  0.00    +0.000 A 
ATOM     18  S   UNL     1      45.968   7.490  12.203  0.00  0.00    +0.000 S 
ATOM     19  C   UNL     1      44.643   6.430  12.089  0.00  0.00    +0.000 A 
ATOM     20  N   UNL     1      43.547   6.759  11.352  0.00  0.00    +0.000 NA
ATOM     21  C   UNL     1      42.603   5.878  11.375  0.00  0.00    +0.000 A 
ATOM     22  N   UNL     1      42.658   4.696  12.063  0.00  0.00    +0.000 N 
ATOM     23  C   UNL     1      43.753   4.310  12.801  0.00  0.00    +0.000 A 
ATOM     24  O   UNL     1      43.781   3.228  13.378  0.00  0.00    +0.000 OA
ATOM     25  C   UNL     1      44.840   5.270  12.817  0.00  0.00    +0.000 A 
ATOM     30  H   UNL     1      41.888   4.042  12.035  0.00  0.00    +0.000 HD
ENDBRANCH  14  16
ENDBRANCH  12  13
TORSDOF 9
ENDMDL
MODEL 5
REMARK VINA RESULT:    -6.583      2.139      3.468
REMARK INTER + INTRA:         -11.012
REMARK INTER:                  -9.996
REMARK INTRA:                  -1.016
REMARK UNBOUND:                -0.966
REMARK  Name = 
REMARK  10 active torsions:
REMARK  status: ('A' for Active; 'I' for Inactive)
REMARK    1  A    between atoms: C_1  and  C_2
REMARK    2  A    between atoms: C_2  and  C_3
REMARK    3  A    between atoms: C_3  and  C_4
REMARK    4  A    between atoms: C_4  and  C_5
REMARK    5  A    between atoms: C_5  and  N_6
REMARK    6  A    between atoms: N_6  and  C_7
REMARK    7  A    between atoms: C_7  and  C_8
REMARK    8  A    between atoms: C_11  and  C_12
REMARK    9  A    between atoms: C_12  and  N_13
REMARK   10  A    between atoms: C_14  and  C_16
REMARK                            x       y       z     vdW  Elec       q    Type
REMARK                         _______ _______ _______ _____ _____    ______ ____
ROOT
ATOM     12  C   UNL     1      47.365   4.065  14.733  0.00  0.00    +0.000 C 
ENDROOT
BRANCH  12  11
ATOM      8  C   UNL     1      44.602   4.812  11.485  0.00  0.00    +0.000 A 
ATOM      9  C   UNL     1      45.174   5.878  12.196  0.00  0.00    +0.000 A 
ATOM     10  C   UNL     1      46.072   5.640  13.240  0.00  0.00    +0.000 A 
ATOM     11  C   UNL     1      46.410   4.331  13.602  0.00  0.00    +0.000 A 
ATOM     26  C   UNL     1      45.806   3.265  12.922  0.00  0.00    +0.000 A 
ATOM     27  C   UNL     1      44.918   3.502  11.870  0.00  0.00    +0.000 A 
BRANCH   8   7
ATOM      7  C   UNL     1      43.641   5.066  10.344  0.00  0.00    +0.000 C 
BRANCH   7   6
ATOM      6  N   UNL     1      43.982   4.261   9.170  0.00  0.00    +0.000 NA
ATOM     28  H   UNL     1      43.847   3.276   9.386  0.00  0.00    +0.000 HD
BRANCH   6   5
ATOM      5  C   UNL     1      45.364   4.485   8.752  0.00  0.00    +0.000 C 
BRANCH   5   4
ATOM      4  C   UNL     1      45.774   3.398   7.757  0.00  0.00    +0.000 C 
BRANCH   4   3
ATOM      3  C   UNL     1      45.965   2.052   8.458  0.00  0.00    +0.000 C 
BRANCH   3   2
ATOM      1  C   UNL     1      47.853   1.853   6.807  0.00  0.00    +0.000 C 
ATOM      2  C   UNL     1      46.806   1.098   7.612  0.00  0.00    +0.000 C 
ENDBRANCH   3   2
ENDBRANCH   4   3
ENDBRANCH   5   4
ENDBRANCH   6   5
ENDBRANCH   7   6
ENDBRANCH   8   7
ENDBRANCH  12  11
BRANCH  12  13
ATOM     13  N   UNL     1      47.481   5.219  15.588  0.00  0.00    +0.000 N 
ATOM     14  C   UNL     1      48.484   5.318  16.516  0.00  0.00    +0.000 C 
ATOM     15  O   UNL     1      49.349   4.452  16.635  0.00  0.00    +0.000 OA
ATOM     29  H   UNL     1      46.669   5.823  15.656  0.00  0.00    +0.000 HD
BRANCH  14  16
ATOM     16  C   UNL     1      48.510   6.542  17.325  0.00  0.00    +0.000 A 
ATOM     17  C   UNL     1      48.505   6.446  18.710  0.00  0.00    +0.000 A 
ATOM     18  S   UNL     1      48.597   7.953  19.502  0.00  0.00    +0.000 S 
ATOM     19  C   UNL     1      48.597   8.791  18.023  0.00  0.00    +0.000 A 
ATOM     20  N   UNL     1      48.642  10.151  17.990  0.00  0.00    +0.000 NA
ATOM     21  C   UNL     1      48.607  10.659  16.804  0.00  0.00    +0.000 A 
ATOM     22  N   UNL     1      48.538   9.931  15.646  0.00  0.00    +0.000 N 
ATOM     23  C   UNL     1      48.515   8.555  15.629  0.00  0.00    +0.000 A 
ATOM     24  O   UNL     1      48.487   7.934  14.571  0.00  0.00    +0.000 OA
ATOM     25  C   UNL     1      48.542   7.933  16.938  0.00  0.00    +0.000 A 
ATOM     30  H   UNL     1      48.521  10.388  14.746  0.00  0.00    +0.000 HD
ENDBRANCH  14  16
ENDBRANCH  12  13
TORSDOF 9
ENDMDL
MODEL 6
REMARK VINA RESULT:    -6.516      3.661      8.751
REMARK INTER + INTRA:         -10.911
REMARK INTER:                  -9.181
REMARK INTRA:                  -1.730
REMARK UNBOUND:                -0.966
REMARK  Name = 
REMARK  10 active torsions:
REMARK  status: ('A' for Active; 'I' for Inactive)
REMARK    1  A    between atoms: C_1  and  C_2
REMARK    2  A    between atoms: C_2  and  C_3
REMARK    3  A    between atoms: C_3  and  C_4
REMARK    4  A    between atoms: C_4  and  C_5
REMARK    5  A    between atoms: C_5  and  N_6
REMARK    6  A    between atoms: N_6  and  C_7
REMARK    7  A    between atoms: C_7  and  C_8
REMARK    8  A    between atoms: C_11  and  C_12
REMARK    9  A    between atoms: C_12  and  N_13
REMARK   10  A    between atoms: C_14  and  C_16
REMARK                            x       y       z     vdW  Elec       q    Type
REMARK                         _______ _______ _______ _____ _____    ______ ____
ROOT
ATOM     12  C   UNL     1      47.474   3.623  16.538  0.00  0.00    +0.000 C 
ENDROOT
BRANCH  12  11
ATOM      8  C   UNL     1      50.269   5.590  19.195  0.00  0.00    +0.000 A 
ATOM      9  C   UNL     1      50.147   5.997  17.857  0.00  0.00    +0.000 A 
ATOM     10  C   UNL     1      49.241   5.368  17.000  0.00  0.00    +0.000 A 
ATOM     11  C   UNL     1      48.442   4.314  17.458  0.00  0.00    +0.000 A 
ATOM     26  C   UNL     1      48.594   3.878  18.781  0.00  0.00    +0.000 A 
ATOM     27  C   UNL     1      49.491   4.514  19.642  0.00  0.00    +0.000 A 
BRANCH   8   7
ATOM      7  C   UNL     1      51.238   6.278  20.131  0.00  0.00    +0.000 C 
BRANCH   7   6
ATOM      6  N   UNL     1      52.225   5.338  20.664  0.00  0.00    +0.000 NA
ATOM     28  H   UNL     1      52.579   5.688  21.551  0.00  0.00    +0.000 HD
BRANCH   6   5
ATOM      5  C   UNL     1      53.335   5.147  19.734  0.00  0.00    +0.000 C 
BRANCH   5   4
ATOM      4  C   UNL     1      53.455   3.661  19.388  0.00  0.00    +0.000 C 
BRANCH   4   3
ATOM      3  C   UNL     1      52.789   3.352  18.045  0.00  0.00    +0.000 C 
BRANCH   3   2
ATOM      1  C   UNL     1      51.081   1.718  17.184  0.00  0.00    +0.000 C 
ATOM      2  C   UNL     1      52.385   1.882  17.950  0.00  0.00    +0.000 C 
ENDBRANCH   3   2
ENDBRANCH   4   3
ENDBRANCH   5   4
ENDBRANCH   6   5
ENDBRANCH   7   6
ENDBRANCH   8   7
ENDBRANCH  12  11
BRANCH  12  13
ATOM     13  N   UNL     1      46.891   4.558  15.609  0.00  0.00    +0.000 N 
ATOM     14  C   UNL     1      46.780   4.262  14.277  0.00  0.00    +0.000 C 
ATOM     15  O   UNL     1      47.134   3.177  13.820  0.00  0.00    +0.000 OA
ATOM     29  H   UNL     1      46.802   5.519  15.922  0.00  0.00    +0.000 HD
BRANCH  14  16
ATOM     16  C   UNL     1      46.162   5.285  13.426  0.00  0.00    +0.000 A 
ATOM     17  C   UNL     1      46.859   6.451  13.143  0.00  0.00    +0.000 A 
ATOM     18  S   UNL     1      46.028   7.510  12.096  0.00  0.00    +0.000 S 
ATOM     19  C   UNL     1      44.684   6.471  12.024  0.00  0.00    +0.000 A 
ATOM     20  N   UNL     1      43.584   6.800  11.294  0.00  0.00    +0.000 NA
ATOM     21  C   UNL     1      42.627   5.936  11.350  0.00  0.00    +0.000 A 
ATOM     22  N   UNL     1      42.671   4.770  12.065  0.00  0.00    +0.000 N 
ATOM     23  C   UNL     1      43.769   4.383  12.798  0.00  0.00    +0.000 A 
ATOM     24  O   UNL     1      43.787   3.314  13.400  0.00  0.00    +0.000 OA
ATOM     25  C   UNL     1      44.872   5.325  12.776  0.00  0.00    +0.000 A 
ATOM     30  H   UNL     1      41.890   4.129  12.063  0.00  0.00    +0.000 HD
ENDBRANCH  14  16
ENDBRANCH  12  13
TORSDOF 9
ENDMDL
MODEL 7
REMARK VINA RESULT:    -6.466      3.635      8.672
REMARK INTER + INTRA:         -10.834
REMARK INTER:                  -8.700
REMARK INTRA:                  -2.134
REMARK UNBOUND:                -0.966
REMARK  Name = 
REMARK  10 active torsions:
REMARK  status: ('A' for Active; 'I' for Inactive)
REMARK    1  A    between atoms: C_1  and  C_2
REMARK    2  A    between atoms: C_2  and  C_3
REMARK    3  A    between atoms: C_3  and  C_4
REMARK    4  A    between atoms: C_4  and  C_5
REMARK    5  A    between atoms: C_5  and  N_6
REMARK    6  A    between atoms: N_6  and  C_7
REMARK    7  A    between atoms: C_7  and  C_8
REMARK    8  A    between atoms: C_11  and  C_12
REMARK    9  A    between atoms: C_12  and  N_13
REMARK   10  A    between atoms: C_14  and  C_16
REMARK                            x       y       z     vdW  Elec       q    Type
REMARK                         _______ _______ _______ _____ _____    ______ ____
ROOT
ATOM     12  C   UNL     1      47.422   3.484  16.446  0.00  0.00    +0.000 C 
ENDROOT
BRANCH  12  11
ATOM      8  C   UNL     1      49.259   5.482  19.820  0.00  0.00    +0.000 A 
ATOM      9  C   UNL     1      47.901   5.681  19.523  0.00  0.00    +0.000 A 
ATOM     10  C   UNL     1      47.305   5.032  18.440  0.00  0.00    +0.000 A 
ATOM     11  C   UNL     1      48.053   4.176  17.623  0.00  0.00    +0.000 A 
ATOM     26  C   UNL     1      49.419   4.012  17.891  0.00  0.00    +0.000 A 
ATOM     27  C   UNL     1      50.013   4.650  18.981  0.00  0.00    +0.000 A 
BRANCH   8   7
ATOM      7  C   UNL     1      49.906   6.171  21.001  0.00  0.00    +0.000 C 
BRANCH   7   6
ATOM      6  N   UNL     1      49.774   7.626  20.909  0.00  0.00    +0.000 NA
ATOM     28  H   UNL     1      48.834   7.859  20.595  0.00  0.00    +0.000 HD
BRANCH   6   5
ATOM      5  C   UNL     1      50.753   8.193  19.986  0.00  0.00    +0.000 C 
BRANCH   5   4
ATOM      4  C   UNL     1      50.021   8.885  18.834  0.00  0.00    +0.000 C 
BRANCH   4   3
ATOM      3  C   UNL     1      50.396   8.259  17.489  0.00  0.00    +0.000 C 
BRANCH   3   2
ATOM      1  C   UNL     1      49.541   6.910  15.545  0.00  0.00    +0.000 C 
ATOM      2  C   UNL     1      49.158   7.768  16.741  0.00  0.00    +0.000 C 
ENDBRANCH   3   2
ENDBRANCH   4   3
ENDBRANCH   5   4
ENDBRANCH   6   5
ENDBRANCH   7   6
ENDBRANCH   8   7
ENDBRANCH  12  11
BRANCH  12  13
ATOM     13  N   UNL     1      46.791   4.437  15.568  0.00  0.00    +0.000 N 
ATOM     14  C   UNL     1      46.811   4.271  14.209  0.00  0.00    +0.000 C 
ATOM     15  O   UNL     1      47.329   3.290  13.679  0.00  0.00    +0.000 OA
ATOM     29  H   UNL     1      46.561   5.342  15.963  0.00  0.00    +0.000 HD
BRANCH  14  16
ATOM     16  C   UNL     1      46.128   5.299  13.414  0.00  0.00    +0.000 A 
ATOM     17  C   UNL     1      46.751   6.519  13.194  0.00  0.00    +0.000 A 
ATOM     18  S   UNL     1      45.854   7.579  12.204  0.00  0.00    +0.000 S 
ATOM     19  C   UNL     1      44.577   6.463  12.074  0.00  0.00    +0.000 A 
ATOM     20  N   UNL     1      43.457   6.762  11.361  0.00  0.00    +0.000 NA
ATOM     21  C   UNL     1      42.556   5.838  11.369  0.00  0.00    +0.000 A 
ATOM     22  N   UNL     1      42.674   4.640  12.021  0.00  0.00    +0.000 N 
ATOM     23  C   UNL     1      43.796   4.284  12.733  0.00  0.00    +0.000 A 
ATOM     24  O   UNL     1      43.881   3.188  13.277  0.00  0.00    +0.000 OA
ATOM     25  C   UNL     1      44.837   5.292  12.764  0.00  0.00    +0.000 A 
ATOM     30  H   UNL     1      41.934   3.953  11.983  0.00  0.00    +0.000 HD
ENDBRANCH  14  16
ENDBRANCH  12  13
TORSDOF 9
ENDMDL
MODEL 8
REMARK VINA RESULT:    -6.465      3.337      8.446
REMARK INTER + INTRA:         -10.832
REMARK INTER:                  -8.740
REMARK INTRA:                  -2.092
REMARK UNBOUND:                -0.966
REMARK  Name = 
REMARK  10 active torsions:
REMARK  status: ('A' for Active; 'I' for Inactive)
REMARK    1  A    between atoms: C_1  and  C_2
REMARK    2  A    between atoms: C_2  and  C_3
REMARK    3  A    between atoms: C_3  and  C_4
REMARK    4  A    between atoms: C_4  and  C_5
REMARK    5  A    between atoms: C_5  and  N_6
REMARK    6  A    between atoms: N_6  and  C_7
REMARK    7  A    between atoms: C_7  and  C_8
REMARK    8  A    between atoms: C_11  and  C_12
REMARK    9  A    between atoms: C_12  and  N_13
REMARK   10  A    between atoms: C_14  and  C_16
REMARK                            x       y       z     vdW  Elec       q    Type
REMARK                         _______ _______ _______ _____ _____    ______ ____
ROOT
ATOM     12  C   UNL     1      48.382   7.118  14.438  0.00  0.00    +0.000 C 
ENDROOT
BRANCH  12  11
ATOM      8  C   UNL     1      49.457   4.749  17.899  0.00  0.00    +0.000 A 
ATOM      9  C   UNL     1      50.301   5.775  17.444  0.00  0.00    +0.000 A 
ATOM     10  C   UNL     1      49.952   6.545  16.332  0.00  0.00    +0.000 A 
ATOM     11  C   UNL     1      48.758   6.302  15.644  0.00  0.00    +0.000 A 
ATOM     26  C   UNL     1      47.937   5.249  16.070  0.00  0.00    +0.000 A 
ATOM     27  C   UNL     1      48.278   4.487  17.189  0.00  0.00    +0.000 A 
BRANCH   8   7
ATOM      7  C   UNL     1      49.823   3.922  19.112  0.00  0.00    +0.000 C 
BRANCH   7   6
ATOM      6  N   UNL     1      48.766   3.961  20.123  0.00  0.00    +0.000 NA
ATOM     28  H   UNL     1      47.859   3.961  19.661  0.00  0.00    +0.000 HD
BRANCH   6   5
ATOM      5  C   UNL     1      48.884   5.143  20.972  0.00  0.00    +0.000 C 
BRANCH   5   4
ATOM      4  C   UNL     1      47.505   5.786  21.139  0.00  0.00    +0.000 C 
BRANCH   4   3
ATOM      3  C   UNL     1      47.140   6.631  19.917  0.00  0.00    +0.000 C 
BRANCH   3   2
ATOM      1  C   UNL     1      47.836   8.565  18.466  0.00  0.00    +0.000 C 
ATOM      2  C   UNL     1      48.055   7.848  19.789  0.00  0.00    +0.000 C 
ENDBRANCH   3   2
ENDBRANCH   4   3
ENDBRANCH   5   4
ENDBRANCH   6   5
ENDBRANCH   7   6
ENDBRANCH   8   7
ENDBRANCH  12  11
BRANCH  12  13
ATOM     13  N   UNL     1      47.125   6.675  13.890  0.00  0.00    +0.000 N 
ATOM     14  C   UNL     1      46.878   6.728  12.544  0.00  0.00    +0.000 C 
ATOM     15  O   UNL     1      47.724   7.118  11.742  0.00  0.00    +0.000 OA
ATOM     29  H   UNL     1      46.355   6.563  14.540  0.00  0.00    +0.000 HD
BRANCH  14  16
ATOM     16  C   UNL     1      45.568   6.241  12.098  0.00  0.00    +0.000 A 
ATOM     17  C   UNL     1      44.657   7.134  11.551  0.00  0.00    +0.000 A 
ATOM     18  S   UNL     1      43.208   6.402  11.029  0.00  0.00    +0.000 S 
ATOM     19  C   UNL     1      43.726   4.872  11.561  0.00  0.00    +0.000 A 
ATOM     20  N   UNL     1      42.927   3.778  11.428  0.00  0.00    +0.000 NA
ATOM     21  C   UNL     1      43.432   2.687  11.899  0.00  0.00    +0.000 A 
ATOM     22  N   UNL     1      44.665   2.589  12.487  0.00  0.00    +0.000 N 
ATOM     23  C   UNL     1      45.516   3.661  12.622  0.00  0.00    +0.000 A 
ATOM     24  O   UNL     1      46.628   3.531  13.123  0.00  0.00    +0.000 OA
ATOM     25  C   UNL     1      44.993   4.916  12.116  0.00  0.00    +0.000 A 
ATOM     30  H   UNL     1      45.007   1.703  12.830  0.00  0.00    +0.000 HD
ENDBRANCH  14  16
ENDBRANCH  12  13
TORSDOF 9
ENDMDL
MODEL 9
REMARK VINA RESULT:    -6.453      4.144      8.754
REMARK INTER + INTRA:         -10.814
REMARK INTER:                  -9.878
REMARK INTRA:                  -0.937
REMARK UNBOUND:                -0.966
REMARK  Name = 
REMARK  10 active torsions:
REMARK  status: ('A' for Active; 'I' for Inactive)
REMARK    1  A    between atoms: C_1  and  C_2
REMARK    2  A    between atoms: C_2  and  C_3
REMARK    3  A    between atoms: C_3  and  C_4
REMARK    4  A    between atoms: C_4  and  C_5
REMARK    5  A    between atoms: C_5  and  N_6
REMARK    6  A    between atoms: N_6  and  C_7
REMARK    7  A    between atoms: C_7  and  C_8
REMARK    8  A    between atoms: C_11  and  C_12
REMARK    9  A    between atoms: C_12  and  N_13
REMARK   10  A    between atoms: C_14  and  C_16
REMARK                            x       y       z     vdW  Elec       q    Type
REMARK                         _______ _______ _______ _____ _____    ______ ____
ROOT
ATOM     12  C   UNL     1      47.164   3.329  16.915  0.00  0.00    +0.000 C 
ENDROOT
BRANCH  12  11
ATOM      8  C   UNL     1      51.409   3.349  17.766  0.00  0.00    +0.000 A 
ATOM      9  C   UNL     1      50.635   4.504  17.962  0.00  0.00    +0.000 A 
ATOM     10  C   UNL     1      49.263   4.497  17.695  0.00  0.00    +0.000 A 
ATOM     11  C   UNL     1      48.637   3.340  17.218  0.00  0.00    +0.000 A 
ATOM     26  C   UNL     1      49.416   2.201  16.979  0.00  0.00    +0.000 A 
ATOM     27  C   UNL     1      50.785   2.202  17.259  0.00  0.00    +0.000 A 
BRANCH   8   7
ATOM      7  C   UNL     1      52.891   3.346  18.069  0.00  0.00    +0.000 C 
BRANCH   7   6
ATOM      6  N   UNL     1      53.242   2.280  19.008  0.00  0.00    +0.000 NA
ATOM     28  H   UNL     1      52.884   2.513  19.931  0.00  0.00    +0.000 HD
BRANCH   6   5
ATOM      5  C   UNL     1      54.688   2.086  19.077  0.00  0.00    +0.000 C 
BRANCH   5   4
ATOM      4  C   UNL     1      55.012   0.609  18.841  0.00  0.00    +0.000 C 
BRANCH   4   3
ATOM      3  C   UNL     1      53.947  -0.056  17.968  0.00  0.00    +0.000 C 
BRANCH   3   2
ATOM      1  C   UNL     1      55.072  -1.507  16.247  0.00  0.00    +0.000 C 
ATOM      2  C   UNL     1      54.408  -0.165  16.515  0.00  0.00    +0.000 C 
ENDBRANCH   3   2
ENDBRANCH   4   3
ENDBRANCH   5   4
ENDBRANCH   6   5
ENDBRANCH   7   6
ENDBRANCH   8   7
ENDBRANCH  12  11
BRANCH  12  13
ATOM     13  N   UNL     1      46.830   4.347  15.951  0.00  0.00    +0.000 N 
ATOM     14  C   UNL     1      46.952   4.120  14.606  0.00  0.00    +0.000 C 
ATOM     15  O   UNL     1      47.312   3.032  14.159  0.00  0.00    +0.000 OA
ATOM     29  H   UNL     1      46.749   5.297  16.297  0.00  0.00    +0.000 HD
BRANCH  14  16
ATOM     16  C   UNL     1      46.575   5.225  13.717  0.00  0.00    +0.000 A 
ATOM     17  C   UNL     1      47.473   6.259  13.494  0.00  0.00    +0.000 A 
ATOM     18  S   UNL     1      46.907   7.433  12.393  0.00  0.00    +0.000 S 
ATOM     19  C   UNL     1      45.421   6.626  12.214  0.00  0.00    +0.000 A 
ATOM     20  N   UNL     1      44.448   7.126  11.404  0.00  0.00    +0.000 NA
ATOM     21  C   UNL     1      43.361   6.429  11.382  0.00  0.00    +0.000 A 
ATOM     22  N   UNL     1      43.160   5.276  12.093  0.00  0.00    +0.000 N 
ATOM     23  C   UNL     1      44.122   4.720  12.903  0.00  0.00    +0.000 A 
ATOM     24  O   UNL     1      43.920   3.667  13.499  0.00  0.00    +0.000 OA
ATOM     25  C   UNL     1      45.362   5.469  12.971  0.00  0.00    +0.000 A 
ATOM     30  H   UNL     1      42.288   4.771  12.027  0.00  0.00    +0.000 HD
ENDBRANCH  14  16
ENDBRANCH  12  13
TORSDOF 9
ENDMDL
