MODEL 1
REMARK VINA RESULT:    -8.341      0.000      0.000
REMARK INTER + INTRA:         -10.332
REMARK INTER:                  -9.804
REMARK INTRA:                  -0.527
REMARK UNBOUND:                -0.527
REMARK  Name = 
REMARK  4 active torsions:
REMARK  status: ('A' for Active; 'I' for Inactive)
REMARK    1  A    between atoms: C_1  and  C_2
REMARK    2  A    between atoms: C_2  and  N_3
REMARK    3  A    between atoms: C_2  and  C_13
REMARK    4  A    between atoms: C_7  and  C_8
REMARK                            x       y       z     vdW  Elec       q    Type
REMARK                         _______ _______ _______ _____ _____    ______ ____
ROOT
ATOM      3  N   UNL     1      43.786   3.841  10.432  0.00  0.00    +0.000 N 
ATOM      4  C   UNL     1      44.711   3.505   9.443  0.00  0.00    +0.000 A 
ATOM      5  C   UNL     1      45.056   2.157   9.340  0.00  0.00    +0.000 A 
ATOM      6  C   UNL     1      45.985   1.744   8.386  0.00  0.00    +0.000 A 
ATOM      7  C   UNL     1      46.528   2.673   7.502  0.00  0.00    +0.000 A 
ATOM     11  C   UNL     1      46.100   3.986   7.639  0.00  0.00    +0.000 A 
ATOM     12  N   UNL     1      45.224   4.418   8.598  0.00  0.00    +0.000 NA
ATOM     19  H   UNL     1      42.883   3.457  10.178  0.00  0.00    +0.000 HD
ENDROOT
BRANCH   7   8
ATOM      8  C   UNL     1      47.525   2.201   6.509  0.00  0.00    +0.000 C 
ATOM      9  N   UNL     1      47.881   3.019   5.471  0.00  0.00    +0.000 N 
ATOM     10  O   UNL     1      48.035   1.090   6.603  0.00  0.00    +0.000 OA
ATOM     20  H   UNL     1      47.499   3.925   5.271  0.00  0.00    +0.000 HD
ATOM     21  H   UNL     1      48.562   2.642   4.821  0.00  0.00    +0.000 HD
ENDBRANCH   7   8
BRANCH   3   2
ATOM      1  C   UNL     1      42.439   5.483  11.718  0.00  0.00    +0.000 C 
ATOM      2  C   UNL     1      43.712   5.218  10.913  0.00  0.00    +0.000 C 
BRANCH   2  13
ATOM     13  C   UNL     1      44.904   5.512  11.834  0.00  0.00    +0.000 A 
ATOM     14  C   UNL     1      45.129   4.692  12.954  0.00  0.00    +0.000 A 
ATOM     15  C   UNL     1      46.306   4.800  13.699  0.00  0.00    +0.000 A 
ATOM     16  C   UNL     1      47.273   5.739  13.346  0.00  0.00    +0.000 A 
ATOM     17  C   UNL     1      47.047   6.595  12.272  0.00  0.00    +0.000 A 
ATOM     18  C   UNL     1      45.870   6.486  11.524  0.00  0.00    +0.000 A 
ENDBRANCH   2  13
ENDBRANCH   3   2
TORSDOF 3
ENDMDL
MODEL 2
REMARK VINA RESULT:    -8.274      0.222      1.156
REMARK INTER + INTRA:         -10.252
REMARK INTER:                  -9.804
REMARK INTRA:                  -0.448
REMARK UNBOUND:                -0.527
REMARK  Name = 
REMARK  4 active torsions:
REMARK  status: ('A' for Active; 'I' for Inactive)
REMARK    1  A    between atoms: C_1  and  C_2
REMARK    2  A    between atoms: C_2  and  N_3
REMARK    3  A    between atoms: C_2  and  C_13
REMARK    4  A    between atoms: C_7  and  C_8
REMARK                            x       y       z     vdW  Elec       q    Type
REMARK                         _______ _______ _______ _____ _____    ______ ____
ROOT
ATOM      3  N   UNL     1      43.802   3.849  10.265  0.00  0.00    +0.000 N 
ATOM      4  C   UNL     1      44.759   3.525   9.302  0.00  0.00    +0.000 A 
ATOM      5  C   UNL     1      45.044   2.169   9.133  0.00  0.00    +0.000 A 
ATOM      6  C   UNL     1      45.999   1.766   8.202  0.00  0.00    +0.000 A 
ATOM      7  C   UNL     1      46.630   2.717   7.403  0.00  0.00    +0.000 A 
ATOM     11  C   UNL     1      46.260   4.039   7.600  0.00  0.00    +0.000 A 
ATOM     12  N   UNL     1      45.357   4.459   8.540  0.00  0.00    +0.000 NA
ATOM     19  H   UNL     1      42.896   3.528   9.945  0.00  0.00    +0.000 HD
ENDROOT
BRANCH   7   8
ATOM      8  C   UNL     1      47.652   2.254   6.432  0.00  0.00    +0.000 C 
ATOM      9  N   UNL     1      47.854   2.962   5.279  0.00  0.00    +0.000 N 
ATOM     10  O   UNL     1      48.319   1.247   6.646  0.00  0.00    +0.000 OA
ATOM     20  H   UNL     1      47.340   3.770   4.980  0.00  0.00    +0.000 HD
ATOM     21  H   UNL     1      48.562   2.596   4.650  0.00  0.00    +0.000 HD
ENDBRANCH   7   8
BRANCH   3   2
ATOM      1  C   UNL     1      42.551   5.425  11.719  0.00  0.00    +0.000 C 
ATOM      2  C   UNL     1      43.771   5.197  10.825  0.00  0.00    +0.000 C 
BRANCH   2  13
ATOM     13  C   UNL     1      45.018   5.432  11.688  0.00  0.00    +0.000 A 
ATOM     14  C   UNL     1      45.858   6.524  11.402  0.00  0.00    +0.000 A 
ATOM     15  C   UNL     1      46.885   6.888  12.278  0.00  0.00    +0.000 A 
ATOM     16  C   UNL     1      47.098   6.162  13.446  0.00  0.00    +0.000 A 
ATOM     17  C   UNL     1      46.310   5.048  13.722  0.00  0.00    +0.000 A 
ATOM     18  C   UNL     1      45.281   4.683  12.849  0.00  0.00    +0.000 A 
ENDBRANCH   2  13
ENDBRANCH   3   2
TORSDOF 3
ENDMDL
MODEL 3
REMARK VINA RESULT:    -6.556      3.426      6.557
REMARK INTER + INTRA:          -8.233
REMARK INTER:                  -7.776
REMARK INTRA:                  -0.458
REMARK UNBOUND:                -0.527
REMARK  Name = 
REMARK  4 active torsions:
REMARK  status: ('A' for Active; 'I' for Inactive)
REMARK    1  A    between atoms: C_1  and  C_2
REMARK    2  A    between atoms: C_2  and  N_3
REMARK    3  A    between atoms: C_2  and  C_13
REMARK    4  A    between atoms: C_7  and  C_8
REMARK                            x       y       z     vdW  Elec       q    Type
REMARK                         _______ _______ _______ _____ _____    ______ ____
ROOT
ATOM      3  N   UNL     1      45.533   5.519  10.750  0.00  0.00    +0.000 N 
ATOM      4  C   UNL     1      46.321   5.793  11.869  0.00  0.00    +0.000 A 
ATOM      5  C   UNL     1      47.224   6.850  11.756  0.00  0.00    +0.000 A 
ATOM      6  C   UNL     1      48.056   7.176  12.826  0.00  0.00    +0.000 A 
ATOM      7  C   UNL     1      47.946   6.476  14.026  0.00  0.00    +0.000 A 
ATOM     11  C   UNL     1      46.993   5.469  14.073  0.00  0.00    +0.000 A 
ATOM     12  N   UNL     1      46.198   5.105  13.020  0.00  0.00    +0.000 NA
ATOM     19  H   UNL     1      44.880   6.282  10.617  0.00  0.00    +0.000 HD
ENDROOT
BRANCH   7   8
ATOM      8  C   UNL     1      48.857   6.840  15.139  0.00  0.00    +0.000 C 
ATOM      9  N   UNL     1      48.334   7.319  16.309  0.00  0.00    +0.000 N 
ATOM     10  O   UNL     1      50.073   6.717  15.028  0.00  0.00    +0.000 OA
ATOM     20  H   UNL     1      47.365   7.502  16.495  0.00  0.00    +0.000 HD
ATOM     21  H   UNL     1      49.005   7.556  17.032  0.00  0.00    +0.000 HD
ENDBRANCH   7   8
BRANCH   3   2
ATOM      1  C   UNL     1      43.392   4.280  10.541  0.00  0.00    +0.000 C 
ATOM      2  C   UNL     1      44.918   4.202  10.605  0.00  0.00    +0.000 C 
BRANCH   2  13
ATOM     13  C   UNL     1      45.397   3.544   9.304  0.00  0.00    +0.000 A 
ATOM     14  C   UNL     1      45.904   4.351   8.269  0.00  0.00    +0.000 A 
ATOM     15  C   UNL     1      46.531   3.782   7.157  0.00  0.00    +0.000 A 
ATOM     16  C   UNL     1      46.650   2.399   7.053  0.00  0.00    +0.000 A 
ATOM     17  C   UNL     1      46.110   1.581   8.041  0.00  0.00    +0.000 A 
ATOM     18  C   UNL     1      45.485   2.148   9.156  0.00  0.00    +0.000 A 
ENDBRANCH   2  13
ENDBRANCH   3   2
TORSDOF 3
ENDMDL
MODEL 4
REMARK VINA RESULT:    -6.510      3.193      6.452
REMARK INTER + INTRA:          -8.179
REMARK INTER:                  -7.708
REMARK INTRA:                  -0.471
REMARK UNBOUND:                -0.527
REMARK  Name = 
REMARK  4 active torsions:
REMARK  status: ('A' for Active; 'I' for Inactive)
REMARK    1  A    between atoms: C_1  and  C_2
REMARK    2  A    between atoms: C_2  and  N_3
REMARK    3  A    between atoms: C_2  and  C_13
REMARK    4  A    between atoms: C_7  and  C_8
REMARK                            x       y       z     vdW  Elec       q    Type
REMARK                         _______ _______ _______ _____ _____    ______ ____
ROOT
ATOM      3  N   UNL     1      44.851   4.507  10.273  0.00  0.00    +0.000 N 
ATOM      4  C   UNL     1      45.527   5.248  11.243  0.00  0.00    +0.000 A 
ATOM      5  C   UNL     1      45.623   6.623  11.026  0.00  0.00    +0.000 A 
ATOM      6  C   UNL     1      46.296   7.430  11.942  0.00  0.00    +0.000 A 
ATOM      7  C   UNL     1      46.827   6.867  13.100  0.00  0.00    +0.000 A 
ATOM     11  C   UNL     1      46.650   5.500  13.265  0.00  0.00    +0.000 A 
ATOM     12  N   UNL     1      46.032   4.685  12.356  0.00  0.00    +0.000 NA
ATOM     19  H   UNL     1      43.867   4.749  10.304  0.00  0.00    +0.000 HD
ENDROOT
BRANCH   7   8
ATOM      8  C   UNL     1      47.549   7.752  14.047  0.00  0.00    +0.000 C 
ATOM      9  N   UNL     1      47.021   8.975  14.362  0.00  0.00    +0.000 N 
ATOM     10  O   UNL     1      48.611   7.405  14.553  0.00  0.00    +0.000 OA
ATOM     20  H   UNL     1      46.187   9.378  13.978  0.00  0.00    +0.000 HD
ATOM     21  H   UNL     1      47.562   9.539  15.010  0.00  0.00    +0.000 HD
ENDBRANCH   7   8
BRANCH   3   2
ATOM      1  C   UNL     1      43.806   2.256  10.358  0.00  0.00    +0.000 C 
ATOM      2  C   UNL     1      45.087   3.069  10.169  0.00  0.00    +0.000 C 
BRANCH   2  13
ATOM     13  C   UNL     1      45.641   2.731   8.778  0.00  0.00    +0.000 A 
ATOM     14  C   UNL     1      45.874   3.769   7.858  0.00  0.00    +0.000 A 
ATOM     15  C   UNL     1      46.559   3.530   6.664  0.00  0.00    +0.000 A 
ATOM     16  C   UNL     1      47.012   2.247   6.362  0.00  0.00    +0.000 A 
ATOM     17  C   UNL     1      46.746   1.197   7.236  0.00  0.00    +0.000 A 
ATOM     18  C   UNL     1      46.064   1.435   8.433  0.00  0.00    +0.000 A 
ENDBRANCH   2  13
ENDBRANCH   3   2
TORSDOF 3
ENDMDL
MODEL 5
REMARK VINA RESULT:    -6.493      3.600      6.314
REMARK INTER + INTRA:          -8.159
REMARK INTER:                  -7.670
REMARK INTRA:                  -0.489
REMARK UNBOUND:                -0.527
REMARK  Name = 
REMARK  4 active torsions:
REMARK  status: ('A' for Active; 'I' for Inactive)
REMARK    1  A    between atoms: C_1  and  C_2
REMARK    2  A    between atoms: C_2  and  N_3
REMARK    3  A    between atoms: C_2  and  C_13
REMARK    4  A    between atoms: C_7  and  C_8
REMARK                            x       y       z     vdW  Elec       q    Type
REMARK                         _______ _______ _______ _____ _____    ______ ____
ROOT
ATOM      3  N   UNL     1      45.309   6.139  11.071  0.00  0.00    +0.000 N 
ATOM      4  C   UNL     1      46.371   6.315  11.960  0.00  0.00    +0.000 A 
ATOM      5  C   UNL     1      47.301   7.305  11.638  0.00  0.00    +0.000 A 
ATOM      6  C   UNL     1      48.397   7.531  12.468  0.00  0.00    +0.000 A 
ATOM      7  C   UNL     1      48.534   6.802  13.647  0.00  0.00    +0.000 A 
ATOM     11  C   UNL     1      47.545   5.868  13.919  0.00  0.00    +0.000 A 
ATOM     12  N   UNL     1      46.485   5.600  13.095  0.00  0.00    +0.000 NA
ATOM     19  H   UNL     1      44.708   6.953  11.117  0.00  0.00    +0.000 HD
ENDROOT
BRANCH   7   8
ATOM      8  C   UNL     1      49.721   7.059  14.500  0.00  0.00    +0.000 C 
ATOM      9  N   UNL     1      50.739   7.838  14.021  0.00  0.00    +0.000 N 
ATOM     10  O   UNL     1      49.803   6.585  15.628  0.00  0.00    +0.000 OA
ATOM     20  H   UNL     1      50.799   8.239  13.103  0.00  0.00    +0.000 HD
ATOM     21  H   UNL     1      51.526   7.974  14.646  0.00  0.00    +0.000 HD
ENDBRANCH   7   8
BRANCH   3   2
ATOM      1  C   UNL     1      43.061   5.089  10.995  0.00  0.00    +0.000 C 
ATOM      2  C   UNL     1      44.574   4.877  11.068  0.00  0.00    +0.000 C 
BRANCH   2  13
ATOM     13  C   UNL     1      44.977   4.042   9.845  0.00  0.00    +0.000 A 
ATOM     14  C   UNL     1      45.617   4.671   8.762  0.00  0.00    +0.000 A 
ATOM     15  C   UNL     1      46.176   3.919   7.724  0.00  0.00    +0.000 A 
ATOM     16  C   UNL     1      46.094   2.529   7.745  0.00  0.00    +0.000 A 
ATOM     17  C   UNL     1      45.421   1.891   8.782  0.00  0.00    +0.000 A 
ATOM     18  C   UNL     1      44.863   2.641   9.822  0.00  0.00    +0.000 A 
ENDBRANCH   2  13
ENDBRANCH   3   2
TORSDOF 3
ENDMDL
MODEL 6
REMARK VINA RESULT:    -6.439      3.118      6.125
REMARK INTER + INTRA:          -8.096
REMARK INTER:                  -8.570
REMARK INTRA:                   0.474
REMARK UNBOUND:                -0.527
REMARK  Name = 
REMARK  4 active torsions:
REMARK  status: ('A' for Active; 'I' for Inactive)
REMARK    1  A    between atoms: C_1  and  C_2
REMARK    2  A    between atoms: C_2  and  N_3
REMARK    3  A    between atoms: C_2  and  C_13
REMARK    4  A    between atoms: C_7  and  C_8
REMARK                            x       y       z     vdW  Elec       q    Type
REMARK                         _______ _______ _______ _____ _____    ______ ____
ROOT
ATOM      3  N   UNL     1      45.055   2.896  10.739  0.00  0.00    +0.000 N 
ATOM      4  C   UNL     1      45.402   4.117  11.319  0.00  0.00    +0.000 A 
ATOM      5  C   UNL     1      45.487   4.148  12.712  0.00  0.00    +0.000 A 
ATOM      6  C   UNL     1      45.813   5.335  13.366  0.00  0.00    +0.000 A 
ATOM      7  C   UNL     1      46.105   6.476  12.623  0.00  0.00    +0.000 A 
ATOM     11  C   UNL     1      46.043   6.353  11.243  0.00  0.00    +0.000 A 
ATOM     12  N   UNL     1      45.681   5.209  10.583  0.00  0.00    +0.000 NA
ATOM     19  H   UNL     1      45.819   2.243  10.873  0.00  0.00    +0.000 HD
ENDROOT
BRANCH   7   8
ATOM      8  C   UNL     1      46.435   7.726  13.353  0.00  0.00    +0.000 C 
ATOM      9  N   UNL     1      47.480   7.735  14.235  0.00  0.00    +0.000 N 
ATOM     10  O   UNL     1      45.785   8.751  13.176  0.00  0.00    +0.000 OA
ATOM     20  H   UNL     1      48.050   6.949  14.489  0.00  0.00    +0.000 HD
ATOM     21  H   UNL     1      47.656   8.615  14.708  0.00  0.00    +0.000 HD
ENDBRANCH   7   8
BRANCH   3   2
ATOM      1  C   UNL     1      43.835   4.191   9.009  0.00  0.00    +0.000 C 
ATOM      2  C   UNL     1      44.506   2.870   9.387  0.00  0.00    +0.000 C 
BRANCH   2  13
ATOM     13  C   UNL     1      45.630   2.623   8.372  0.00  0.00    +0.000 A 
ATOM     14  C   UNL     1      46.222   1.349   8.295  0.00  0.00    +0.000 A 
ATOM     15  C   UNL     1      47.103   1.028   7.258  0.00  0.00    +0.000 A 
ATOM     16  C   UNL     1      47.417   1.977   6.288  0.00  0.00    +0.000 A 
ATOM     17  C   UNL     1      46.881   3.258   6.375  0.00  0.00    +0.000 A 
ATOM     18  C   UNL     1      45.998   3.581   7.410  0.00  0.00    +0.000 A 
ENDBRANCH   2  13
ENDBRANCH   3   2
TORSDOF 3
ENDMDL
MODEL 7
REMARK VINA RESULT:    -6.089      4.109      7.045
REMARK INTER + INTRA:          -7.684
REMARK INTER:                  -7.272
REMARK INTRA:                  -0.412
REMARK UNBOUND:                -0.527
REMARK  Name = 
REMARK  4 active torsions:
REMARK  status: ('A' for Active; 'I' for Inactive)
REMARK    1  A    between atoms: C_1  and  C_2
REMARK    2  A    between atoms: C_2  and  N_3
REMARK    3  A    between atoms: C_2  and  C_13
REMARK    4  A    between atoms: C_7  and  C_8
REMARK                            x       y       z     vdW  Elec       q    Type
REMARK                         _______ _______ _______ _____ _____    ______ ____
ROOT
ATOM      3  N   UNL     1      45.590   5.178  12.753  0.00  0.00    +0.000 N 
ATOM      4  C   UNL     1      46.469   5.142  13.836  0.00  0.00    +0.000 A 
ATOM      5  C   UNL     1      47.411   6.170  13.913  0.00  0.00    +0.000 A 
ATOM      6  C   UNL     1      48.334   6.196  14.957  0.00  0.00    +0.000 A 
ATOM      7  C   UNL     1      48.280   5.223  15.952  0.00  0.00    +0.000 A 
ATOM     11  C   UNL     1      47.287   4.262  15.829  0.00  0.00    +0.000 A 
ATOM     12  N   UNL     1      46.400   4.194  14.788  0.00  0.00    +0.000 NA
ATOM     19  H   UNL     1      44.964   5.967  12.867  0.00  0.00    +0.000 HD
ENDROOT
BRANCH   7   8
ATOM      8  C   UNL     1      49.286   5.274  17.041  0.00  0.00    +0.000 C 
ATOM      9  N   UNL     1      49.033   6.021  18.159  0.00  0.00    +0.000 N 
ATOM     10  O   UNL     1      50.342   4.655  16.956  0.00  0.00    +0.000 OA
ATOM     20  H   UNL     1      48.228   6.599  18.317  0.00  0.00    +0.000 HD
ATOM     21  H   UNL     1      49.759   6.022  18.868  0.00  0.00    +0.000 HD
ENDBRANCH   7   8
BRANCH   3   2
ATOM      1  C   UNL     1      43.451   3.919  12.811  0.00  0.00    +0.000 C 
ATOM      2  C   UNL     1      44.905   3.955  12.340  0.00  0.00    +0.000 C 
BRANCH   2  13
ATOM     13  C   UNL     1      44.891   3.858  10.809  0.00  0.00    +0.000 A 
ATOM     14  C   UNL     1      45.439   4.905  10.046  0.00  0.00    +0.000 A 
ATOM     15  C   UNL     1      45.627   4.768   8.668  0.00  0.00    +0.000 A 
ATOM     16  C   UNL     1      45.259   3.588   8.026  0.00  0.00    +0.000 A 
ATOM     17  C   UNL     1      44.668   2.560   8.754  0.00  0.00    +0.000 A 
ATOM     18  C   UNL     1      44.482   2.694  10.134  0.00  0.00    +0.000 A 
ENDBRANCH   2  13
ENDBRANCH   3   2
TORSDOF 3
ENDMDL
MODEL 8
REMARK VINA RESULT:    -5.840      5.577      8.417
REMARK INTER + INTRA:          -7.392
REMARK INTER:                  -7.048
REMARK INTRA:                  -0.344
REMARK UNBOUND:                -0.527
REMARK  Name = 
REMARK  4 active torsions:
REMARK  status: ('A' for Active; 'I' for Inactive)
REMARK    1  A    between atoms: C_1  and  C_2
REMARK    2  A    between atoms: C_2  and  N_3
REMARK    3  A    between atoms: C_2  and  C_13
REMARK    4  A    between atoms: C_7  and  C_8
REMARK                            x       y       z     vdW  Elec       q    Type
REMARK                         _______ _______ _______ _____ _____    ______ ____
ROOT
ATOM      3  N   UNL     1      46.912   4.001  14.632  0.00  0.00    +0.000 N 
ATOM      4  C   UNL     1      47.503   4.226  15.877  0.00  0.00    +0.000 A 
ATOM      5  C   UNL     1      47.608   3.125  16.728  0.00  0.00    +0.000 A 
ATOM      6  C   UNL     1      48.172   3.271  17.994  0.00  0.00    +0.000 A 
ATOM      7  C   UNL     1      48.679   4.508  18.386  0.00  0.00    +0.000 A 
ATOM     11  C   UNL     1      48.579   5.541  17.466  0.00  0.00    +0.000 A 
ATOM     12  N   UNL     1      47.988   5.429  16.236  0.00  0.00    +0.000 NA
ATOM     19  H   UNL     1      47.531   3.421  14.077  0.00  0.00    +0.000 HD
ENDROOT
BRANCH   7   8
ATOM      8  C   UNL     1      49.261   4.631  19.745  0.00  0.00    +0.000 C 
ATOM      9  N   UNL     1      48.611   4.068  20.810  0.00  0.00    +0.000 N 
ATOM     10  O   UNL     1      50.316   5.230  19.930  0.00  0.00    +0.000 OA
ATOM     20  H   UNL     1      47.726   3.597  20.783  0.00  0.00    +0.000 HD
ATOM     21  H   UNL     1      49.053   4.190  21.715  0.00  0.00    +0.000 HD
ENDBRANCH   7   8
BRANCH   3   2
ATOM      1  C   UNL     1      47.345   5.694  12.868  0.00  0.00    +0.000 C 
ATOM      2  C   UNL     1      46.354   5.126  13.886  0.00  0.00    +0.000 C 
BRANCH   2  13
ATOM     13  C   UNL     1      45.113   4.670  13.107  0.00  0.00    +0.000 A 
ATOM     14  C   UNL     1      44.031   5.555  12.954  0.00  0.00    +0.000 A 
ATOM     15  C   UNL     1      42.974   5.256  12.090  0.00  0.00    +0.000 A 
ATOM     16  C   UNL     1      42.973   4.061  11.375  0.00  0.00    +0.000 A 
ATOM     17  C   UNL     1      44.009   3.148  11.551  0.00  0.00    +0.000 A 
ATOM     18  C   UNL     1      45.069   3.448  12.413  0.00  0.00    +0.000 A 
ENDBRANCH   2  13
ENDBRANCH   3   2
TORSDOF 3
ENDMDL
MODEL 9
REMARK VINA RESULT:    -5.795      4.372      6.339
REMARK INTER + INTRA:          -7.339
REMARK INTER:                  -7.027
REMARK INTRA:                  -0.311
REMARK UNBOUND:                -0.527
REMARK  Name = 
REMARK  4 active torsions:
REMARK  status: ('A' for Active; 'I' for Inactive)
REMARK    1  A    between atoms: C_1  and  C_2
REMARK    2  A    between atoms: C_2  and  N_3
REMARK    3  A    between atoms: C_2  and  C_13
REMARK    4  A    between atoms: C_7  and  C_8
REMARK                            x       y       z     vdW  Elec       q    Type
REMARK                         _______ _______ _______ _____ _____    ______ ____
ROOT
ATOM      3  N   UNL     1      47.506   4.827  15.484  0.00  0.00    +0.000 N 
ATOM      4  C   UNL     1      46.785   4.752  14.292  0.00  0.00    +0.000 A 
ATOM      5  C   UNL     1      46.640   5.939  13.572  0.00  0.00    +0.000 A 
ATOM      6  C   UNL     1      45.920   5.949  12.378  0.00  0.00    +0.000 A 
ATOM      7  C   UNL     1      45.390   4.761  11.880  0.00  0.00    +0.000 A 
ATOM     11  C   UNL     1      45.616   3.617  12.631  0.00  0.00    +0.000 A 
ATOM     12  N   UNL     1      46.281   3.594  13.827  0.00  0.00    +0.000 NA
ATOM     19  H   UNL     1      48.479   5.008  15.265  0.00  0.00    +0.000 HD
ENDROOT
BRANCH   7   8
ATOM      8  C   UNL     1      44.617   4.811  10.614  0.00  0.00    +0.000 C 
ATOM      9  N   UNL     1      45.272   5.035   9.434  0.00  0.00    +0.000 N 
ATOM     10  O   UNL     1      43.401   4.653  10.610  0.00  0.00    +0.000 OA
ATOM     20  H   UNL     1      46.252   5.220   9.324  0.00  0.00    +0.000 HD
ATOM     21  H   UNL     1      44.691   5.064   8.602  0.00  0.00    +0.000 HD
ENDBRANCH   7   8
BRANCH   3   2
ATOM      1  C   UNL     1      48.312   2.637  16.331  0.00  0.00    +0.000 C 
ATOM      2  C   UNL     1      47.327   3.794  16.501  0.00  0.00    +0.000 C 
BRANCH   2  13
ATOM     13  C   UNL     1      47.561   4.391  17.896  0.00  0.00    +0.000 A 
ATOM     14  C   UNL     1      48.573   3.856  18.713  0.00  0.00    +0.000 A 
ATOM     15  C   UNL     1      48.950   4.493  19.899  0.00  0.00    +0.000 A 
ATOM     16  C   UNL     1      48.314   5.667  20.294  0.00  0.00    +0.000 A 
ATOM     17  C   UNL     1      47.276   6.185  19.525  0.00  0.00    +0.000 A 
ATOM     18  C   UNL     1      46.899   5.550  18.337  0.00  0.00    +0.000 A 
ENDBRANCH   2  13
ENDBRANCH   3   2
TORSDOF 3
ENDMDL
