MODEL 1
REMARK VINA RESULT:    -8.053      0.000      0.000
REMARK INTER + INTRA:          -9.777
REMARK INTER:                  -9.465
REMARK INTRA:                  -0.312
REMARK UNBOUND:                -0.312
REMARK  Name = 
REMARK  3 active torsions:
REMARK  status: ('A' for Active; 'I' for Inactive)
REMARK    1  A    between atoms: C_2  and  C_4
REMARK    2  A    between atoms: N_8  and  C_9
REMARK    3  A    between atoms: C_9  and  C_10
REMARK                            x       y       z     vdW  Elec       q    Type
REMARK                         _______ _______ _______ _____ _____    ______ ____
ROOT
ATOM      4  C   UNL     1      46.560   4.502  13.456  0.00  0.00    +0.000 A 
ATOM      5  C   UNL     1      46.829   5.687  12.779  0.00  0.00    +0.000 A 
ATOM      6  C   UNL     1      46.211   5.919  11.551  0.00  0.00    +0.000 A 
ATOM      7  C   UNL     1      45.369   4.952  11.004  0.00  0.00    +0.000 A 
ATOM      8  N   UNL     1      44.829   5.209   9.742  0.00  0.00    +0.000 N 
ATOM     16  N   UNL     1      45.104   3.798  11.646  0.00  0.00    +0.000 NA
ATOM     17  C   UNL     1      45.701   3.595  12.851  0.00  0.00    +0.000 A 
ATOM     20  H   UNL     1      44.174   5.983   9.794  0.00  0.00    +0.000 HD
ENDROOT
BRANCH   4   2
ATOM      1  N   UNL     1      47.176   5.113  15.729  0.00  0.00    +0.000 N 
ATOM      2  C   UNL     1      47.168   4.152  14.756  0.00  0.00    +0.000 C 
ATOM      3  O   UNL     1      47.623   3.037  14.971  0.00  0.00    +0.000 OA
ATOM     18  H   UNL     1      47.517   4.830  16.637  0.00  0.00    +0.000 HD
ATOM     19  H   UNL     1      46.626   5.956  15.681  0.00  0.00    +0.000 HD
ENDBRANCH   4   2
BRANCH   8   9
ATOM      9  C   UNL     1      44.263   4.057   9.052  0.00  0.00    +0.000 C 
BRANCH   9  10
ATOM     10  C   UNL     1      45.361   3.254   8.377  0.00  0.00    +0.000 A 
ATOM     11  C   UNL     1      45.539   1.883   8.631  0.00  0.00    +0.000 A 
ATOM     12  C   UNL     1      46.510   1.146   7.949  0.00  0.00    +0.000 A 
ATOM     13  C   UNL     1      47.304   1.765   6.988  0.00  0.00    +0.000 A 
ATOM     14  C   UNL     1      47.128   3.119   6.709  0.00  0.00    +0.000 A 
ATOM     15  C   UNL     1      46.164   3.859   7.399  0.00  0.00    +0.000 A 
ENDBRANCH   9  10
ENDBRANCH   8   9
TORSDOF 3
ENDMDL
MODEL 2
REMARK VINA RESULT:    -7.782      2.790      6.085
REMARK INTER + INTRA:          -9.459
REMARK INTER:                  -9.111
REMARK INTRA:                  -0.348
REMARK UNBOUND:                -0.312
REMARK  Name = 
REMARK  3 active torsions:
REMARK  status: ('A' for Active; 'I' for Inactive)
REMARK    1  A    between atoms: C_2  and  C_4
REMARK    2  A    between atoms: N_8  and  C_9
REMARK    3  A    between atoms: C_9  and  C_10
REMARK                            x       y       z     vdW  Elec       q    Type
REMARK                         _______ _______ _______ _____ _____    ______ ____
ROOT
ATOM      4  C   UNL     1      46.517   2.623   7.421  0.00  0.00    +0.000 A 
ATOM      5  C   UNL     1      45.937   1.666   8.247  0.00  0.00    +0.000 A 
ATOM      6  C   UNL     1      45.027   2.075   9.221  0.00  0.00    +0.000 A 
ATOM      7  C   UNL     1      44.743   3.432   9.379  0.00  0.00    +0.000 A 
ATOM      8  N   UNL     1      43.876   3.791  10.412  0.00  0.00    +0.000 N 
ATOM     16  N   UNL     1      45.302   4.369   8.590  0.00  0.00    +0.000 NA
ATOM     17  C   UNL     1      46.173   3.951   7.633  0.00  0.00    +0.000 A 
ATOM     20  H   UNL     1      42.939   3.451  10.216  0.00  0.00    +0.000 HD
ENDROOT
BRANCH   4   2
ATOM      1  N   UNL     1      47.494   3.077   5.240  0.00  0.00    +0.000 N 
ATOM      2  C   UNL     1      47.499   2.300   6.366  0.00  0.00    +0.000 C 
ATOM      3  O   UNL     1      48.307   1.391   6.499  0.00  0.00    +0.000 OA
ATOM     18  H   UNL     1      48.226   2.897   4.568  0.00  0.00    +0.000 HD
ATOM     19  H   UNL     1      47.010   3.959   5.176  0.00  0.00    +0.000 HD
ENDBRANCH   4   2
BRANCH   8   9
ATOM      9  C   UNL     1      43.882   5.201  10.780  0.00  0.00    +0.000 C 
BRANCH   9  10
ATOM     10  C   UNL     1      45.021   5.491  11.741  0.00  0.00    +0.000 A 
ATOM     11  C   UNL     1      45.213   4.738  12.913  0.00  0.00    +0.000 A 
ATOM     12  C   UNL     1      46.306   4.975  13.748  0.00  0.00    +0.000 A 
ATOM     13  C   UNL     1      47.236   5.956  13.415  0.00  0.00    +0.000 A 
ATOM     14  C   UNL     1      47.072   6.699  12.247  0.00  0.00    +0.000 A 
ATOM     15  C   UNL     1      45.972   6.469  11.416  0.00  0.00    +0.000 A 
ENDBRANCH   9  10
ENDBRANCH   8   9
TORSDOF 3
ENDMDL
MODEL 3
REMARK VINA RESULT:    -7.574      2.151      2.875
REMARK INTER + INTRA:          -9.214
REMARK INTER:                  -8.945
REMARK INTRA:                  -0.269
REMARK UNBOUND:                -0.312
REMARK  Name = 
REMARK  3 active torsions:
REMARK  status: ('A' for Active; 'I' for Inactive)
REMARK    1  A    between atoms: C_2  and  C_4
REMARK    2  A    between atoms: N_8  and  C_9
REMARK    3  A    between atoms: C_9  and  C_10
REMARK                            x       y       z     vdW  Elec       q    Type
REMARK                         _______ _______ _______ _____ _____    ______ ____
ROOT
ATOM      4  C   UNL     1      45.623   6.621  12.409  0.00  0.00    +0.000 A 
ATOM      5  C   UNL     1      45.725   5.489  13.210  0.00  0.00    +0.000 A 
ATOM      6  C   UNL     1      45.557   4.232  12.630  0.00  0.00    +0.000 A 
ATOM      7  C   UNL     1      45.254   4.129  11.272  0.00  0.00    +0.000 A 
ATOM      8  N   UNL     1      45.032   2.850  10.758  0.00  0.00    +0.000 N 
ATOM     16  N   UNL     1      45.147   5.217  10.486  0.00  0.00    +0.000 NA
ATOM     17  C   UNL     1      45.332   6.434  11.064  0.00  0.00    +0.000 A 
ATOM     20  H   UNL     1      45.894   2.313  10.772  0.00  0.00    +0.000 HD
ENDROOT
BRANCH   4   2
ATOM      1  N   UNL     1      44.788   8.896  12.615  0.00  0.00    +0.000 N 
ATOM      2  C   UNL     1      45.773   7.997  12.922  0.00  0.00    +0.000 C 
ATOM      3  O   UNL     1      46.724   8.322  13.619  0.00  0.00    +0.000 OA
ATOM     18  H   UNL     1      44.862   9.807  13.044  0.00  0.00    +0.000 HD
ATOM     19  H   UNL     1      43.891   8.630  12.240  0.00  0.00    +0.000 HD
ENDBRANCH   4   2
BRANCH   8   9
ATOM      9  C   UNL     1      44.375   2.798   9.459  0.00  0.00    +0.000 C 
BRANCH   9  10
ATOM     10  C   UNL     1      45.392   2.536   8.363  0.00  0.00    +0.000 A 
ATOM     11  C   UNL     1      45.758   3.530   7.438  0.00  0.00    +0.000 A 
ATOM     12  C   UNL     1      46.746   3.292   6.481  0.00  0.00    +0.000 A 
ATOM     13  C   UNL     1      47.399   2.063   6.446  0.00  0.00    +0.000 A 
ATOM     14  C   UNL     1      47.063   1.073   7.368  0.00  0.00    +0.000 A 
ATOM     15  C   UNL     1      46.067   1.307   8.319  0.00  0.00    +0.000 A 
ENDBRANCH   9  10
ENDBRANCH   8   9
TORSDOF 3
ENDMDL
MODEL 4
REMARK VINA RESULT:    -7.109      1.529      1.732
REMARK INTER + INTRA:          -8.668
REMARK INTER:                  -8.387
REMARK INTRA:                  -0.281
REMARK UNBOUND:                -0.312
REMARK  Name = 
REMARK  3 active torsions:
REMARK  status: ('A' for Active; 'I' for Inactive)
REMARK    1  A    between atoms: C_2  and  C_4
REMARK    2  A    between atoms: N_8  and  C_9
REMARK    3  A    between atoms: C_9  and  C_10
REMARK                            x       y       z     vdW  Elec       q    Type
REMARK                         _______ _______ _______ _____ _____    ______ ____
ROOT
ATOM      4  C   UNL     1      46.859   6.525  12.858  0.00  0.00    +0.000 A 
ATOM      5  C   UNL     1      46.331   7.361  11.880  0.00  0.00    +0.000 A 
ATOM      6  C   UNL     1      45.415   6.839  10.967  0.00  0.00    +0.000 A 
ATOM      7  C   UNL     1      45.073   5.488  11.022  0.00  0.00    +0.000 A 
ATOM      8  N   UNL     1      44.202   5.005  10.044  0.00  0.00    +0.000 N 
ATOM     16  N   UNL     1      45.581   4.667  11.961  0.00  0.00    +0.000 NA
ATOM     17  C   UNL     1      46.458   5.196  12.855  0.00  0.00    +0.000 A 
ATOM     20  H   UNL     1      43.279   5.411  10.167  0.00  0.00    +0.000 HD
ENDROOT
BRANCH   4   2
ATOM      1  N   UNL     1      47.493   8.025  14.665  0.00  0.00    +0.000 N 
ATOM      2  C   UNL     1      47.842   6.971  13.866  0.00  0.00    +0.000 C 
ATOM      3  O   UNL     1      48.918   6.406  14.006  0.00  0.00    +0.000 OA
ATOM     18  H   UNL     1      48.140   8.262  15.404  0.00  0.00    +0.000 HD
ATOM     19  H   UNL     1      46.551   8.376  14.741  0.00  0.00    +0.000 HD
ENDBRANCH   4   2
BRANCH   8   9
ATOM      9  C   UNL     1      44.149   3.556   9.906  0.00  0.00    +0.000 C 
BRANCH   9  10
ATOM     10  C   UNL     1      45.186   3.082   8.903  0.00  0.00    +0.000 A 
ATOM     11  C   UNL     1      45.583   1.736   8.826  0.00  0.00    +0.000 A 
ATOM     12  C   UNL     1      46.487   1.308   7.851  0.00  0.00    +0.000 A 
ATOM     13  C   UNL     1      46.992   2.216   6.926  0.00  0.00    +0.000 A 
ATOM     14  C   UNL     1      46.595   3.551   6.975  0.00  0.00    +0.000 A 
ATOM     15  C   UNL     1      45.699   3.982   7.957  0.00  0.00    +0.000 A 
ENDBRANCH   9  10
ENDBRANCH   8   9
TORSDOF 3
ENDMDL
MODEL 5
REMARK VINA RESULT:    -6.399      2.842      7.034
REMARK INTER + INTRA:          -7.833
REMARK INTER:                  -7.545
REMARK INTRA:                  -0.288
REMARK UNBOUND:                -0.312
REMARK  Name = 
REMARK  3 active torsions:
REMARK  status: ('A' for Active; 'I' for Inactive)
REMARK    1  A    between atoms: C_2  and  C_4
REMARK    2  A    between atoms: N_8  and  C_9
REMARK    3  A    between atoms: C_9  and  C_10
REMARK                            x       y       z     vdW  Elec       q    Type
REMARK                         _______ _______ _______ _____ _____    ______ ____
ROOT
ATOM      4  C   UNL     1      45.117   4.278  11.452  0.00  0.00    +0.000 A 
ATOM      5  C   UNL     1      45.709   5.528  11.598  0.00  0.00    +0.000 A 
ATOM      6  C   UNL     1      46.442   5.799  12.753  0.00  0.00    +0.000 A 
ATOM      7  C   UNL     1      46.539   4.834  13.756  0.00  0.00    +0.000 A 
ATOM      8  N   UNL     1      47.230   5.181  14.918  0.00  0.00    +0.000 N 
ATOM     16  N   UNL     1      45.967   3.622  13.629  0.00  0.00    +0.000 NA
ATOM     17  C   UNL     1      45.271   3.368  12.489  0.00  0.00    +0.000 A 
ATOM     20  H   UNL     1      48.218   5.303  14.715  0.00  0.00    +0.000 HD
ENDROOT
BRANCH   4   2
ATOM      1  N   UNL     1      44.225   4.790   9.248  0.00  0.00    +0.000 N 
ATOM      2  C   UNL     1      44.312   3.891  10.276  0.00  0.00    +0.000 C 
ATOM      3  O   UNL     1      43.765   2.800  10.205  0.00  0.00    +0.000 OA
ATOM     18  H   UNL     1      43.743   4.476   8.418  0.00  0.00    +0.000 HD
ATOM     19  H   UNL     1      44.826   5.594   9.161  0.00  0.00    +0.000 HD
ENDBRANCH   4   2
BRANCH   8   9
ATOM      9  C   UNL     1      47.010   4.312  16.067  0.00  0.00    +0.000 C 
BRANCH   9  10
ATOM     10  C   UNL     1      48.337   3.847  16.639  0.00  0.00    +0.000 A 
ATOM     11  C   UNL     1      48.734   2.499  16.591  0.00  0.00    +0.000 A 
ATOM     12  C   UNL     1      49.987   2.102  17.060  0.00  0.00    +0.000 A 
ATOM     13  C   UNL     1      50.873   3.049  17.565  0.00  0.00    +0.000 A 
ATOM     14  C   UNL     1      50.504   4.393  17.602  0.00  0.00    +0.000 A 
ATOM     15  C   UNL     1      49.245   4.789  17.142  0.00  0.00    +0.000 A 
ENDBRANCH   9  10
ENDBRANCH   8   9
TORSDOF 3
ENDMDL
MODEL 6
REMARK VINA RESULT:    -5.786      3.380      5.945
REMARK INTER + INTRA:          -7.112
REMARK INTER:                  -6.806
REMARK INTRA:                  -0.306
REMARK UNBOUND:                -0.312
REMARK  Name = 
REMARK  3 active torsions:
REMARK  status: ('A' for Active; 'I' for Inactive)
REMARK    1  A    between atoms: C_2  and  C_4
REMARK    2  A    between atoms: N_8  and  C_9
REMARK    3  A    between atoms: C_9  and  C_10
REMARK                            x       y       z     vdW  Elec       q    Type
REMARK                         _______ _______ _______ _____ _____    ______ ____
ROOT
ATOM      4  C   UNL     1      44.613   3.998  11.734  0.00  0.00    +0.000 A 
ATOM      5  C   UNL     1      45.347   3.898  12.911  0.00  0.00    +0.000 A 
ATOM      6  C   UNL     1      45.915   5.050  13.454  0.00  0.00    +0.000 A 
ATOM      7  C   UNL     1      45.774   6.271  12.794  0.00  0.00    +0.000 A 
ATOM      8  N   UNL     1      46.418   7.379  13.347  0.00  0.00    +0.000 N 
ATOM     16  N   UNL     1      45.071   6.380  11.651  0.00  0.00    +0.000 NA
ATOM     17  C   UNL     1      44.508   5.251  11.145  0.00  0.00    +0.000 A 
ATOM     20  H   UNL     1      45.990   7.624  14.235  0.00  0.00    +0.000 HD
ENDROOT
BRANCH   4   2
ATOM      1  N   UNL     1      44.604   2.326   9.967  0.00  0.00    +0.000 N 
ATOM      2  C   UNL     1      43.979   2.842  11.069  0.00  0.00    +0.000 C 
ATOM      3  O   UNL     1      42.949   2.341  11.499  0.00  0.00    +0.000 OA
ATOM     18  H   UNL     1      44.204   1.485   9.576  0.00  0.00    +0.000 HD
ATOM     19  H   UNL     1      45.551   2.555   9.708  0.00  0.00    +0.000 HD
ENDBRANCH   4   2
BRANCH   8   9
ATOM      9  C   UNL     1      46.557   8.532  12.468  0.00  0.00    +0.000 C 
BRANCH   9  10
ATOM     10  C   UNL     1      48.011   8.726  12.077  0.00  0.00    +0.000 A 
ATOM     11  C   UNL     1      48.895   7.641  11.945  0.00  0.00    +0.000 A 
ATOM     12  C   UNL     1      50.210   7.833  11.517  0.00  0.00    +0.000 A 
ATOM     13  C   UNL     1      50.656   9.112  11.195  0.00  0.00    +0.000 A 
ATOM     14  C   UNL     1      49.789  10.197  11.302  0.00  0.00    +0.000 A 
ATOM     15  C   UNL     1      48.475  10.006  11.740  0.00  0.00    +0.000 A 
ENDBRANCH   9  10
ENDBRANCH   8   9
TORSDOF 3
ENDMDL
MODEL 7
REMARK VINA RESULT:    -5.755      3.740      5.647
REMARK INTER + INTRA:          -7.076
REMARK INTER:                  -6.844
REMARK INTRA:                  -0.232
REMARK UNBOUND:                -0.312
REMARK  Name = 
REMARK  3 active torsions:
REMARK  status: ('A' for Active; 'I' for Inactive)
REMARK    1  A    between atoms: C_2  and  C_4
REMARK    2  A    between atoms: N_8  and  C_9
REMARK    3  A    between atoms: C_9  and  C_10
REMARK                            x       y       z     vdW  Elec       q    Type
REMARK                         _______ _______ _______ _____ _____    ______ ____
ROOT
ATOM      4  C   UNL     1      48.898   4.601  18.199  0.00  0.00    +0.000 A 
ATOM      5  C   UNL     1      48.077   3.480  18.150  0.00  0.00    +0.000 A 
ATOM      6  C   UNL     1      47.385   3.199  16.972  0.00  0.00    +0.000 A 
ATOM      7  C   UNL     1      47.496   4.060  15.880  0.00  0.00    +0.000 A 
ATOM      8  N   UNL     1      46.732   3.766  14.749  0.00  0.00    +0.000 N 
ATOM     16  N   UNL     1      48.283   5.151  15.916  0.00  0.00    +0.000 NA
ATOM     17  C   UNL     1      48.965   5.401  17.066  0.00  0.00    +0.000 A 
ATOM     20  H   UNL     1      47.065   2.910  14.315  0.00  0.00    +0.000 HD
ENDROOT
BRANCH   4   2
ATOM      1  N   UNL     1      49.361   4.372  20.576  0.00  0.00    +0.000 N 
ATOM      2  C   UNL     1      49.665   4.996  19.397  0.00  0.00    +0.000 C 
ATOM      3  O   UNL     1      50.559   5.829  19.341  0.00  0.00    +0.000 OA
ATOM     18  H   UNL     1      49.951   4.592  21.366  0.00  0.00    +0.000 HD
ATOM     19  H   UNL     1      48.798   3.537  20.633  0.00  0.00    +0.000 HD
ENDBRANCH   4   2
BRANCH   8   9
ATOM      9  C   UNL     1      46.587   4.849  13.786  0.00  0.00    +0.000 C 
BRANCH   9  10
ATOM     10  C   UNL     1      45.338   4.646  12.947  0.00  0.00    +0.000 A 
ATOM     11  C   UNL     1      45.110   3.459  12.230  0.00  0.00    +0.000 A 
ATOM     12  C   UNL     1      43.923   3.264  11.521  0.00  0.00    +0.000 A 
ATOM     13  C   UNL     1      42.937   4.246  11.534  0.00  0.00    +0.000 A 
ATOM     14  C   UNL     1      43.137   5.422  12.255  0.00  0.00    +0.000 A 
ATOM     15  C   UNL     1      44.329   5.621  12.957  0.00  0.00    +0.000 A 
ENDBRANCH   9  10
ENDBRANCH   8   9
TORSDOF 3
ENDMDL
MODEL 8
REMARK VINA RESULT:    -5.657      2.132      2.867
REMARK INTER + INTRA:          -6.961
REMARK INTER:                  -6.839
REMARK INTRA:                  -0.122
REMARK UNBOUND:                -0.312
REMARK  Name = 
REMARK  3 active torsions:
REMARK  status: ('A' for Active; 'I' for Inactive)
REMARK    1  A    between atoms: C_2  and  C_4
REMARK    2  A    between atoms: N_8  and  C_9
REMARK    3  A    between atoms: C_9  and  C_10
REMARK                            x       y       z     vdW  Elec       q    Type
REMARK                         _______ _______ _______ _____ _____    ______ ____
ROOT
ATOM      4  C   UNL     1      47.575   6.738  14.041  0.00  0.00    +0.000 A 
ATOM      5  C   UNL     1      47.546   5.539  14.746  0.00  0.00    +0.000 A 
ATOM      6  C   UNL     1      46.835   4.461  14.219  0.00  0.00    +0.000 A 
ATOM      7  C   UNL     1      46.138   4.610  13.020  0.00  0.00    +0.000 A 
ATOM      8  N   UNL     1      45.391   3.519  12.572  0.00  0.00    +0.000 N 
ATOM     16  N   UNL     1      46.154   5.766  12.330  0.00  0.00    +0.000 NA
ATOM     17  C   UNL     1      46.867   6.802  12.849  0.00  0.00    +0.000 A 
ATOM     20  H   UNL     1      46.009   2.758  12.306  0.00  0.00    +0.000 HD
ENDROOT
BRANCH   4   2
ATOM      1  N   UNL     1      47.536   8.945  15.063  0.00  0.00    +0.000 N 
ATOM      2  C   UNL     1      48.287   7.942  14.514  0.00  0.00    +0.000 C 
ATOM      3  O   UNL     1      49.505   8.036  14.446  0.00  0.00    +0.000 OA
ATOM     18  H   UNL     1      48.045   9.723  15.457  0.00  0.00    +0.000 HD
ATOM     19  H   UNL     1      46.574   8.829  15.341  0.00  0.00    +0.000 HD
ENDBRANCH   4   2
BRANCH   8   9
ATOM      9  C   UNL     1      44.406   3.811  11.539  0.00  0.00    +0.000 C 
BRANCH   9  10
ATOM     10  C   UNL     1      44.975   3.509  10.165  0.00  0.00    +0.000 A 
ATOM     11  C   UNL     1      45.058   2.196   9.668  0.00  0.00    +0.000 A 
ATOM     12  C   UNL     1      45.520   1.945   8.375  0.00  0.00    +0.000 A 
ATOM     13  C   UNL     1      45.889   3.004   7.550  0.00  0.00    +0.000 A 
ATOM     14  C   UNL     1      45.795   4.313   8.019  0.00  0.00    +0.000 A 
ATOM     15  C   UNL     1      45.342   4.564   9.317  0.00  0.00    +0.000 A 
ENDBRANCH   9  10
ENDBRANCH   8   9
TORSDOF 3
ENDMDL
MODEL 9
REMARK VINA RESULT:    -5.614      4.323      6.506
REMARK INTER + INTRA:          -6.910
REMARK INTER:                  -6.577
REMARK INTRA:                  -0.333
REMARK UNBOUND:                -0.312
REMARK  Name = 
REMARK  3 active torsions:
REMARK  status: ('A' for Active; 'I' for Inactive)
REMARK    1  A    between atoms: C_2  and  C_4
REMARK    2  A    between atoms: N_8  and  C_9
REMARK    3  A    between atoms: C_9  and  C_10
REMARK                            x       y       z     vdW  Elec       q    Type
REMARK                         _______ _______ _______ _____ _____    ______ ____
ROOT
ATOM      4  C   UNL     1      50.818   2.457  17.377  0.00  0.00    +0.000 A 
ATOM      5  C   UNL     1      50.775   3.792  17.763  0.00  0.00    +0.000 A 
ATOM      6  C   UNL     1      49.677   4.569  17.393  0.00  0.00    +0.000 A 
ATOM      7  C   UNL     1      48.664   4.011  16.614  0.00  0.00    +0.000 A 
ATOM      8  N   UNL     1      47.621   4.851  16.218  0.00  0.00    +0.000 N 
ATOM     16  N   UNL     1      48.696   2.722  16.228  0.00  0.00    +0.000 NA
ATOM     17  C   UNL     1      49.764   1.973  16.613  0.00  0.00    +0.000 A 
ATOM     20  H   UNL     1      47.071   5.129  17.025  0.00  0.00    +0.000 HD
ENDROOT
BRANCH   4   2
ATOM      1  N   UNL     1      51.622   0.282  18.110  0.00  0.00    +0.000 N 
ATOM      2  C   UNL     1      51.936   1.550  17.705  0.00  0.00    +0.000 C 
ATOM      3  O   UNL     1      53.102   1.904  17.594  0.00  0.00    +0.000 OA
ATOM     18  H   UNL     1      52.398  -0.350  18.248  0.00  0.00    +0.000 HD
ATOM     19  H   UNL     1      50.705  -0.123  18.007  0.00  0.00    +0.000 HD
ENDBRANCH   4   2
BRANCH   8   9
ATOM      9  C   UNL     1      46.789   4.354  15.131  0.00  0.00    +0.000 C 
BRANCH   9  10
ATOM     10  C   UNL     1      46.883   5.277  13.929  0.00  0.00    +0.000 A 
ATOM     11  C   UNL     1      47.922   6.214  13.792  0.00  0.00    +0.000 A 
ATOM     12  C   UNL     1      48.031   7.005  12.647  0.00  0.00    +0.000 A 
ATOM     13  C   UNL     1      47.114   6.857  11.610  0.00  0.00    +0.000 A 
ATOM     14  C   UNL     1      46.089   5.919  11.719  0.00  0.00    +0.000 A 
ATOM     15  C   UNL     1      45.974   5.135  12.870  0.00  0.00    +0.000 A 
ENDBRANCH   9  10
ENDBRANCH   8   9
TORSDOF 3
ENDMDL
