MODEL 1
REMARK VINA RESULT:    -8.606      0.000      0.000
REMARK INTER + INTRA:         -17.115
REMARK INTER:                 -15.146
REMARK INTRA:                  -1.969
REMARK UNBOUND:                -1.969
REMARK  Name = 
REMARK  14 active torsions:
REMARK  status: ('A' for Active; 'I' for Inactive)
REMARK    1  A    between atoms: C_2  and  C_3
REMARK    2  A    between atoms: C_3  and  C_4
REMARK    3  A    between atoms: C_4  and  C_5
REMARK    4  A    between atoms: C_5  and  C_6
REMARK    5  A    between atoms: C_6  and  C_7
REMARK    6  A    between atoms: C_7  and  N_8
REMARK    7  A    between atoms: C_9  and  C_11
REMARK    8  A    between atoms: C_15  and  O_16
REMARK    9  A    between atoms: N_18  and  O_19
REMARK   10  A    between atoms: N_20  and  C_21
REMARK   11  A    between atoms: C_21  and  C_22
REMARK   12  A    between atoms: C_25  and  C_26
REMARK   13  A    between atoms: C_26  and  N_27
REMARK   14  A    between atoms: C_28  and  C_30
REMARK                            x       y       z     vdW  Elec       q    Type
REMARK                         _______ _______ _______ _____ _____    ______ ____
ROOT
ATOM      1  O   UNL     1      46.018   5.890  10.811  0.00  0.00    +0.000 OA
ATOM      2  C   UNL     1      45.781   6.794  11.605  0.00  0.00    +0.000 C 
ATOM     20  N   UNL     1      46.742   7.641  12.107  0.00  0.00    +0.000 N 
ATOM     45  H   UNL     1      46.490   8.304  12.827  0.00  0.00    +0.000 HD
ENDROOT
BRANCH   2   3
ATOM      3  C   UNL     1      44.371   7.095  12.091  0.00  0.00    +0.000 C 
BRANCH   3   4
ATOM      4  C   UNL     1      43.383   6.011  11.659  0.00  0.00    +0.000 C 
BRANCH   4   5
ATOM      5  C   UNL     1      43.052   5.062  12.816  0.00  0.00    +0.000 C 
BRANCH   5   6
ATOM      6  C   UNL     1      43.917   3.798  12.789  0.00  0.00    +0.000 C 
BRANCH   6   7
ATOM      7  C   UNL     1      43.404   2.797  11.752  0.00  0.00    +0.000 C 
BRANCH   7   8
ATOM      8  N   UNL     1      44.379   2.543  10.713  0.00  0.00    +0.000 N 
ATOM      9  C   UNL     1      44.439   3.260   9.548  0.00  0.00    +0.000 C 
ATOM     10  O   UNL     1      43.674   4.187   9.296  0.00  0.00    +0.000 OA
ATOM     42  H   UNL     1      45.027   1.766  10.808  0.00  0.00    +0.000 HD
BRANCH   9  11
ATOM     11  C   UNL     1      45.515   2.827   8.576  0.00  0.00    +0.000 A 
ATOM     12  C   UNL     1      45.652   1.490   8.462  0.00  0.00    +0.000 A 
ATOM     13  C   UNL     1      46.697   0.963   7.549  0.00  0.00    +0.000 A 
ATOM     14  O   UNL     1      46.893  -0.243   7.421  0.00  0.00    +0.000 OA
ATOM     15  C   UNL     1      47.518   1.941   6.780  0.00  0.00    +0.000 A 
ATOM     17  C   UNL     1      47.274   3.240   6.981  0.00  0.00    +0.000 A 
ATOM     18  N   UNL     1      46.307   3.724   7.842  0.00  0.00    +0.000 N 
BRANCH  15  16
ATOM     16  O   UNL     1      48.493   1.478   5.926  0.00  0.00    +0.000 OA
ATOM     43  H   UNL     1      49.125   0.996   6.502  0.00  0.00    +0.000 HD
ENDBRANCH  15  16
BRANCH  18  19
ATOM     19  O   UNL     1      46.263   5.098   8.069  0.00  0.00    +0.000 OA
ATOM     44  H   UNL     1      46.517   5.480   7.206  0.00  0.00    +0.000 HD
ENDBRANCH  18  19
ENDBRANCH   9  11
ENDBRANCH   7   8
ENDBRANCH   6   7
ENDBRANCH   5   6
ENDBRANCH   4   5
ENDBRANCH   3   4
ENDBRANCH   2   3
BRANCH  20  21
ATOM     21  C   UNL     1      48.149   7.529  11.770  0.00  0.00    +0.000 C 
BRANCH  21  22
ATOM     22  C   UNL     1      48.986   7.396  13.019  0.00  0.00    +0.000 A 
ATOM     23  C   UNL     1      48.486   6.697  14.124  0.00  0.00    +0.000 A 
ATOM     24  C   UNL     1      49.184   6.680  15.337  0.00  0.00    +0.000 A 
ATOM     25  C   UNL     1      50.386   7.387  15.476  0.00  0.00    +0.000 A 
ATOM     40  C   UNL     1      50.925   8.025  14.347  0.00  0.00    +0.000 A 
ATOM     41  C   UNL     1      50.229   8.035  13.132  0.00  0.00    +0.000 A 
BRANCH  25  26
ATOM     26  C   UNL     1      50.955   7.639  16.851  0.00  0.00    +0.000 C 
BRANCH  26  27
ATOM     27  N   UNL     1      51.314   6.489  17.644  0.00  0.00    +0.000 N 
ATOM     28  C   UNL     1      52.520   5.883  17.349  0.00  0.00    +0.000 C 
ATOM     29  O   UNL     1      53.266   6.358  16.492  0.00  0.00    +0.000 OA
ATOM     46  H   UNL     1      50.687   6.131  18.361  0.00  0.00    +0.000 HD
BRANCH  28  30
ATOM     30  C   UNL     1      52.896   4.638  18.027  0.00  0.00    +0.000 A 
ATOM     31  C   UNL     1      54.084   4.594  18.750  0.00  0.00    +0.000 A 
ATOM     32  S   UNL     1      54.471   3.046  19.348  0.00  0.00    +0.000 S 
ATOM     33  C   UNL     1      53.148   2.361  18.531  0.00  0.00    +0.000 A 
ATOM     34  N   UNL     1      53.026   1.015  18.397  0.00  0.00    +0.000 NA
ATOM     35  C   UNL     1      52.021   0.647  17.673  0.00  0.00    +0.000 A 
ATOM     36  N   UNL     1      51.069   1.496  17.167  0.00  0.00    +0.000 N 
ATOM     37  C   UNL     1      51.086   2.853  17.393  0.00  0.00    +0.000 A 
ATOM     38  O   UNL     1      50.138   3.576  17.104  0.00  0.00    +0.000 OA
ATOM     39  C   UNL     1      52.306   3.328  18.004  0.00  0.00    +0.000 A 
ATOM     47  H   UNL     1      50.254   1.130  16.698  0.00  0.00    +0.000 HD
ENDBRANCH  28  30
ENDBRANCH  26  27
ENDBRANCH  25  26
ENDBRANCH  21  22
ENDBRANCH  20  21
TORSDOF 14
ENDMDL
MODEL 2
REMARK VINA RESULT:    -8.509      4.309      6.152
REMARK INTER + INTRA:         -16.944
REMARK INTER:                 -15.018
REMARK INTRA:                  -1.926
REMARK UNBOUND:                -1.969
REMARK  Name = 
REMARK  14 active torsions:
REMARK  status: ('A' for Active; 'I' for Inactive)
REMARK    1  A    between atoms: C_2  and  C_3
REMARK    2  A    between atoms: C_3  and  C_4
REMARK    3  A    between atoms: C_4  and  C_5
REMARK    4  A    between atoms: C_5  and  C_6
REMARK    5  A    between atoms: C_6  and  C_7
REMARK    6  A    between atoms: C_7  and  N_8
REMARK    7  A    between atoms: C_9  and  C_11
REMARK    8  A    between atoms: C_15  and  O_16
REMARK    9  A    between atoms: N_18  and  O_19
REMARK   10  A    between atoms: N_20  and  C_21
REMARK   11  A    between atoms: C_21  and  C_22
REMARK   12  A    between atoms: C_25  and  C_26
REMARK   13  A    between atoms: C_26  and  N_27
REMARK   14  A    between atoms: C_28  and  C_30
REMARK                            x       y       z     vdW  Elec       q    Type
REMARK                         _______ _______ _______ _____ _____    ______ ____
ROOT
ATOM      1  O   UNL     1      47.295   4.303  13.953  0.00  0.00    +0.000 OA
ATOM      2  C   UNL     1      46.866   5.359  13.499  0.00  0.00    +0.000 C 
ATOM     20  N   UNL     1      47.314   6.598  13.895  0.00  0.00    +0.000 N 
ATOM     45  H   UNL     1      46.852   7.426  13.546  0.00  0.00    +0.000 HD
ENDROOT
BRANCH   2   3
ATOM      3  C   UNL     1      45.806   5.399  12.408  0.00  0.00    +0.000 C 
BRANCH   3   4
ATOM      4  C   UNL     1      44.494   5.993  12.920  0.00  0.00    +0.000 C 
BRANCH   4   5
ATOM      5  C   UNL     1      43.363   4.959  12.892  0.00  0.00    +0.000 C 
BRANCH   5   6
ATOM      6  C   UNL     1      43.895   3.523  12.918  0.00  0.00    +0.000 C 
BRANCH   6   7
ATOM      7  C   UNL     1      43.325   2.700  11.762  0.00  0.00    +0.000 C 
BRANCH   7   8
ATOM      8  N   UNL     1      44.308   2.464  10.727  0.00  0.00    +0.000 N 
ATOM      9  C   UNL     1      44.480   3.294   9.651  0.00  0.00    +0.000 C 
ATOM     10  O   UNL     1      43.817   4.315   9.485  0.00  0.00    +0.000 OA
ATOM     42  H   UNL     1      44.875   1.620  10.751  0.00  0.00    +0.000 HD
BRANCH   9  11
ATOM     11  C   UNL     1      45.543   2.865   8.665  0.00  0.00    +0.000 A 
ATOM     12  C   UNL     1      45.692   1.528   8.558  0.00  0.00    +0.000 A 
ATOM     13  C   UNL     1      46.728   1.005   7.632  0.00  0.00    +0.000 A 
ATOM     14  O   UNL     1      46.934  -0.200   7.510  0.00  0.00    +0.000 OA
ATOM     15  C   UNL     1      47.525   1.984   6.842  0.00  0.00    +0.000 A 
ATOM     17  C   UNL     1      47.271   3.283   7.037  0.00  0.00    +0.000 A 
ATOM     18  N   UNL     1      46.315   3.764   7.910  0.00  0.00    +0.000 N 
BRANCH  15  16
ATOM     16  O   UNL     1      48.491   1.525   5.975  0.00  0.00    +0.000 OA
ATOM     43  H   UNL     1      48.183   0.634   5.704  0.00  0.00    +0.000 HD
ENDBRANCH  15  16
BRANCH  18  19
ATOM     19  O   UNL     1      46.260   5.139   8.127  0.00  0.00    +0.000 OA
ATOM     44  H   UNL     1      45.401   5.397   7.739  0.00  0.00    +0.000 HD
ENDBRANCH  18  19
ENDBRANCH   9  11
ENDBRANCH   7   8
ENDBRANCH   6   7
ENDBRANCH   5   6
ENDBRANCH   4   5
ENDBRANCH   3   4
ENDBRANCH   2   3
BRANCH  20  21
ATOM     21  C   UNL     1      48.324   6.783  14.921  0.00  0.00    +0.000 C 
BRANCH  21  22
ATOM     22  C   UNL     1      49.541   7.469  14.350  0.00  0.00    +0.000 A 
ATOM     23  C   UNL     1      49.531   7.926  13.027  0.00  0.00    +0.000 A 
ATOM     24  C   UNL     1      50.692   8.436  12.436  0.00  0.00    +0.000 A 
ATOM     25  C   UNL     1      51.896   8.475  13.150  0.00  0.00    +0.000 A 
ATOM     40  C   UNL     1      51.890   8.087  14.500  0.00  0.00    +0.000 A 
ATOM     41  C   UNL     1      50.725   7.582  15.093  0.00  0.00    +0.000 A 
BRANCH  25  26
ATOM     26  C   UNL     1      53.196   8.708  12.420  0.00  0.00    +0.000 C 
BRANCH  26  27
ATOM     27  N   UNL     1      53.359   8.078  11.133  0.00  0.00    +0.000 N 
ATOM     28  C   UNL     1      53.414   8.913  10.034  0.00  0.00    +0.000 C 
ATOM     29  O   UNL     1      53.389  10.136  10.176  0.00  0.00    +0.000 OA
ATOM     46  H   UNL     1      53.398   7.064  11.047  0.00  0.00    +0.000 HD
BRANCH  28  30
ATOM     30  C   UNL     1      53.454   8.341   8.684  0.00  0.00    +0.000 A 
ATOM     31  C   UNL     1      53.052   9.125   7.606  0.00  0.00    +0.000 A 
ATOM     32  S   UNL     1      52.997   8.284   6.125  0.00  0.00    +0.000 S 
ATOM     33  C   UNL     1      53.358   6.818   6.904  0.00  0.00    +0.000 A 
ATOM     34  N   UNL     1      53.214   5.629   6.262  0.00  0.00    +0.000 NA
ATOM     35  C   UNL     1      53.436   4.598   7.009  0.00  0.00    +0.000 A 
ATOM     36  N   UNL     1      53.894   4.652   8.302  0.00  0.00    +0.000 N 
ATOM     37  C   UNL     1      54.177   5.836   8.942  0.00  0.00    +0.000 A 
ATOM     38  O   UNL     1      54.763   5.874  10.019  0.00  0.00    +0.000 OA
ATOM     39  C   UNL     1      53.733   7.009   8.224  0.00  0.00    +0.000 A 
ATOM     47  H   UNL     1      54.145   3.807   8.792  0.00  0.00    +0.000 HD
ENDBRANCH  28  30
ENDBRANCH  26  27
ENDBRANCH  25  26
ENDBRANCH  21  22
ENDBRANCH  20  21
TORSDOF 14
ENDMDL
MODEL 3
REMARK VINA RESULT:    -8.302      3.653      9.581
REMARK INTER + INTRA:         -16.580
REMARK INTER:                 -13.434
REMARK INTRA:                  -3.146
REMARK UNBOUND:                -1.969
REMARK  Name = 
REMARK  14 active torsions:
REMARK  status: ('A' for Active; 'I' for Inactive)
REMARK    1  A    between atoms: C_2  and  C_3
REMARK    2  A    between atoms: C_3  and  C_4
REMARK    3  A    between atoms: C_4  and  C_5
REMARK    4  A    between atoms: C_5  and  C_6
REMARK    5  A    between atoms: C_6  and  C_7
REMARK    6  A    between atoms: C_7  and  N_8
REMARK    7  A    between atoms: C_9  and  C_11
REMARK    8  A    between atoms: C_15  and  O_16
REMARK    9  A    between atoms: N_18  and  O_19
REMARK   10  A    between atoms: N_20  and  C_21
REMARK   11  A    between atoms: C_21  and  C_22
REMARK   12  A    between atoms: C_25  and  C_26
REMARK   13  A    between atoms: C_26  and  N_27
REMARK   14  A    between atoms: C_28  and  C_30
REMARK                            x       y       z     vdW  Elec       q    Type
REMARK                         _______ _______ _______ _____ _____    ______ ____
ROOT
ATOM      1  O   UNL     1      52.242   4.904  17.878  0.00  0.00    +0.000 OA
ATOM      2  C   UNL     1      53.149   5.506  17.313  0.00  0.00    +0.000 C 
ATOM     20  N   UNL     1      53.060   6.819  16.910  0.00  0.00    +0.000 N 
ATOM     45  H   UNL     1      53.812   7.223  16.369  0.00  0.00    +0.000 HD
ENDROOT
BRANCH   2   3
ATOM      3  C   UNL     1      54.498   4.860  17.032  0.00  0.00    +0.000 C 
BRANCH   3   4
ATOM      4  C   UNL     1      54.796   3.729  18.016  0.00  0.00    +0.000 C 
BRANCH   4   5
ATOM      5  C   UNL     1      54.530   2.356  17.390  0.00  0.00    +0.000 C 
BRANCH   5   6
ATOM      6  C   UNL     1      53.625   1.488  18.270  0.00  0.00    +0.000 C 
BRANCH   6   7
ATOM      7  C   UNL     1      52.372   1.047  17.511  0.00  0.00    +0.000 C 
BRANCH   7   8
ATOM      8  N   UNL     1      51.247   1.921  17.766  0.00  0.00    +0.000 N 
ATOM      9  C   UNL     1      50.203   2.074  16.893  0.00  0.00    +0.000 C 
ATOM     10  O   UNL     1      50.133   1.472  15.825  0.00  0.00    +0.000 OA
ATOM     42  H   UNL     1      51.235   2.497  18.603  0.00  0.00    +0.000 HD
BRANCH   9  11
ATOM     11  C   UNL     1      49.133   3.051  17.329  0.00  0.00    +0.000 A 
ATOM     12  C   UNL     1      49.291   3.521  18.584  0.00  0.00    +0.000 A 
ATOM     13  C   UNL     1      48.279   4.469  19.115  0.00  0.00    +0.000 A 
ATOM     14  O   UNL     1      48.349   4.913  20.258  0.00  0.00    +0.000 OA
ATOM     15  C   UNL     1      47.161   4.878  18.220  0.00  0.00    +0.000 A 
ATOM     17  C   UNL     1      47.126   4.343  16.996  0.00  0.00    +0.000 A 
ATOM     18  N   UNL     1      48.064   3.451  16.512  0.00  0.00    +0.000 N 
BRANCH  15  16
ATOM     16  O   UNL     1      46.210   5.758  18.688  0.00  0.00    +0.000 OA
ATOM     43  H   UNL     1      45.416   5.205  18.856  0.00  0.00    +0.000 HD
ENDBRANCH  15  16
BRANCH  18  19
ATOM     19  O   UNL     1      47.823   2.856  15.275  0.00  0.00    +0.000 OA
ATOM     44  H   UNL     1      47.284   2.073  15.499  0.00  0.00    +0.000 HD
ENDBRANCH  18  19
ENDBRANCH   9  11
ENDBRANCH   7   8
ENDBRANCH   6   7
ENDBRANCH   5   6
ENDBRANCH   4   5
ENDBRANCH   3   4
ENDBRANCH   2   3
BRANCH  20  21
ATOM     21  C   UNL     1      51.863   7.620  17.085  0.00  0.00    +0.000 C 
BRANCH  21  22
ATOM     22  C   UNL     1      51.013   7.586  15.838  0.00  0.00    +0.000 A 
ATOM     23  C   UNL     1      51.388   8.334  14.715  0.00  0.00    +0.000 A 
ATOM     24  C   UNL     1      50.546   8.426  13.602  0.00  0.00    +0.000 A 
ATOM     25  C   UNL     1      49.296   7.792  13.600  0.00  0.00    +0.000 A 
ATOM     40  C   UNL     1      48.953   6.981  14.694  0.00  0.00    +0.000 A 
ATOM     41  C   UNL     1      49.800   6.884  15.805  0.00  0.00    +0.000 A 
BRANCH  25  26
ATOM     26  C   UNL     1      48.268   8.160  12.558  0.00  0.00    +0.000 C 
BRANCH  26  27
ATOM     27  N   UNL     1      47.773   7.104  11.710  0.00  0.00    +0.000 N 
ATOM     28  C   UNL     1      46.441   6.764  11.853  0.00  0.00    +0.000 C 
ATOM     29  O   UNL     1      45.716   7.391  12.626  0.00  0.00    +0.000 OA
ATOM     46  H   UNL     1      48.391   6.617  11.064  0.00  0.00    +0.000 HD
BRANCH  28  30
ATOM     30  C   UNL     1      45.897   5.619  11.115  0.00  0.00    +0.000 A 
ATOM     31  C   UNL     1      45.912   5.643   9.724  0.00  0.00    +0.000 A 
ATOM     32  S   UNL     1      45.106   4.326   9.003  0.00  0.00    +0.000 S 
ATOM     33  C   UNL     1      44.584   3.770  10.522  0.00  0.00    +0.000 A 
ATOM     34  N   UNL     1      43.625   2.813  10.626  0.00  0.00    +0.000 NA
ATOM     35  C   UNL     1      43.265   2.559  11.841  0.00  0.00    +0.000 A 
ATOM     36  N   UNL     1      43.853   3.095  12.959  0.00  0.00    +0.000 N 
ATOM     37  C   UNL     1      44.915   3.967  12.896  0.00  0.00    +0.000 A 
ATOM     38  O   UNL     1      45.556   4.290  13.891  0.00  0.00    +0.000 OA
ATOM     39  C   UNL     1      45.200   4.446  11.562  0.00  0.00    +0.000 A 
ATOM     47  H   UNL     1      43.591   2.774  13.879  0.00  0.00    +0.000 HD
ENDBRANCH  28  30
ENDBRANCH  26  27
ENDBRANCH  25  26
ENDBRANCH  21  22
ENDBRANCH  20  21
TORSDOF 14
ENDMDL
MODEL 4
REMARK VINA RESULT:    -8.247      1.644      2.073
REMARK INTER + INTRA:         -16.484
REMARK INTER:                 -14.669
REMARK INTRA:                  -1.815
REMARK UNBOUND:                -1.969
REMARK  Name = 
REMARK  14 active torsions:
REMARK  status: ('A' for Active; 'I' for Inactive)
REMARK    1  A    between atoms: C_2  and  C_3
REMARK    2  A    between atoms: C_3  and  C_4
REMARK    3  A    between atoms: C_4  and  C_5
REMARK    4  A    between atoms: C_5  and  C_6
REMARK    5  A    between atoms: C_6  and  C_7
REMARK    6  A    between atoms: C_7  and  N_8
REMARK    7  A    between atoms: C_9  and  C_11
REMARK    8  A    between atoms: C_15  and  O_16
REMARK    9  A    between atoms: N_18  and  O_19
REMARK   10  A    between atoms: N_20  and  C_21
REMARK   11  A    between atoms: C_21  and  C_22
REMARK   12  A    between atoms: C_25  and  C_26
REMARK   13  A    between atoms: C_26  and  N_27
REMARK   14  A    between atoms: C_28  and  C_30
REMARK                            x       y       z     vdW  Elec       q    Type
REMARK                         _______ _______ _______ _____ _____    ______ ____
ROOT
ATOM      1  O   UNL     1      44.148   9.206  11.168  0.00  0.00    +0.000 OA
ATOM      2  C   UNL     1      44.870   8.267  11.485  0.00  0.00    +0.000 C 
ATOM     20  N   UNL     1      46.146   8.417  11.977  0.00  0.00    +0.000 N 
ATOM     45  H   UNL     1      46.717   7.598  12.132  0.00  0.00    +0.000 HD
ENDROOT
BRANCH   2   3
ATOM      3  C   UNL     1      44.402   6.822  11.399  0.00  0.00    +0.000 C 
BRANCH   3   4
ATOM      4  C   UNL     1      44.480   6.122  12.756  0.00  0.00    +0.000 C 
BRANCH   4   5
ATOM      5  C   UNL     1      43.381   5.065  12.906  0.00  0.00    +0.000 C 
BRANCH   5   6
ATOM      6  C   UNL     1      43.949   3.642  12.924  0.00  0.00    +0.000 C 
BRANCH   6   7
ATOM      7  C   UNL     1      43.365   2.798  11.790  0.00  0.00    +0.000 C 
BRANCH   7   8
ATOM      8  N   UNL     1      44.339   2.535  10.753  0.00  0.00    +0.000 N 
ATOM      9  C   UNL     1      44.466   3.307   9.629  0.00  0.00    +0.000 C 
ATOM     10  O   UNL     1      43.769   4.296   9.418  0.00  0.00    +0.000 OA
ATOM     42  H   UNL     1      44.932   1.711  10.814  0.00  0.00    +0.000 HD
BRANCH   9  11
ATOM     11  C   UNL     1      45.527   2.856   8.650  0.00  0.00    +0.000 A 
ATOM     12  C   UNL     1      45.674   1.517   8.572  0.00  0.00    +0.000 A 
ATOM     13  C   UNL     1      46.707   0.973   7.654  0.00  0.00    +0.000 A 
ATOM     14  O   UNL     1      46.912  -0.235   7.558  0.00  0.00    +0.000 OA
ATOM     15  C   UNL     1      47.503   1.935   6.842  0.00  0.00    +0.000 A 
ATOM     17  C   UNL     1      47.251   3.237   7.009  0.00  0.00    +0.000 A 
ATOM     18  N   UNL     1      46.297   3.738   7.875  0.00  0.00    +0.000 N 
BRANCH  15  16
ATOM     16  O   UNL     1      48.467   1.456   5.982  0.00  0.00    +0.000 OA
ATOM     43  H   UNL     1      49.090   0.959   6.554  0.00  0.00    +0.000 HD
ENDBRANCH  15  16
BRANCH  18  19
ATOM     19  O   UNL     1      46.244   5.117   8.062  0.00  0.00    +0.000 OA
ATOM     44  H   UNL     1      47.184   5.385   8.056  0.00  0.00    +0.000 HD
ENDBRANCH  18  19
ENDBRANCH   9  11
ENDBRANCH   7   8
ENDBRANCH   6   7
ENDBRANCH   5   6
ENDBRANCH   4   5
ENDBRANCH   3   4
ENDBRANCH   2   3
BRANCH  20  21
ATOM     21  C   UNL     1      46.783   9.711  12.141  0.00  0.00    +0.000 C 
BRANCH  21  22
ATOM     22  C   UNL     1      48.207   9.545  12.614  0.00  0.00    +0.000 A 
ATOM     23  C   UNL     1      48.960   8.442  12.195  0.00  0.00    +0.000 A 
ATOM     24  C   UNL     1      50.229   8.195  12.729  0.00  0.00    +0.000 A 
ATOM     25  C   UNL     1      50.761   9.036  13.716  0.00  0.00    +0.000 A 
ATOM     40  C   UNL     1      50.040  10.183  14.082  0.00  0.00    +0.000 A 
ATOM     41  C   UNL     1      48.772  10.433  13.542  0.00  0.00    +0.000 A 
BRANCH  25  26
ATOM     26  C   UNL     1      51.961   8.589  14.516  0.00  0.00    +0.000 C 
BRANCH  26  27
ATOM     27  N   UNL     1      51.938   7.255  15.063  0.00  0.00    +0.000 N 
ATOM     28  C   UNL     1      51.399   7.110  16.327  0.00  0.00    +0.000 C 
ATOM     29  O   UNL     1      50.909   8.077  16.912  0.00  0.00    +0.000 OA
ATOM     46  H   UNL     1      52.331   6.471  14.547  0.00  0.00    +0.000 HD
BRANCH  28  30
ATOM     30  C   UNL     1      51.454   5.807  16.998  0.00  0.00    +0.000 A 
ATOM     31  C   UNL     1      52.688   5.305  17.400  0.00  0.00    +0.000 A 
ATOM     32  S   UNL     1      52.619   3.719  18.019  0.00  0.00    +0.000 S 
ATOM     33  C   UNL     1      50.969   3.601  17.627  0.00  0.00    +0.000 A 
ATOM     34  N   UNL     1      50.327   2.404  17.650  0.00  0.00    +0.000 NA
ATOM     35  C   UNL     1      49.103   2.456  17.239  0.00  0.00    +0.000 A 
ATOM     36  N   UNL     1      48.435   3.610  16.914  0.00  0.00    +0.000 N 
ATOM     37  C   UNL     1      49.013   4.855  17.004  0.00  0.00    +0.000 A 
ATOM     38  O   UNL     1      48.360   5.888  16.899  0.00  0.00    +0.000 OA
ATOM     39  C   UNL     1      50.438   4.821  17.243  0.00  0.00    +0.000 A 
ATOM     47  H   UNL     1      47.449   3.588  16.701  0.00  0.00    +0.000 HD
ENDBRANCH  28  30
ENDBRANCH  26  27
ENDBRANCH  25  26
ENDBRANCH  21  22
ENDBRANCH  20  21
TORSDOF 14
ENDMDL
MODEL 5
REMARK VINA RESULT:    -8.210      5.144      6.906
REMARK INTER + INTRA:         -16.417
REMARK INTER:                 -14.355
REMARK INTRA:                  -2.062
REMARK UNBOUND:                -1.969
REMARK  Name = 
REMARK  14 active torsions:
REMARK  status: ('A' for Active; 'I' for Inactive)
REMARK    1  A    between atoms: C_2  and  C_3
REMARK    2  A    between atoms: C_3  and  C_4
REMARK    3  A    between atoms: C_4  and  C_5
REMARK    4  A    between atoms: C_5  and  C_6
REMARK    5  A    between atoms: C_6  and  C_7
REMARK    6  A    between atoms: C_7  and  N_8
REMARK    7  A    between atoms: C_9  and  C_11
REMARK    8  A    between atoms: C_15  and  O_16
REMARK    9  A    between atoms: N_18  and  O_19
REMARK   10  A    between atoms: N_20  and  C_21
REMARK   11  A    between atoms: C_21  and  C_22
REMARK   12  A    between atoms: C_25  and  C_26
REMARK   13  A    between atoms: C_26  and  N_27
REMARK   14  A    between atoms: C_28  and  C_30
REMARK                            x       y       z     vdW  Elec       q    Type
REMARK                         _______ _______ _______ _____ _____    ______ ____
ROOT
ATOM      1  O   UNL     1      43.955   9.245  10.931  0.00  0.00    +0.000 OA
ATOM      2  C   UNL     1      44.484   8.249  11.413  0.00  0.00    +0.000 C 
ATOM     20  N   UNL     1      45.714   8.261  12.031  0.00  0.00    +0.000 N 
ATOM     45  H   UNL     1      46.130   7.388  12.324  0.00  0.00    +0.000 HD
ENDROOT
BRANCH   2   3
ATOM      3  C   UNL     1      43.804   6.888  11.409  0.00  0.00    +0.000 C 
BRANCH   3   4
ATOM      4  C   UNL     1      44.459   5.927  12.401  0.00  0.00    +0.000 C 
BRANCH   4   5
ATOM      5  C   UNL     1      43.434   4.961  13.005  0.00  0.00    +0.000 C 
BRANCH   5   6
ATOM      6  C   UNL     1      43.923   3.509  12.973  0.00  0.00    +0.000 C 
BRANCH   6   7
ATOM      7  C   UNL     1      43.327   2.750  11.787  0.00  0.00    +0.000 C 
BRANCH   7   8
ATOM      8  N   UNL     1      44.308   2.499  10.754  0.00  0.00    +0.000 N 
ATOM      9  C   UNL     1      44.441   3.282   9.639  0.00  0.00    +0.000 C 
ATOM     10  O   UNL     1      43.743   4.271   9.432  0.00  0.00    +0.000 OA
ATOM     42  H   UNL     1      44.903   1.677  10.812  0.00  0.00    +0.000 HD
BRANCH   9  11
ATOM     11  C   UNL     1      45.511   2.842   8.663  0.00  0.00    +0.000 A 
ATOM     12  C   UNL     1      45.646   1.505   8.556  0.00  0.00    +0.000 A 
ATOM     13  C   UNL     1      46.685   0.971   7.639  0.00  0.00    +0.000 A 
ATOM     14  O   UNL     1      46.879  -0.236   7.517  0.00  0.00    +0.000 OA
ATOM     15  C   UNL     1      47.501   1.943   6.859  0.00  0.00    +0.000 A 
ATOM     17  C   UNL     1      47.260   3.244   7.054  0.00  0.00    +0.000 A 
ATOM     18  N   UNL     1      46.300   3.734   7.918  0.00  0.00    +0.000 N 
BRANCH  15  16
ATOM     16  O   UNL     1      48.471   1.475   6.001  0.00  0.00    +0.000 OA
ATOM     43  H   UNL     1      48.770   0.628   6.397  0.00  0.00    +0.000 HD
ENDBRANCH  15  16
BRANCH  18  19
ATOM     19  O   UNL     1      46.258   5.110   8.137  0.00  0.00    +0.000 OA
ATOM     44  H   UNL     1      45.508   5.220   8.753  0.00  0.00    +0.000 HD
ENDBRANCH  18  19
ENDBRANCH   9  11
ENDBRANCH   7   8
ENDBRANCH   6   7
ENDBRANCH   5   6
ENDBRANCH   4   5
ENDBRANCH   3   4
ENDBRANCH   2   3
BRANCH  20  21
ATOM     21  C   UNL     1      46.529   9.456  12.146  0.00  0.00    +0.000 C 
BRANCH  21  22
ATOM     22  C   UNL     1      47.996   9.109  12.065  0.00  0.00    +0.000 A 
ATOM     23  C   UNL     1      48.944  10.118  11.855  0.00  0.00    +0.000 A 
ATOM     24  C   UNL     1      50.290   9.803  11.638  0.00  0.00    +0.000 A 
ATOM     25  C   UNL     1      50.711   8.467  11.601  0.00  0.00    +0.000 A 
ATOM     40  C   UNL     1      49.776   7.459  11.886  0.00  0.00    +0.000 A 
ATOM     41  C   UNL     1      48.430   7.776  12.110  0.00  0.00    +0.000 A 
BRANCH  25  26
ATOM     26  C   UNL     1      52.072   8.123  11.046  0.00  0.00    +0.000 C 
BRANCH  26  27
ATOM     27  N   UNL     1      52.122   7.487   9.752  0.00  0.00    +0.000 N 
ATOM     28  C   UNL     1      53.282   6.806   9.439  0.00  0.00    +0.000 C 
ATOM     29  O   UNL     1      54.189   6.703  10.265  0.00  0.00    +0.000 OA
ATOM     46  H   UNL     1      51.347   7.571   9.097  0.00  0.00    +0.000 HD
BRANCH  28  30
ATOM     30  C   UNL     1      53.456   6.240   8.097  0.00  0.00    +0.000 A 
ATOM     31  C   UNL     1      53.786   4.894   7.969  0.00  0.00    +0.000 A 
ATOM     32  S   UNL     1      54.113   4.413   6.367  0.00  0.00    +0.000 S 
ATOM     33  C   UNL     1      53.974   6.017   5.821  0.00  0.00    +0.000 A 
ATOM     34  N   UNL     1      54.388   6.372   4.577  0.00  0.00    +0.000 NA
ATOM     35  C   UNL     1      54.306   7.639   4.337  0.00  0.00    +0.000 A 
ATOM     36  N   UNL     1      53.747   8.561   5.186  0.00  0.00    +0.000 N 
ATOM     37  C   UNL     1      53.198   8.219   6.399  0.00  0.00    +0.000 A 
ATOM     38  O   UNL     1      52.533   9.008   7.063  0.00  0.00    +0.000 OA
ATOM     39  C   UNL     1      53.468   6.857   6.800  0.00  0.00    +0.000 A 
ATOM     47  H   UNL     1      53.622   9.518   4.892  0.00  0.00    +0.000 HD
ENDBRANCH  28  30
ENDBRANCH  26  27
ENDBRANCH  25  26
ENDBRANCH  21  22
ENDBRANCH  20  21
TORSDOF 14
ENDMDL
MODEL 6
REMARK VINA RESULT:    -8.082      5.015      7.084
REMARK INTER + INTRA:         -16.193
REMARK INTER:                 -14.242
REMARK INTRA:                  -1.951
REMARK UNBOUND:                -1.969
REMARK  Name = 
REMARK  14 active torsions:
REMARK  status: ('A' for Active; 'I' for Inactive)
REMARK    1  A    between atoms: C_2  and  C_3
REMARK    2  A    between atoms: C_3  and  C_4
REMARK    3  A    between atoms: C_4  and  C_5
REMARK    4  A    between atoms: C_5  and  C_6
REMARK    5  A    between atoms: C_6  and  C_7
REMARK    6  A    between atoms: C_7  and  N_8
REMARK    7  A    between atoms: C_9  and  C_11
REMARK    8  A    between atoms: C_15  and  O_16
REMARK    9  A    between atoms: N_18  and  O_19
REMARK   10  A    between atoms: N_20  and  C_21
REMARK   11  A    between atoms: C_21  and  C_22
REMARK   12  A    between atoms: C_25  and  C_26
REMARK   13  A    between atoms: C_26  and  N_27
REMARK   14  A    between atoms: C_28  and  C_30
REMARK                            x       y       z     vdW  Elec       q    Type
REMARK                         _______ _______ _______ _____ _____    ______ ____
ROOT
ATOM      1  O   UNL     1      48.599   5.921  13.252  0.00  0.00    +0.000 OA
ATOM      2  C   UNL     1      47.720   6.623  12.763  0.00  0.00    +0.000 C 
ATOM     20  N   UNL     1      47.810   7.992  12.651  0.00  0.00    +0.000 N 
ATOM     45  H   UNL     1      47.011   8.515  12.322  0.00  0.00    +0.000 HD
ENDROOT
BRANCH   2   3
ATOM      3  C   UNL     1      46.439   6.035  12.190  0.00  0.00    +0.000 C 
BRANCH   3   4
ATOM      4  C   UNL     1      45.767   5.080  13.176  0.00  0.00    +0.000 C 
BRANCH   4   5
ATOM      5  C   UNL     1      44.296   4.845  12.815  0.00  0.00    +0.000 C 
BRANCH   5   6
ATOM      6  C   UNL     1      43.887   3.379  12.994  0.00  0.00    +0.000 C 
BRANCH   6   7
ATOM      7  C   UNL     1      43.258   2.819  11.718  0.00  0.00    +0.000 C 
BRANCH   7   8
ATOM      8  N   UNL     1      44.248   2.551  10.697  0.00  0.00    +0.000 N 
ATOM      9  C   UNL     1      44.457   3.371   9.620  0.00  0.00    +0.000 C 
ATOM     10  O   UNL     1      43.826   4.410   9.441  0.00  0.00    +0.000 OA
ATOM     42  H   UNL     1      44.790   1.692  10.732  0.00  0.00    +0.000 HD
BRANCH   9  11
ATOM     11  C   UNL     1      45.522   2.907   8.650  0.00  0.00    +0.000 A 
ATOM     12  C   UNL     1      45.659   1.567   8.579  0.00  0.00    +0.000 A 
ATOM     13  C   UNL     1      46.695   1.011   7.672  0.00  0.00    +0.000 A 
ATOM     14  O   UNL     1      46.891  -0.199   7.582  0.00  0.00    +0.000 OA
ATOM     15  C   UNL     1      47.504   1.963   6.860  0.00  0.00    +0.000 A 
ATOM     17  C   UNL     1      47.260   3.268   7.020  0.00  0.00    +0.000 A 
ATOM     18  N   UNL     1      46.304   3.780   7.877  0.00  0.00    +0.000 N 
BRANCH  15  16
ATOM     16  O   UNL     1      48.470   1.473   6.010  0.00  0.00    +0.000 OA
ATOM     43  H   UNL     1      49.157   1.097   6.600  0.00  0.00    +0.000 HD
ENDBRANCH  15  16
BRANCH  18  19
ATOM     19  O   UNL     1      46.260   5.161   8.057  0.00  0.00    +0.000 OA
ATOM     44  H   UNL     1      45.317   5.378   7.923  0.00  0.00    +0.000 HD
ENDBRANCH  18  19
ENDBRANCH   9  11
ENDBRANCH   7   8
ENDBRANCH   6   7
ENDBRANCH   5   6
ENDBRANCH   4   5
ENDBRANCH   3   4
ENDBRANCH   2   3
BRANCH  20  21
ATOM     21  C   UNL     1      48.949   8.751  13.133  0.00  0.00    +0.000 C 
BRANCH  21  22
ATOM     22  C   UNL     1      49.901   9.056  12.001  0.00  0.00    +0.000 A 
ATOM     23  C   UNL     1      50.840   8.099  11.599  0.00  0.00    +0.000 A 
ATOM     24  C   UNL     1      51.819   8.410  10.650  0.00  0.00    +0.000 A 
ATOM     25  C   UNL     1      51.896   9.698  10.103  0.00  0.00    +0.000 A 
ATOM     40  C   UNL     1      50.910  10.635  10.449  0.00  0.00    +0.000 A 
ATOM     41  C   UNL     1      49.925  10.320  11.394  0.00  0.00    +0.000 A 
BRANCH  25  26
ATOM     26  C   UNL     1      53.132  10.121   9.347  0.00  0.00    +0.000 C 
BRANCH  26  27
ATOM     27  N   UNL     1      53.811   9.116   8.566  0.00  0.00    +0.000 N 
ATOM     28  C   UNL     1      53.366   8.931   7.271  0.00  0.00    +0.000 C 
ATOM     29  O   UNL     1      52.477   9.645   6.807  0.00  0.00    +0.000 OA
ATOM     46  H   UNL     1      54.558   8.555   8.969  0.00  0.00    +0.000 HD
BRANCH  28  30
ATOM     30  C   UNL     1      53.923   7.845   6.456  0.00  0.00    +0.000 A 
ATOM     31  C   UNL     1      54.330   8.117   5.154  0.00  0.00    +0.000 A 
ATOM     32  S   UNL     1      54.804   6.736   4.276  0.00  0.00    +0.000 S 
ATOM     33  C   UNL     1      54.334   5.720   5.555  0.00  0.00    +0.000 A 
ATOM     34  N   UNL     1      54.226   4.377   5.380  0.00  0.00    +0.000 NA
ATOM     35  C   UNL     1      53.770   3.747   6.412  0.00  0.00    +0.000 A 
ATOM     36  N   UNL     1      53.520   4.323   7.633  0.00  0.00    +0.000 N 
ATOM     37  C   UNL     1      53.743   5.656   7.886  0.00  0.00    +0.000 A 
ATOM     38  O   UNL     1      53.701   6.123   9.020  0.00  0.00    +0.000 OA
ATOM     39  C   UNL     1      54.037   6.434   6.704  0.00  0.00    +0.000 A 
ATOM     47  H   UNL     1      53.264   3.753   8.425  0.00  0.00    +0.000 HD
ENDBRANCH  28  30
ENDBRANCH  26  27
ENDBRANCH  25  26
ENDBRANCH  21  22
ENDBRANCH  20  21
TORSDOF 14
ENDMDL
MODEL 7
REMARK VINA RESULT:    -7.932      4.138      9.797
REMARK INTER + INTRA:         -15.929
REMARK INTER:                 -11.952
REMARK INTRA:                  -3.976
REMARK UNBOUND:                -1.969
REMARK  Name = 
REMARK  14 active torsions:
REMARK  status: ('A' for Active; 'I' for Inactive)
REMARK    1  A    between atoms: C_2  and  C_3
REMARK    2  A    between atoms: C_3  and  C_4
REMARK    3  A    between atoms: C_4  and  C_5
REMARK    4  A    between atoms: C_5  and  C_6
REMARK    5  A    between atoms: C_6  and  C_7
REMARK    6  A    between atoms: C_7  and  N_8
REMARK    7  A    between atoms: C_9  and  C_11
REMARK    8  A    between atoms: C_15  and  O_16
REMARK    9  A    between atoms: N_18  and  O_19
REMARK   10  A    between atoms: N_20  and  C_21
REMARK   11  A    between atoms: C_21  and  C_22
REMARK   12  A    between atoms: C_25  and  C_26
REMARK   13  A    between atoms: C_26  and  N_27
REMARK   14  A    between atoms: C_28  and  C_30
REMARK                            x       y       z     vdW  Elec       q    Type
REMARK                         _______ _______ _______ _____ _____    ______ ____
ROOT
ATOM      1  O   UNL     1      51.665   4.739  21.138  0.00  0.00    +0.000 OA
ATOM      2  C   UNL     1      52.599   4.817  20.347  0.00  0.00    +0.000 C 
ATOM     20  N   UNL     1      52.869   5.934  19.590  0.00  0.00    +0.000 N 
ATOM     45  H   UNL     1      53.599   5.896  18.893  0.00  0.00    +0.000 HD
ENDROOT
BRANCH   2   3
ATOM      3  C   UNL     1      53.590   3.679  20.152  0.00  0.00    +0.000 C 
BRANCH   3   4
ATOM      4  C   UNL     1      54.458   3.895  18.912  0.00  0.00    +0.000 C 
BRANCH   4   5
ATOM      5  C   UNL     1      54.010   3.000  17.752  0.00  0.00    +0.000 C 
BRANCH   5   6
ATOM      6  C   UNL     1      53.732   1.564  18.207  0.00  0.00    +0.000 C 
BRANCH   6   7
ATOM      7  C   UNL     1      52.421   1.040  17.618  0.00  0.00    +0.000 C 
BRANCH   7   8
ATOM      8  N   UNL     1      51.323   1.955  17.839  0.00  0.00    +0.000 N 
ATOM      9  C   UNL     1      50.277   2.097  16.966  0.00  0.00    +0.000 C 
ATOM     10  O   UNL     1      50.182   1.447  15.929  0.00  0.00    +0.000 OA
ATOM     42  H   UNL     1      51.333   2.571  18.648  0.00  0.00    +0.000 HD
BRANCH   9  11
ATOM     11  C   UNL     1      49.237   3.122  17.363  0.00  0.00    +0.000 A 
ATOM     12  C   UNL     1      49.428   3.660  18.585  0.00  0.00    +0.000 A 
ATOM     13  C   UNL     1      48.448   4.661  19.077  0.00  0.00    +0.000 A 
ATOM     14  O   UNL     1      48.549   5.168  20.192  0.00  0.00    +0.000 OA
ATOM     15  C   UNL     1      47.324   5.045  18.178  0.00  0.00    +0.000 A 
ATOM     17  C   UNL     1      47.255   4.441  16.988  0.00  0.00    +0.000 A 
ATOM     18  N   UNL     1      48.163   3.500  16.541  0.00  0.00    +0.000 N 
BRANCH  15  16
ATOM     16  O   UNL     1      46.402   5.972  18.610  0.00  0.00    +0.000 OA
ATOM     43  H   UNL     1      46.687   6.207  19.519  0.00  0.00    +0.000 HD
ENDBRANCH  15  16
BRANCH  18  19
ATOM     19  O   UNL     1      47.887   2.841  15.345  0.00  0.00    +0.000 OA
ATOM     44  H   UNL     1      48.236   1.941  15.494  0.00  0.00    +0.000 HD
ENDBRANCH  18  19
ENDBRANCH   9  11
ENDBRANCH   7   8
ENDBRANCH   6   7
ENDBRANCH   5   6
ENDBRANCH   4   5
ENDBRANCH   3   4
ENDBRANCH   2   3
BRANCH  20  21
ATOM     21  C   UNL     1      52.048   7.131  19.627  0.00  0.00    +0.000 C 
BRANCH  21  22
ATOM     22  C   UNL     1      51.100   7.161  18.453  0.00  0.00    +0.000 A 
ATOM     23  C   UNL     1      51.398   6.435  17.294  0.00  0.00    +0.000 A 
ATOM     24  C   UNL     1      50.606   6.560  16.147  0.00  0.00    +0.000 A 
ATOM     25  C   UNL     1      49.513   7.436  16.129  0.00  0.00    +0.000 A 
ATOM     40  C   UNL     1      49.169   8.106  17.314  0.00  0.00    +0.000 A 
ATOM     41  C   UNL     1      49.958   7.976  18.463  0.00  0.00    +0.000 A 
BRANCH  25  26
ATOM     26  C   UNL     1      48.874   7.813  14.814  0.00  0.00    +0.000 C 
BRANCH  26  27
ATOM     27  N   UNL     1      47.572   7.263  14.525  0.00  0.00    +0.000 N 
ATOM     28  C   UNL     1      47.528   6.199  13.645  0.00  0.00    +0.000 C 
ATOM     29  O   UNL     1      48.568   5.717  13.194  0.00  0.00    +0.000 OA
ATOM     46  H   UNL     1      46.731   7.669  14.930  0.00  0.00    +0.000 HD
BRANCH  28  30
ATOM     30  C   UNL     1      46.233   5.667  13.207  0.00  0.00    +0.000 A 
ATOM     31  C   UNL     1      46.027   4.291  13.223  0.00  0.00    +0.000 A 
ATOM     32  S   UNL     1      44.543   3.808  12.539  0.00  0.00    +0.000 S 
ATOM     33  C   UNL     1      44.202   5.404  12.065  0.00  0.00    +0.000 A 
ATOM     34  N   UNL     1      43.195   5.677  11.195  0.00  0.00    +0.000 NA
ATOM     35  C   UNL     1      43.116   6.921  10.856  0.00  0.00    +0.000 A 
ATOM     36  N   UNL     1      43.879   7.928  11.392  0.00  0.00    +0.000 N 
ATOM     37  C   UNL     1      44.819   7.709  12.372  0.00  0.00    +0.000 A 
ATOM     38  O   UNL     1      45.357   8.628  12.980  0.00  0.00    +0.000 OA
ATOM     39  C   UNL     1      45.093   6.311  12.616  0.00  0.00    +0.000 A 
ATOM     47  H   UNL     1      43.693   8.892  11.158  0.00  0.00    +0.000 HD
ENDBRANCH  28  30
ENDBRANCH  26  27
ENDBRANCH  25  26
ENDBRANCH  21  22
ENDBRANCH  20  21
TORSDOF 14
ENDMDL
MODEL 8
REMARK VINA RESULT:    -7.909      5.544      7.763
REMARK INTER + INTRA:         -15.888
REMARK INTER:                 -14.411
REMARK INTRA:                  -1.477
REMARK UNBOUND:                -1.969
REMARK  Name = 
REMARK  14 active torsions:
REMARK  status: ('A' for Active; 'I' for Inactive)
REMARK    1  A    between atoms: C_2  and  C_3
REMARK    2  A    between atoms: C_3  and  C_4
REMARK    3  A    between atoms: C_4  and  C_5
REMARK    4  A    between atoms: C_5  and  C_6
REMARK    5  A    between atoms: C_6  and  C_7
REMARK    6  A    between atoms: C_7  and  N_8
REMARK    7  A    between atoms: C_9  and  C_11
REMARK    8  A    between atoms: C_15  and  O_16
REMARK    9  A    between atoms: N_18  and  O_19
REMARK   10  A    between atoms: N_20  and  C_21
REMARK   11  A    between atoms: C_21  and  C_22
REMARK   12  A    between atoms: C_25  and  C_26
REMARK   13  A    between atoms: C_26  and  N_27
REMARK   14  A    between atoms: C_28  and  C_30
REMARK                            x       y       z     vdW  Elec       q    Type
REMARK                         _______ _______ _______ _____ _____    ______ ____
ROOT
ATOM      1  O   UNL     1      49.025   6.439  13.249  0.00  0.00    +0.000 OA
ATOM      2  C   UNL     1      48.703   7.405  12.565  0.00  0.00    +0.000 C 
ATOM     20  N   UNL     1      49.607   8.244  11.955  0.00  0.00    +0.000 N 
ATOM     45  H   UNL     1      49.273   9.072  11.483  0.00  0.00    +0.000 HD
ENDROOT
BRANCH   2   3
ATOM      3  C   UNL     1      47.247   7.752  12.288  0.00  0.00    +0.000 C 
BRANCH   3   4
ATOM      4  C   UNL     1      46.379   6.498  12.183  0.00  0.00    +0.000 C 
BRANCH   4   5
ATOM      5  C   UNL     1      44.963   6.835  11.705  0.00  0.00    +0.000 C 
BRANCH   5   6
ATOM      6  C   UNL     1      43.951   5.753  12.094  0.00  0.00    +0.000 C 
BRANCH   6   7
ATOM      7  C   UNL     1      43.266   5.165  10.860  0.00  0.00    +0.000 C 
BRANCH   7   8
ATOM      8  N   UNL     1      44.218   4.602   9.927  0.00  0.00    +0.000 N 
ATOM      9  C   UNL     1      44.386   3.255   9.747  0.00  0.00    +0.000 C 
ATOM     10  O   UNL     1      43.731   2.414  10.358  0.00  0.00    +0.000 OA
ATOM     42  H   UNL     1      44.839   5.216   9.407  0.00  0.00    +0.000 HD
BRANCH   9  11
ATOM     11  C   UNL     1      45.447   2.864   8.742  0.00  0.00    +0.000 A 
ATOM     12  C   UNL     1      45.640   1.533   8.631  0.00  0.00    +0.000 A 
ATOM     13  C   UNL     1      46.677   1.047   7.687  0.00  0.00    +0.000 A 
ATOM     14  O   UNL     1      46.922  -0.151   7.559  0.00  0.00    +0.000 OA
ATOM     15  C   UNL     1      47.427   2.054   6.885  0.00  0.00    +0.000 A 
ATOM     17  C   UNL     1      47.132   3.342   7.087  0.00  0.00    +0.000 A 
ATOM     18  N   UNL     1      46.175   3.789   7.977  0.00  0.00    +0.000 N 
BRANCH  15  16
ATOM     16  O   UNL     1      48.393   1.629   6.001  0.00  0.00    +0.000 OA
ATOM     43  H   UNL     1      49.229   2.019   6.335  0.00  0.00    +0.000 HD
ENDBRANCH  15  16
BRANCH  18  19
ATOM     19  O   UNL     1      46.076   5.162   8.197  0.00  0.00    +0.000 OA
ATOM     44  H   UNL     1      46.689   5.543   7.539  0.00  0.00    +0.000 HD
ENDBRANCH  18  19
ENDBRANCH   9  11
ENDBRANCH   7   8
ENDBRANCH   6   7
ENDBRANCH   5   6
ENDBRANCH   4   5
ENDBRANCH   3   4
ENDBRANCH   2   3
BRANCH  20  21
ATOM     21  C   UNL     1      51.044   8.089  12.088  0.00  0.00    +0.000 C 
BRANCH  21  22
ATOM     22  C   UNL     1      51.722   8.245  10.748  0.00  0.00    +0.000 A 
ATOM     23  C   UNL     1      52.064   7.112  10.001  0.00  0.00    +0.000 A 
ATOM     24  C   UNL     1      52.815   7.228   8.826  0.00  0.00    +0.000 A 
ATOM     25  C   UNL     1      53.261   8.482   8.388  0.00  0.00    +0.000 A 
ATOM     40  C   UNL     1      52.854   9.625   9.095  0.00  0.00    +0.000 A 
ATOM     41  C   UNL     1      52.097   9.508  10.267  0.00  0.00    +0.000 A 
BRANCH  25  26
ATOM     26  C   UNL     1      54.331   8.570   7.326  0.00  0.00    +0.000 C 
BRANCH  26  27
ATOM     27  N   UNL     1      54.885   7.333   6.836  0.00  0.00    +0.000 N 
ATOM     28  C   UNL     1      54.426   6.889   5.610  0.00  0.00    +0.000 C 
ATOM     29  O   UNL     1      53.632   7.566   4.957  0.00  0.00    +0.000 OA
ATOM     46  H   UNL     1      55.557   6.804   7.388  0.00  0.00    +0.000 HD
BRANCH  28  30
ATOM     30  C   UNL     1      54.850   5.579   5.103  0.00  0.00    +0.000 A 
ATOM     31  C   UNL     1      55.184   5.450   3.759  0.00  0.00    +0.000 A 
ATOM     32  S   UNL     1      55.500   3.847   3.276  0.00  0.00    +0.000 S 
ATOM     33  C   UNL     1      55.052   3.261   4.808  0.00  0.00    +0.000 A 
ATOM     34  N   UNL     1      54.841   1.936   5.017  0.00  0.00    +0.000 NA
ATOM     35  C   UNL     1      54.416   1.652   6.204  0.00  0.00    +0.000 A 
ATOM     36  N   UNL     1      54.291   2.559   7.228  0.00  0.00    +0.000 N 
ATOM     37  C   UNL     1      54.621   3.886   7.091  0.00  0.00    +0.000 A 
ATOM     38  O   UNL     1      54.690   4.646   8.052  0.00  0.00    +0.000 OA
ATOM     39  C   UNL     1      54.885   4.285   5.727  0.00  0.00    +0.000 A 
ATOM     47  H   UNL     1      54.053   2.250   8.158  0.00  0.00    +0.000 HD
ENDBRANCH  28  30
ENDBRANCH  26  27
ENDBRANCH  25  26
ENDBRANCH  21  22
ENDBRANCH  20  21
TORSDOF 14
ENDMDL
MODEL 9
REMARK VINA RESULT:    -7.770      1.969      2.667
REMARK INTER + INTRA:         -15.644
REMARK INTER:                 -13.627
REMARK INTRA:                  -2.016
REMARK UNBOUND:                -1.969
REMARK  Name = 
REMARK  14 active torsions:
REMARK  status: ('A' for Active; 'I' for Inactive)
REMARK    1  A    between atoms: C_2  and  C_3
REMARK    2  A    between atoms: C_3  and  C_4
REMARK    3  A    between atoms: C_4  and  C_5
REMARK    4  A    between atoms: C_5  and  C_6
REMARK    5  A    between atoms: C_6  and  C_7
REMARK    6  A    between atoms: C_7  and  N_8
REMARK    7  A    between atoms: C_9  and  C_11
REMARK    8  A    between atoms: C_15  and  O_16
REMARK    9  A    between atoms: N_18  and  O_19
REMARK   10  A    between atoms: N_20  and  C_21
REMARK   11  A    between atoms: C_21  and  C_22
REMARK   12  A    between atoms: C_25  and  C_26
REMARK   13  A    between atoms: C_26  and  N_27
REMARK   14  A    between atoms: C_28  and  C_30
REMARK                            x       y       z     vdW  Elec       q    Type
REMARK                         _______ _______ _______ _____ _____    ______ ____
ROOT
ATOM      1  O   UNL     1      50.087   8.607  12.052  0.00  0.00    +0.000 OA
ATOM      2  C   UNL     1      48.883   8.464  12.237  0.00  0.00    +0.000 C 
ATOM     20  N   UNL     1      48.123   9.314  13.009  0.00  0.00    +0.000 N 
ATOM     45  H   UNL     1      47.156   9.084  13.192  0.00  0.00    +0.000 HD
ENDROOT
BRANCH   2   3
ATOM      3  C   UNL     1      48.092   7.336  11.590  0.00  0.00    +0.000 C 
BRANCH   3   4
ATOM      4  C   UNL     1      46.624   7.361  12.015  0.00  0.00    +0.000 C 
BRANCH   4   5
ATOM      5  C   UNL     1      46.072   5.944  12.207  0.00  0.00    +0.000 C 
BRANCH   5   6
ATOM      6  C   UNL     1      44.572   5.948  12.518  0.00  0.00    +0.000 C 
BRANCH   6   7
ATOM      7  C   UNL     1      43.807   5.025  11.568  0.00  0.00    +0.000 C 
BRANCH   7   8
ATOM      8  N   UNL     1      44.650   4.520  10.505  0.00  0.00    +0.000 N 
ATOM      9  C   UNL     1      44.502   3.273   9.958  0.00  0.00    +0.000 C 
ATOM     10  O   UNL     1      43.631   2.486  10.320  0.00  0.00    +0.000 OA
ATOM     42  H   UNL     1      45.428   5.080  10.169  0.00  0.00    +0.000 HD
BRANCH   9  11
ATOM     11  C   UNL     1      45.495   2.920   8.873  0.00  0.00    +0.000 A 
ATOM     12  C   UNL     1      45.708   1.596   8.728  0.00  0.00    +0.000 A 
ATOM     13  C   UNL     1      46.684   1.147   7.703  0.00  0.00    +0.000 A 
ATOM     14  O   UNL     1      46.945  -0.043   7.540  0.00  0.00    +0.000 OA
ATOM     15  C   UNL     1      47.351   2.182   6.865  0.00  0.00    +0.000 A 
ATOM     17  C   UNL     1      47.044   3.460   7.107  0.00  0.00    +0.000 A 
ATOM     18  N   UNL     1      46.144   3.873   8.071  0.00  0.00    +0.000 N 
BRANCH  15  16
ATOM     16  O   UNL     1      48.260   1.791   5.907  0.00  0.00    +0.000 OA
ATOM     43  H   UNL     1      48.452   0.851   6.110  0.00  0.00    +0.000 HD
ENDBRANCH  15  16
BRANCH  18  19
ATOM     19  O   UNL     1      46.032   5.240   8.319  0.00  0.00    +0.000 OA
ATOM     44  H   UNL     1      46.224   5.645   7.451  0.00  0.00    +0.000 HD
ENDBRANCH  18  19
ENDBRANCH   9  11
ENDBRANCH   7   8
ENDBRANCH   6   7
ENDBRANCH   5   6
ENDBRANCH   4   5
ENDBRANCH   3   4
ENDBRANCH   2   3
BRANCH  20  21
ATOM     21  C   UNL     1      48.680  10.454  13.712  0.00  0.00    +0.000 C 
BRANCH  21  22
ATOM     22  C   UNL     1      49.046  10.077  15.128  0.00  0.00    +0.000 A 
ATOM     23  C   UNL     1      50.257  10.514  15.677  0.00  0.00    +0.000 A 
ATOM     24  C   UNL     1      50.679  10.062  16.932  0.00  0.00    +0.000 A 
ATOM     25  C   UNL     1      49.907   9.142  17.654  0.00  0.00    +0.000 A 
ATOM     40  C   UNL     1      48.657   8.763  17.138  0.00  0.00    +0.000 A 
ATOM     41  C   UNL     1      48.233   9.220  15.884  0.00  0.00    +0.000 A 
BRANCH  25  26
ATOM     26  C   UNL     1      50.510   8.415  18.831  0.00  0.00    +0.000 C 
BRANCH  26  27
ATOM     27  N   UNL     1      50.415   6.976  18.843  0.00  0.00    +0.000 N 
ATOM     28  C   UNL     1      51.359   6.285  18.108  0.00  0.00    +0.000 C 
ATOM     29  O   UNL     1      52.267   6.886  17.533  0.00  0.00    +0.000 OA
ATOM     46  H   UNL     1      49.666   6.504  19.346  0.00  0.00    +0.000 HD
BRANCH  28  30
ATOM     30  C   UNL     1      51.254   4.828  17.971  0.00  0.00    +0.000 A 
ATOM     31  C   UNL     1      52.403   4.053  18.098  0.00  0.00    +0.000 A 
ATOM     32  S   UNL     1      52.162   2.401  17.758  0.00  0.00    +0.000 S 
ATOM     33  C   UNL     1      50.557   2.697  17.284  0.00  0.00    +0.000 A 
ATOM     34  N   UNL     1      49.834   1.753  16.627  0.00  0.00    +0.000 NA
ATOM     35  C   UNL     1      48.665   2.154  16.250  0.00  0.00    +0.000 A 
ATOM     36  N   UNL     1      48.115   3.372  16.567  0.00  0.00    +0.000 N 
ATOM     37  C   UNL     1      48.766   4.302  17.343  0.00  0.00    +0.000 A 
ATOM     38  O   UNL     1      48.200   5.299  17.781  0.00  0.00    +0.000 OA
ATOM     39  C   UNL     1      50.153   3.986  17.595  0.00  0.00    +0.000 A 
ATOM     47  H   UNL     1      47.157   3.578  16.328  0.00  0.00    +0.000 HD
ENDBRANCH  28  30
ENDBRANCH  26  27
ENDBRANCH  25  26
ENDBRANCH  21  22
ENDBRANCH  20  21
TORSDOF 14
ENDMDL
