MODEL 1
REMARK VINA RESULT:    -7.301      0.000      0.000
REMARK INTER + INTRA:          -8.794
REMARK INTER:                  -9.008
REMARK INTRA:                   0.214
REMARK UNBOUND:                 0.214
REMARK  Name = 
REMARK  5 active torsions:
REMARK  status: ('A' for Active; 'I' for Inactive)
REMARK    1  A    between atoms: C_1  and  N_2
REMARK    2  A    between atoms: C_6  and  C_8
REMARK    3  A    between atoms: C_8  and  N_9
REMARK    4  A    between atoms: C_10  and  C_11
REMARK    5  A    between atoms: C_17  and  C_18
REMARK                            x       y       z     vdW  Elec       q    Type
REMARK                         _______ _______ _______ _____ _____    ______ ____
ROOT
ATOM      9  N   UNL     1      44.633   4.963  10.292  0.00  0.00    +0.000 N 
ATOM     10  C   UNL     1      43.833   3.948  10.779  0.00  0.00    +0.000 A 
ATOM     14  C   UNL     1      44.012   2.839   9.975  0.00  0.00    +0.000 A 
ATOM     15  C   UNL     1      45.026   3.140   9.039  0.00  0.00    +0.000 A 
ATOM     16  C   UNL     1      45.709   2.402   8.055  0.00  0.00    +0.000 A 
ATOM     17  C   UNL     1      46.720   3.047   7.340  0.00  0.00    +0.000 A 
ATOM     21  C   UNL     1      46.968   4.391   7.626  0.00  0.00    +0.000 A 
ATOM     22  N   UNL     1      46.336   5.151   8.564  0.00  0.00    +0.000 NA
ATOM     23  C   UNL     1      45.384   4.471   9.239  0.00  0.00    +0.000 A 
ENDROOT
BRANCH  17  18
ATOM     18  C   UNL     1      47.557   2.376   6.321  0.00  0.00    +0.000 C 
ATOM     19  N   UNL     1      47.695   2.954   5.086  0.00  0.00    +0.000 N 
ATOM     20  O   UNL     1      48.111   1.307   6.553  0.00  0.00    +0.000 OA
ATOM     26  H   UNL     1      47.270   3.822   4.800  0.00  0.00    +0.000 HD
ATOM     27  H   UNL     1      48.261   2.459   4.409  0.00  0.00    +0.000 HD
ENDBRANCH  17  18
BRANCH  10  11
ATOM     11  C   UNL     1      42.918   4.004  11.998  0.00  0.00    +0.000 C 
ATOM     12  C   UNL     1      42.907   5.266  12.843  0.00  0.00    +0.000 C 
ATOM     13  C   UNL     1      43.557   4.034  13.371  0.00  0.00    +0.000 C 
ENDBRANCH  10  11
BRANCH   9   8
ATOM      8  C   UNL     1      44.873   6.267  10.910  0.00  0.00    +0.000 C 
BRANCH   8   6
ATOM      1  C   UNL     1      48.391  11.448  12.984  0.00  0.00    +0.000 C 
ATOM      2  N   UNL     1      47.491  10.293  12.994  0.00  0.00    +0.000 NA
ATOM      3  C   UNL     1      46.869  10.096  11.673  0.00  0.00    +0.000 C 
ATOM      4  C   UNL     1      45.906   8.887  11.657  0.00  0.00    +0.000 C 
ATOM      5  N   UNL     1      46.529   7.653  12.154  0.00  0.00    +0.000 N 
ATOM      6  C   UNL     1      46.067   6.357  11.855  0.00  0.00    +0.000 C 
ATOM      7  O   UNL     1      46.599   5.362  12.348  0.00  0.00    +0.000 OA
ATOM     24  C   UNL     1      47.311   7.823  13.387  0.00  0.00    +0.000 C 
ATOM     25  C   UNL     1      48.221   9.067  13.375  0.00  0.00    +0.000 C 
ENDBRANCH   8   6
ENDBRANCH   9   8
TORSDOF 4
ENDMDL
MODEL 2
REMARK VINA RESULT:    -7.079      4.739      6.934
REMARK INTER + INTRA:          -8.520
REMARK INTER:                  -7.738
REMARK INTRA:                  -0.783
REMARK UNBOUND:                 0.214
REMARK  Name = 
REMARK  5 active torsions:
REMARK  status: ('A' for Active; 'I' for Inactive)
REMARK    1  A    between atoms: C_1  and  N_2
REMARK    2  A    between atoms: C_6  and  C_8
REMARK    3  A    between atoms: C_8  and  N_9
REMARK    4  A    between atoms: C_10  and  C_11
REMARK    5  A    between atoms: C_17  and  C_18
REMARK                            x       y       z     vdW  Elec       q    Type
REMARK                         _______ _______ _______ _____ _____    ______ ____
ROOT
ATOM      9  N   UNL     1      47.550   5.439  14.618  0.00  0.00    +0.000 N 
ATOM     10  C   UNL     1      48.279   6.552  14.249  0.00  0.00    +0.000 A 
ATOM     14  C   UNL     1      47.873   6.929  12.984  0.00  0.00    +0.000 A 
ATOM     15  C   UNL     1      46.794   6.099  12.609  0.00  0.00    +0.000 A 
ATOM     16  C   UNL     1      45.913   6.064  11.512  0.00  0.00    +0.000 A 
ATOM     17  C   UNL     1      44.905   5.099  11.516  0.00  0.00    +0.000 A 
ATOM     21  C   UNL     1      44.853   4.210  12.592  0.00  0.00    +0.000 A 
ATOM     22  N   UNL     1      45.681   4.199  13.674  0.00  0.00    +0.000 NA
ATOM     23  C   UNL     1      46.622   5.167  13.628  0.00  0.00    +0.000 A 
ENDROOT
BRANCH  17  18
ATOM     18  C   UNL     1      43.875   4.987  10.458  0.00  0.00    +0.000 C 
ATOM     19  N   UNL     1      44.251   4.585   9.203  0.00  0.00    +0.000 N 
ATOM     20  O   UNL     1      42.701   5.264  10.679  0.00  0.00    +0.000 OA
ATOM     26  H   UNL     1      45.190   4.348   8.925  0.00  0.00    +0.000 HD
ATOM     27  H   UNL     1      43.523   4.536   8.502  0.00  0.00    +0.000 HD
ENDBRANCH  17  18
BRANCH  10  11
ATOM     11  C   UNL     1      49.337   7.273  15.077  0.00  0.00    +0.000 C 
ATOM     12  C   UNL     1      48.886   8.298  16.104  0.00  0.00    +0.000 C 
ATOM     13  C   UNL     1      49.539   8.757  14.847  0.00  0.00    +0.000 C 
ENDBRANCH  10  11
BRANCH   9   8
ATOM      8  C   UNL     1      47.543   4.787  15.928  0.00  0.00    +0.000 C 
BRANCH   8   6
ATOM      1  C   UNL     1      53.366   3.512  18.751  0.00  0.00    +0.000 C 
ATOM      2  N   UNL     1      51.928   3.503  18.484  0.00  0.00    +0.000 NA
ATOM      3  C   UNL     1      51.510   4.736  17.793  0.00  0.00    +0.000 C 
ATOM      4  C   UNL     1      49.993   4.758  17.505  0.00  0.00    +0.000 C 
ATOM      5  N   UNL     1      49.526   3.556  16.800  0.00  0.00    +0.000 N 
ATOM      6  C   UNL     1      48.341   3.493  16.042  0.00  0.00    +0.000 C 
ATOM      7  O   UNL     1      47.976   2.440  15.520  0.00  0.00    +0.000 OA
ATOM     24  C   UNL     1      50.050   2.295  17.342  0.00  0.00    +0.000 C 
ATOM     25  C   UNL     1      51.558   2.336  17.657  0.00  0.00    +0.000 C 
ENDBRANCH   8   6
ENDBRANCH   9   8
TORSDOF 4
ENDMDL
MODEL 3
REMARK VINA RESULT:    -7.005      3.989      6.679
REMARK INTER + INTRA:          -8.430
REMARK INTER:                  -7.596
REMARK INTRA:                  -0.834
REMARK UNBOUND:                 0.214
REMARK  Name = 
REMARK  5 active torsions:
REMARK  status: ('A' for Active; 'I' for Inactive)
REMARK    1  A    between atoms: C_1  and  N_2
REMARK    2  A    between atoms: C_6  and  C_8
REMARK    3  A    between atoms: C_8  and  N_9
REMARK    4  A    between atoms: C_10  and  C_11
REMARK    5  A    between atoms: C_17  and  C_18
REMARK                            x       y       z     vdW  Elec       q    Type
REMARK                         _______ _______ _______ _____ _____    ______ ____
ROOT
ATOM      9  N   UNL     1      48.614   7.001  13.385  0.00  0.00    +0.000 N 
ATOM     10  C   UNL     1      48.390   7.983  12.440  0.00  0.00    +0.000 A 
ATOM     14  C   UNL     1      47.391   7.543  11.595  0.00  0.00    +0.000 A 
ATOM     15  C   UNL     1      46.910   6.312  12.094  0.00  0.00    +0.000 A 
ATOM     16  C   UNL     1      45.854   5.451  11.741  0.00  0.00    +0.000 A 
ATOM     17  C   UNL     1      45.649   4.317  12.527  0.00  0.00    +0.000 A 
ATOM     21  C   UNL     1      46.521   4.092  13.594  0.00  0.00    +0.000 A 
ATOM     22  N   UNL     1      47.558   4.890  13.975  0.00  0.00    +0.000 NA
ATOM     23  C   UNL     1      47.697   5.983  13.194  0.00  0.00    +0.000 A 
ENDROOT
BRANCH  17  18
ATOM     18  C   UNL     1      44.541   3.359  12.308  0.00  0.00    +0.000 C 
ATOM     19  N   UNL     1      44.491   2.658  11.132  0.00  0.00    +0.000 N 
ATOM     20  O   UNL     1      43.662   3.197  13.147  0.00  0.00    +0.000 OA
ATOM     26  H   UNL     1      45.160   2.732  10.381  0.00  0.00    +0.000 HD
ATOM     27  H   UNL     1      43.711   2.024  11.010  0.00  0.00    +0.000 HD
ENDBRANCH  17  18
BRANCH  10  11
ATOM     11  C   UNL     1      49.092   9.333  12.334  0.00  0.00    +0.000 C 
ATOM     12  C   UNL     1      48.387  10.566  12.874  0.00  0.00    +0.000 C 
ATOM     13  C   UNL     1      48.506  10.374  11.402  0.00  0.00    +0.000 C 
ENDBRANCH  10  11
BRANCH   9   8
ATOM      8  C   UNL     1      49.479   7.094  14.561  0.00  0.00    +0.000 C 
BRANCH   8   6
ATOM      1  C   UNL     1      48.741   4.585  20.617  0.00  0.00    +0.000 C 
ATOM      2  N   UNL     1      49.197   5.440  19.520  0.00  0.00    +0.000 NA
ATOM      3  C   UNL     1      49.149   4.722  18.234  0.00  0.00    +0.000 C 
ATOM      4  C   UNL     1      49.632   5.600  17.058  0.00  0.00    +0.000 C 
ATOM      5  N   UNL     1      48.938   6.893  16.985  0.00  0.00    +0.000 N 
ATOM      6  C   UNL     1      48.848   7.678  15.820  0.00  0.00    +0.000 C 
ATOM      7  O   UNL     1      48.299   8.780  15.837  0.00  0.00    +0.000 OA
ATOM     24  C   UNL     1      48.804   7.582  18.276  0.00  0.00    +0.000 C 
ATOM     25  C   UNL     1      48.365   6.657  19.428  0.00  0.00    +0.000 C 
ENDBRANCH   8   6
ENDBRANCH   9   8
TORSDOF 4
ENDMDL
MODEL 4
REMARK VINA RESULT:    -6.799      5.629      8.497
REMARK INTER + INTRA:          -8.175
REMARK INTER:                  -7.525
REMARK INTRA:                  -0.650
REMARK UNBOUND:                 0.214
REMARK  Name = 
REMARK  5 active torsions:
REMARK  status: ('A' for Active; 'I' for Inactive)
REMARK    1  A    between atoms: C_1  and  N_2
REMARK    2  A    between atoms: C_6  and  C_8
REMARK    3  A    between atoms: C_8  and  N_9
REMARK    4  A    between atoms: C_10  and  C_11
REMARK    5  A    between atoms: C_17  and  C_18
REMARK                            x       y       z     vdW  Elec       q    Type
REMARK                         _______ _______ _______ _____ _____    ______ ____
ROOT
ATOM      9  N   UNL     1      48.346   4.882  16.783  0.00  0.00    +0.000 N 
ATOM     10  C   UNL     1      48.834   5.967  17.486  0.00  0.00    +0.000 A 
ATOM     14  C   UNL     1      49.962   5.560  18.171  0.00  0.00    +0.000 A 
ATOM     15  C   UNL     1      50.241   4.226  17.796  0.00  0.00    +0.000 A 
ATOM     16  C   UNL     1      51.288   3.326  18.064  0.00  0.00    +0.000 A 
ATOM     17  C   UNL     1      51.242   2.072  17.453  0.00  0.00    +0.000 A 
ATOM     21  C   UNL     1      50.146   1.779  16.639  0.00  0.00    +0.000 A 
ATOM     22  N   UNL     1      49.106   2.612  16.350  0.00  0.00    +0.000 NA
ATOM     23  C   UNL     1      49.213   3.817  16.950  0.00  0.00    +0.000 A 
ENDROOT
BRANCH  17  18
ATOM     18  C   UNL     1      52.305   1.052  17.598  0.00  0.00    +0.000 C 
ATOM     19  N   UNL     1      52.061  -0.059  18.361  0.00  0.00    +0.000 N 
ATOM     20  O   UNL     1      53.402   1.192  17.066  0.00  0.00    +0.000 OA
ATOM     26  H   UNL     1      51.199  -0.256  18.845  0.00  0.00    +0.000 HD
ATOM     27  H   UNL     1      52.817  -0.728  18.451  0.00  0.00    +0.000 HD
ENDBRANCH  17  18
BRANCH  10  11
ATOM     11  C   UNL     1      48.263   7.381  17.506  0.00  0.00    +0.000 C 
ATOM     12  C   UNL     1      48.853   8.419  16.566  0.00  0.00    +0.000 C 
ATOM     13  C   UNL     1      49.142   8.500  18.025  0.00  0.00    +0.000 C 
ENDBRANCH  10  11
BRANCH   9   8
ATOM      8  C   UNL     1      47.254   4.885  15.810  0.00  0.00    +0.000 C 
BRANCH   8   6
ATOM      1  C   UNL     1      43.913   4.620  10.129  0.00  0.00    +0.000 C 
ATOM      2  N   UNL     1      44.554   5.150  11.332  0.00  0.00    +0.000 NA
ATOM      3  C   UNL     1      44.609   4.131  12.396  0.00  0.00    +0.000 C 
ATOM      4  C   UNL     1      45.274   4.667  13.683  0.00  0.00    +0.000 C 
ATOM      5  N   UNL     1      46.593   5.268  13.438  0.00  0.00    +0.000 N 
ATOM      6  C   UNL     1      47.585   5.427  14.424  0.00  0.00    +0.000 C 
ATOM      7  O   UNL     1      48.650   5.989  14.169  0.00  0.00    +0.000 OA
ATOM     24  C   UNL     1      46.642   6.168  12.278  0.00  0.00    +0.000 C 
ATOM     25  C   UNL     1      45.925   5.612  11.032  0.00  0.00    +0.000 C 
ENDBRANCH   8   6
ENDBRANCH   9   8
TORSDOF 4
ENDMDL
MODEL 5
REMARK VINA RESULT:    -6.785      4.136      6.485
REMARK INTER + INTRA:          -8.157
REMARK INTER:                  -7.551
REMARK INTRA:                  -0.606
REMARK UNBOUND:                 0.214
REMARK  Name = 
REMARK  5 active torsions:
REMARK  status: ('A' for Active; 'I' for Inactive)
REMARK    1  A    between atoms: C_1  and  N_2
REMARK    2  A    between atoms: C_6  and  C_8
REMARK    3  A    between atoms: C_8  and  N_9
REMARK    4  A    between atoms: C_10  and  C_11
REMARK    5  A    between atoms: C_17  and  C_18
REMARK                            x       y       z     vdW  Elec       q    Type
REMARK                         _______ _______ _______ _____ _____    ______ ____
ROOT
ATOM      9  N   UNL     1      46.325   5.602  13.187  0.00  0.00    +0.000 N 
ATOM     10  C   UNL     1      45.701   5.580  11.955  0.00  0.00    +0.000 A 
ATOM     14  C   UNL     1      46.390   6.428  11.111  0.00  0.00    +0.000 A 
ATOM     15  C   UNL     1      47.529   6.898  11.802  0.00  0.00    +0.000 A 
ATOM     16  C   UNL     1      48.642   7.683  11.448  0.00  0.00    +0.000 A 
ATOM     17  C   UNL     1      49.622   7.899  12.418  0.00  0.00    +0.000 A 
ATOM     21  C   UNL     1      49.423   7.348  13.685  0.00  0.00    +0.000 A 
ATOM     22  N   UNL     1      48.365   6.585  14.080  0.00  0.00    +0.000 NA
ATOM     23  C   UNL     1      47.459   6.390  13.097  0.00  0.00    +0.000 A 
ENDROOT
BRANCH  17  18
ATOM     18  C   UNL     1      50.871   8.653  12.165  0.00  0.00    +0.000 C 
ATOM     19  N   UNL     1      52.069   7.990  12.207  0.00  0.00    +0.000 N 
ATOM     20  O   UNL     1      50.854   9.858  11.939  0.00  0.00    +0.000 OA
ATOM     26  H   UNL     1      52.184   7.006  12.396  0.00  0.00    +0.000 HD
ATOM     27  H   UNL     1      52.903   8.541  12.046  0.00  0.00    +0.000 HD
ENDBRANCH  17  18
BRANCH  10  11
ATOM     11  C   UNL     1      44.477   4.760  11.561  0.00  0.00    +0.000 C 
ATOM     12  C   UNL     1      44.680   3.331  11.086  0.00  0.00    +0.000 C 
ATOM     13  C   UNL     1      44.306   4.385  10.103  0.00  0.00    +0.000 C 
ENDBRANCH  10  11
BRANCH   9   8
ATOM      8  C   UNL     1      46.027   4.752  14.340  0.00  0.00    +0.000 C 
BRANCH   8   6
ATOM      1  C   UNL     1      49.676   4.283  19.815  0.00  0.00    +0.000 C 
ATOM      2  N   UNL     1      48.694   3.968  18.776  0.00  0.00    +0.000 NA
ATOM      3  C   UNL     1      48.212   5.194  18.115  0.00  0.00    +0.000 C 
ATOM      4  C   UNL     1      47.168   4.893  17.017  0.00  0.00    +0.000 C 
ATOM      5  N   UNL     1      47.633   3.897  16.042  0.00  0.00    +0.000 N 
ATOM      6  C   UNL     1      47.109   3.757  14.742  0.00  0.00    +0.000 C 
ATOM      7  O   UNL     1      47.504   2.866  13.991  0.00  0.00    +0.000 OA
ATOM     24  C   UNL     1      48.281   2.721  16.640  0.00  0.00    +0.000 C 
ATOM     25  C   UNL     1      49.280   3.068  17.761  0.00  0.00    +0.000 C 
ENDBRANCH   8   6
ENDBRANCH   9   8
TORSDOF 4
ENDMDL
MODEL 6
REMARK VINA RESULT:    -6.470      4.117      8.772
REMARK INTER + INTRA:          -7.769
REMARK INTER:                  -7.068
REMARK INTRA:                  -0.701
REMARK UNBOUND:                 0.214
REMARK  Name = 
REMARK  5 active torsions:
REMARK  status: ('A' for Active; 'I' for Inactive)
REMARK    1  A    between atoms: C_1  and  N_2
REMARK    2  A    between atoms: C_6  and  C_8
REMARK    3  A    between atoms: C_8  and  N_9
REMARK    4  A    between atoms: C_10  and  C_11
REMARK    5  A    between atoms: C_17  and  C_18
REMARK                            x       y       z     vdW  Elec       q    Type
REMARK                         _______ _______ _______ _____ _____    ______ ____
ROOT
ATOM      9  N   UNL     1      48.585   7.250  14.794  0.00  0.00    +0.000 N 
ATOM     10  C   UNL     1      48.899   8.539  15.178  0.00  0.00    +0.000 A 
ATOM     14  C   UNL     1      49.010   8.559  16.554  0.00  0.00    +0.000 A 
ATOM     15  C   UNL     1      48.872   7.233  17.021  0.00  0.00    +0.000 A 
ATOM     16  C   UNL     1      48.995   6.613  18.279  0.00  0.00    +0.000 A 
ATOM     17  C   UNL     1      48.834   5.228  18.342  0.00  0.00    +0.000 A 
ATOM     21  C   UNL     1      48.533   4.550  17.159  0.00  0.00    +0.000 A 
ATOM     22  N   UNL     1      48.401   5.100  15.920  0.00  0.00    +0.000 NA
ATOM     23  C   UNL     1      48.588   6.438  15.914  0.00  0.00    +0.000 A 
ENDROOT
BRANCH  17  18
ATOM     18  C   UNL     1      48.995   4.442  19.585  0.00  0.00    +0.000 C 
ATOM     19  N   UNL     1      48.331   3.250  19.710  0.00  0.00    +0.000 N 
ATOM     20  O   UNL     1      49.693   4.845  20.510  0.00  0.00    +0.000 OA
ATOM     26  H   UNL     1      47.728   2.844  19.011  0.00  0.00    +0.000 HD
ATOM     27  H   UNL     1      48.452   2.747  20.580  0.00  0.00    +0.000 HD
ENDBRANCH  17  18
BRANCH  10  11
ATOM     11  C   UNL     1      49.111   9.743  14.267  0.00  0.00    +0.000 C 
ATOM     12  C   UNL     1      50.482   9.956  13.648  0.00  0.00    +0.000 C 
ATOM     13  C   UNL     1      50.025  10.852  14.747  0.00  0.00    +0.000 C 
ENDBRANCH  10  11
BRANCH   9   8
ATOM      8  C   UNL     1      48.513   6.733  13.427  0.00  0.00    +0.000 C 
BRANCH   8   6
ATOM      1  C   UNL     1      43.389   2.892  11.844  0.00  0.00    +0.000 C 
ATOM      2  N   UNL     1      44.181   3.956  12.462  0.00  0.00    +0.000 NA
ATOM      3  C   UNL     1      45.600   3.573  12.557  0.00  0.00    +0.000 C 
ATOM      4  C   UNL     1      46.460   4.676  13.214  0.00  0.00    +0.000 C 
ATOM      5  N   UNL     1      46.293   5.988  12.574  0.00  0.00    +0.000 N 
ATOM      6  C   UNL     1      47.232   7.035  12.658  0.00  0.00    +0.000 C 
ATOM      7  O   UNL     1      47.009   8.131  12.144  0.00  0.00    +0.000 OA
ATOM     24  C   UNL     1      44.897   6.354  12.297  0.00  0.00    +0.000 C 
ATOM     25  C   UNL     1      44.067   5.208  11.685  0.00  0.00    +0.000 C 
ENDBRANCH   8   6
ENDBRANCH   9   8
TORSDOF 4
ENDMDL
MODEL 7
REMARK VINA RESULT:    -6.468      3.702      6.231
REMARK INTER + INTRA:          -7.766
REMARK INTER:                  -7.277
REMARK INTRA:                  -0.489
REMARK UNBOUND:                 0.214
REMARK  Name = 
REMARK  5 active torsions:
REMARK  status: ('A' for Active; 'I' for Inactive)
REMARK    1  A    between atoms: C_1  and  N_2
REMARK    2  A    between atoms: C_6  and  C_8
REMARK    3  A    between atoms: C_8  and  N_9
REMARK    4  A    between atoms: C_10  and  C_11
REMARK    5  A    between atoms: C_17  and  C_18
REMARK                            x       y       z     vdW  Elec       q    Type
REMARK                         _______ _______ _______ _____ _____    ______ ____
ROOT
ATOM      9  N   UNL     1      46.286   5.583  13.187  0.00  0.00    +0.000 N 
ATOM     10  C   UNL     1      45.234   4.948  12.556  0.00  0.00    +0.000 A 
ATOM     14  C   UNL     1      44.422   5.917  11.999  0.00  0.00    +0.000 A 
ATOM     15  C   UNL     1      45.045   7.170  12.195  0.00  0.00    +0.000 A 
ATOM     16  C   UNL     1      44.768   8.484  11.772  0.00  0.00    +0.000 A 
ATOM     17  C   UNL     1      45.670   9.486  12.130  0.00  0.00    +0.000 A 
ATOM     21  C   UNL     1      46.773   9.129  12.909  0.00  0.00    +0.000 A 
ATOM     22  N   UNL     1      47.084   7.876  13.345  0.00  0.00    +0.000 NA
ATOM     23  C   UNL     1      46.190   6.943  12.952  0.00  0.00    +0.000 A 
ENDROOT
BRANCH  17  18
ATOM     18  C   UNL     1      45.536  10.898  11.704  0.00  0.00    +0.000 C 
ATOM     19  N   UNL     1      44.319  11.516  11.824  0.00  0.00    +0.000 N 
ATOM     20  O   UNL     1      46.484  11.515  11.230  0.00  0.00    +0.000 OA
ATOM     26  H   UNL     1      43.482  11.088  12.189  0.00  0.00    +0.000 HD
ATOM     27  H   UNL     1      44.260  12.476  11.507  0.00  0.00    +0.000 HD
ENDBRANCH  17  18
BRANCH  10  11
ATOM     11  C   UNL     1      44.994   3.445  12.457  0.00  0.00    +0.000 C 
ATOM     12  C   UNL     1      44.646   2.850  11.104  0.00  0.00    +0.000 C 
ATOM     13  C   UNL     1      43.591   2.963  12.150  0.00  0.00    +0.000 C 
ENDBRANCH  10  11
BRANCH   9   8
ATOM      8  C   UNL     1      47.462   4.951  13.786  0.00  0.00    +0.000 C 
BRANCH   8   6
ATOM      1  C   UNL     1      50.768   7.306  18.986  0.00  0.00    +0.000 C 
ATOM      2  N   UNL     1      49.672   7.010  18.063  0.00  0.00    +0.000 NA
ATOM      3  C   UNL     1      50.176   6.795  16.695  0.00  0.00    +0.000 C 
ATOM      4  C   UNL     1      49.038   6.488  15.695  0.00  0.00    +0.000 C 
ATOM      5  N   UNL     1      48.173   5.385  16.135  0.00  0.00    +0.000 N 
ATOM      6  C   UNL     1      47.367   4.619  15.271  0.00  0.00    +0.000 C 
ATOM      7  O   UNL     1      46.621   3.743  15.708  0.00  0.00    +0.000 OA
ATOM     24  C   UNL     1      47.774   5.454  17.548  0.00  0.00    +0.000 C 
ATOM     25  C   UNL     1      48.932   5.809  18.501  0.00  0.00    +0.000 C 
ENDBRANCH   8   6
ENDBRANCH   9   8
TORSDOF 4
ENDMDL
MODEL 8
REMARK VINA RESULT:    -6.399      4.233      6.008
REMARK INTER + INTRA:          -7.682
REMARK INTER:                  -7.217
REMARK INTRA:                  -0.465
REMARK UNBOUND:                 0.214
REMARK  Name = 
REMARK  5 active torsions:
REMARK  status: ('A' for Active; 'I' for Inactive)
REMARK    1  A    between atoms: C_1  and  N_2
REMARK    2  A    between atoms: C_6  and  C_8
REMARK    3  A    between atoms: C_8  and  N_9
REMARK    4  A    between atoms: C_10  and  C_11
REMARK    5  A    between atoms: C_17  and  C_18
REMARK                            x       y       z     vdW  Elec       q    Type
REMARK                         _______ _______ _______ _____ _____    ______ ____
ROOT
ATOM      9  N   UNL     1      47.988   5.920  15.002  0.00  0.00    +0.000 N 
ATOM     10  C   UNL     1      47.600   4.773  15.666  0.00  0.00    +0.000 A 
ATOM     14  C   UNL     1      46.651   4.133  14.895  0.00  0.00    +0.000 A 
ATOM     15  C   UNL     1      46.530   4.840  13.678  0.00  0.00    +0.000 A 
ATOM     16  C   UNL     1      45.825   4.626  12.480  0.00  0.00    +0.000 A 
ATOM     17  C   UNL     1      46.002   5.546  11.446  0.00  0.00    +0.000 A 
ATOM     21  C   UNL     1      46.843   6.636  11.676  0.00  0.00    +0.000 A 
ATOM     22  N   UNL     1      47.545   6.892  12.816  0.00  0.00    +0.000 NA
ATOM     23  C   UNL     1      47.353   5.959  13.773  0.00  0.00    +0.000 A 
ENDROOT
BRANCH  17  18
ATOM     18  C   UNL     1      45.371   5.411  10.113  0.00  0.00    +0.000 C 
ATOM     19  N   UNL     1      44.025   5.167  10.036  0.00  0.00    +0.000 N 
ATOM     20  O   UNL     1      46.030   5.495   9.083  0.00  0.00    +0.000 OA
ATOM     26  H   UNL     1      43.404   5.071  10.825  0.00  0.00    +0.000 HD
ATOM     27  H   UNL     1      43.631   5.065   9.109  0.00  0.00    +0.000 HD
ENDBRANCH  17  18
BRANCH  10  11
ATOM     11  C   UNL     1      48.125   4.265  17.006  0.00  0.00    +0.000 C 
ATOM     12  C   UNL     1      48.954   2.993  17.029  0.00  0.00    +0.000 C 
ATOM     13  C   UNL     1      47.559   2.970  17.551  0.00  0.00    +0.000 C 
ENDBRANCH  10  11
BRANCH   9   8
ATOM      8  C   UNL     1      49.072   6.829  15.376  0.00  0.00    +0.000 C 
BRANCH   8   6
ATOM      1  C   UNL     1      47.037   9.508  21.050  0.00  0.00    +0.000 C 
ATOM      2  N   UNL     1      47.863   9.209  19.880  0.00  0.00    +0.000 NA
ATOM      3  C   UNL     1      47.597   7.850  19.377  0.00  0.00    +0.000 C 
ATOM      4  C   UNL     1      48.461   7.504  18.144  0.00  0.00    +0.000 C 
ATOM      5  N   UNL     1      48.362   8.508  17.076  0.00  0.00    +0.000 N 
ATOM      6  C   UNL     1      48.666   8.257  15.724  0.00  0.00    +0.000 C 
ATOM      7  O   UNL     1      48.616   9.156  14.884  0.00  0.00    +0.000 OA
ATOM     24  C   UNL     1      48.451   9.899  17.541  0.00  0.00    +0.000 C 
ATOM     25  C   UNL     1      47.608  10.185  18.800  0.00  0.00    +0.000 C 
ENDBRANCH   8   6
ENDBRANCH   9   8
TORSDOF 4
ENDMDL
MODEL 9
REMARK VINA RESULT:    -6.305      3.587      6.192
REMARK INTER + INTRA:          -7.566
REMARK INTER:                  -6.900
REMARK INTRA:                  -0.666
REMARK UNBOUND:                 0.214
REMARK  Name = 
REMARK  5 active torsions:
REMARK  status: ('A' for Active; 'I' for Inactive)
REMARK    1  A    between atoms: C_1  and  N_2
REMARK    2  A    between atoms: C_6  and  C_8
REMARK    3  A    between atoms: C_8  and  N_9
REMARK    4  A    between atoms: C_10  and  C_11
REMARK    5  A    between atoms: C_17  and  C_18
REMARK                            x       y       z     vdW  Elec       q    Type
REMARK                         _______ _______ _______ _____ _____    ______ ____
ROOT
ATOM      9  N   UNL     1      47.921   7.166  13.530  0.00  0.00    +0.000 N 
ATOM     10  C   UNL     1      48.155   7.931  12.404  0.00  0.00    +0.000 A 
ATOM     14  C   UNL     1      47.472   7.360  11.349  0.00  0.00    +0.000 A 
ATOM     15  C   UNL     1      46.710   6.283  11.856  0.00  0.00    +0.000 A 
ATOM     16  C   UNL     1      45.754   5.409  11.308  0.00  0.00    +0.000 A 
ATOM     17  C   UNL     1      45.160   4.477  12.160  0.00  0.00    +0.000 A 
ATOM     21  C   UNL     1      45.572   4.451  13.493  0.00  0.00    +0.000 A 
ATOM     22  N   UNL     1      46.493   5.272  14.072  0.00  0.00    +0.000 NA
ATOM     23  C   UNL     1      47.020   6.166  13.209  0.00  0.00    +0.000 A 
ENDROOT
BRANCH  17  18
ATOM     18  C   UNL     1      44.098   3.538  11.732  0.00  0.00    +0.000 C 
ATOM     19  N   UNL     1      43.812   2.453  12.518  0.00  0.00    +0.000 N 
ATOM     20  O   UNL     1      43.486   3.702  10.682  0.00  0.00    +0.000 OA
ATOM     26  H   UNL     1      44.268   2.229  13.389  0.00  0.00    +0.000 HD
ATOM     27  H   UNL     1      43.092   1.824  12.185  0.00  0.00    +0.000 HD
ENDBRANCH  17  18
BRANCH  10  11
ATOM     11  C   UNL     1      48.998   9.199  12.315  0.00  0.00    +0.000 C 
ATOM     12  C   UNL     1      48.401  10.507  12.806  0.00  0.00    +0.000 C 
ATOM     13  C   UNL     1      48.566  10.278  11.343  0.00  0.00    +0.000 C 
ENDBRANCH  10  11
BRANCH   9   8
ATOM      8  C   UNL     1      48.325   7.473  14.902  0.00  0.00    +0.000 C 
BRANCH   8   6
ATOM      1  C   UNL     1      54.878   8.136  15.252  0.00  0.00    +0.000 C 
ATOM      2  N   UNL     1      53.475   8.038  15.655  0.00  0.00    +0.000 NA
ATOM      3  C   UNL     1      52.581   8.472  14.567  0.00  0.00    +0.000 C 
ATOM      4  C   UNL     1      51.091   8.387  14.967  0.00  0.00    +0.000 C 
ATOM      5  N   UNL     1      50.713   7.065  15.487  0.00  0.00    +0.000 N 
ATOM      6  C   UNL     1      49.394   6.572  15.509  0.00  0.00    +0.000 C 
ATOM      7  O   UNL     1      49.134   5.478  16.009  0.00  0.00    +0.000 OA
ATOM     24  C   UNL     1      51.662   6.501  16.456  0.00  0.00    +0.000 C 
ATOM     25  C   UNL     1      53.138   6.651  16.036  0.00  0.00    +0.000 C 
ENDBRANCH   8   6
ENDBRANCH   9   8
TORSDOF 4
ENDMDL
