MODEL 1
REMARK VINA RESULT:    -7.300      0.000      0.000
REMARK INTER + INTRA:         -12.758
REMARK INTER:                 -11.781
REMARK INTRA:                  -0.977
REMARK UNBOUND:                -0.977
REMARK  Name = 
REMARK  11 active torsions:
REMARK  status: ('A' for Active; 'I' for Inactive)
REMARK    1  A    between atoms: C_2  and  C_19
REMARK    2  A    between atoms: N_3  and  C_4
REMARK    3  A    between atoms: C_4  and  C_5
REMARK    4  A    between atoms: C_8  and  C_9
REMARK    5  A    between atoms: C_9  and  N_10
REMARK    6  A    between atoms: N_10  and  C_11
REMARK    7  A    between atoms: C_11  and  C_12
REMARK    8  A    between atoms: C_12  and  O_13
REMARK    9  A    between atoms: O_13  and  C_14
REMARK   10  A    between atoms: C_14  and  C_15
REMARK   11  A    between atoms: C_15  and  O_16
REMARK                            x       y       z     vdW  Elec       q    Type
REMARK                         _______ _______ _______ _____ _____    ______ ____
ROOT
ATOM      4  C   UNL     1      46.768   7.959  12.999  0.00  0.00    +0.000 C 
ENDROOT
BRANCH   4   5
ATOM      5  C   UNL     1      45.990   6.865  12.314  0.00  0.00    +0.000 A 
ATOM      6  C   UNL     1      46.337   6.446  11.023  0.00  0.00    +0.000 A 
ATOM      7  C   UNL     1      45.625   5.424  10.388  0.00  0.00    +0.000 A 
ATOM      8  C   UNL     1      44.540   4.803  11.025  0.00  0.00    +0.000 A 
ATOM     17  C   UNL     1      44.169   5.251  12.300  0.00  0.00    +0.000 A 
ATOM     18  C   UNL     1      44.882   6.275  12.935  0.00  0.00    +0.000 A 
BRANCH   8   9
ATOM      9  C   UNL     1      43.776   3.688  10.342  0.00  0.00    +0.000 C 
BRANCH   9  10
ATOM     10  N   UNL     1      44.515   2.425  10.400  0.00  0.00    +0.000 NA
ATOM     30  H   UNL     1      44.041   1.807  11.059  0.00  0.00    +0.000 HD
BRANCH  10  11
ATOM     11  C   UNL     1      44.590   1.784   9.084  0.00  0.00    +0.000 C 
BRANCH  11  12
ATOM     12  C   UNL     1      45.969   2.008   8.448  0.00  0.00    +0.000 C 
BRANCH  12  13
ATOM     13  O   UNL     1      45.956   3.196   7.645  0.00  0.00    +0.000 OA
BRANCH  13  14
ATOM     14  C   UNL     1      46.749   3.009   6.462  0.00  0.00    +0.000 C 
BRANCH  14  15
ATOM     15  C   UNL     1      47.764   1.896   6.706  0.00  0.00    +0.000 C 
BRANCH  15  16
ATOM     16  O   UNL     1      48.641   1.777   5.589  0.00  0.00    +0.000 OA
ATOM     31  H   UNL     1      48.112   2.053   4.815  0.00  0.00    +0.000 HD
ENDBRANCH  15  16
ENDBRANCH  14  15
ENDBRANCH  13  14
ENDBRANCH  12  13
ENDBRANCH  11  12
ENDBRANCH  10  11
ENDBRANCH   9  10
ENDBRANCH   8   9
ENDBRANCH   4   5
BRANCH   4   3
ATOM      1  O   UNL     1      48.930   6.237  13.414  0.00  0.00    +0.000 OA
ATOM      2  C   UNL     1      48.371   6.728  14.392  0.00  0.00    +0.000 C 
ATOM      3  N   UNL     1      47.255   7.518  14.279  0.00  0.00    +0.000 N 
ATOM     29  H   UNL     1      46.957   8.065  15.080  0.00  0.00    +0.000 HD
BRANCH   2  19
ATOM     19  C   UNL     1      48.830   6.456  15.759  0.00  0.00    +0.000 A 
ATOM     20  C   UNL     1      49.665   7.356  16.409  0.00  0.00    +0.000 A 
ATOM     21  S   UNL     1      50.121   6.855  17.975  0.00  0.00    +0.000 S 
ATOM     22  C   UNL     1      49.176   5.444  17.858  0.00  0.00    +0.000 A 
ATOM     23  N   UNL     1      49.103   4.560  18.891  0.00  0.00    +0.000 NA
ATOM     24  C   UNL     1      48.324   3.553  18.676  0.00  0.00    +0.000 A 
ATOM     25  N   UNL     1      47.613   3.344  17.523  0.00  0.00    +0.000 N 
ATOM     26  C   UNL     1      47.681   4.193  16.446  0.00  0.00    +0.000 A 
ATOM     27  O   UNL     1      47.067   3.950  15.411  0.00  0.00    +0.000 OA
ATOM     28  C   UNL     1      48.535   5.347  16.638  0.00  0.00    +0.000 A 
ATOM     32  H   UNL     1      47.029   2.530  17.413  0.00  0.00    +0.000 HD
ENDBRANCH   2  19
ENDBRANCH   4   3
TORSDOF 11
ENDMDL
MODEL 2
REMARK VINA RESULT:    -6.868      2.122      2.548
REMARK INTER + INTRA:         -12.061
REMARK INTER:                 -11.141
REMARK INTRA:                  -0.920
REMARK UNBOUND:                -0.977
REMARK  Name = 
REMARK  11 active torsions:
REMARK  status: ('A' for Active; 'I' for Inactive)
REMARK    1  A    between atoms: C_2  and  C_19
REMARK    2  A    between atoms: N_3  and  C_4
REMARK    3  A    between atoms: C_4  and  C_5
REMARK    4  A    between atoms: C_8  and  C_9
REMARK    5  A    between atoms: C_9  and  N_10
REMARK    6  A    between atoms: N_10  and  C_11
REMARK    7  A    between atoms: C_11  and  C_12
REMARK    8  A    between atoms: C_12  and  O_13
REMARK    9  A    between atoms: O_13  and  C_14
REMARK   10  A    between atoms: C_14  and  C_15
REMARK   11  A    between atoms: C_15  and  O_16
REMARK                            x       y       z     vdW  Elec       q    Type
REMARK                         _______ _______ _______ _____ _____    ______ ____
ROOT
ATOM      4  C   UNL     1      47.906   6.968  13.793  0.00  0.00    +0.000 C 
ENDROOT
BRANCH   4   5
ATOM      5  C   UNL     1      46.957   6.194  12.914  0.00  0.00    +0.000 A 
ATOM      6  C   UNL     1      46.595   6.686  11.653  0.00  0.00    +0.000 A 
ATOM      7  C   UNL     1      45.724   5.966  10.830  0.00  0.00    +0.000 A 
ATOM      8  C   UNL     1      45.184   4.742  11.253  0.00  0.00    +0.000 A 
ATOM     17  C   UNL     1      45.515   4.272  12.531  0.00  0.00    +0.000 A 
ATOM     18  C   UNL     1      46.387   4.993  13.355  0.00  0.00    +0.000 A 
BRANCH   8   9
ATOM      9  C   UNL     1      44.249   3.957  10.356  0.00  0.00    +0.000 C 
BRANCH   9  10
ATOM     10  N   UNL     1      44.670   2.560  10.245  0.00  0.00    +0.000 NA
ATOM     30  H   UNL     1      43.851   1.966  10.378  0.00  0.00    +0.000 HD
BRANCH  10  11
ATOM     11  C   UNL     1      45.276   2.282   8.938  0.00  0.00    +0.000 C 
BRANCH  11  12
ATOM     12  C   UNL     1      44.902   3.372   7.923  0.00  0.00    +0.000 C 
BRANCH  12  13
ATOM     13  O   UNL     1      46.082   3.890   7.297  0.00  0.00    +0.000 OA
BRANCH  13  14
ATOM     14  C   UNL     1      47.077   2.862   7.175  0.00  0.00    +0.000 C 
BRANCH  14  15
ATOM     15  C   UNL     1      47.321   2.570   5.697  0.00  0.00    +0.000 C 
BRANCH  15  16
ATOM     16  O   UNL     1      48.559   1.884   5.530  0.00  0.00    +0.000 OA
ATOM     31  H   UNL     1      48.643   1.308   6.315  0.00  0.00    +0.000 HD
ENDBRANCH  15  16
ENDBRANCH  14  15
ENDBRANCH  13  14
ENDBRANCH  12  13
ENDBRANCH  11  12
ENDBRANCH  10  11
ENDBRANCH   9  10
ENDBRANCH   8   9
ENDBRANCH   4   5
BRANCH   4   3
ATOM      1  O   UNL     1      50.086   6.495  15.477  0.00  0.00    +0.000 OA
ATOM      2  C   UNL     1      48.951   6.377  15.934  0.00  0.00    +0.000 C 
ATOM      3  N   UNL     1      47.829   6.513  15.157  0.00  0.00    +0.000 N 
ATOM     29  H   UNL     1      46.927   6.615  15.609  0.00  0.00    +0.000 HD
BRANCH   2  19
ATOM     19  C   UNL     1      48.719   6.026  17.340  0.00  0.00    +0.000 A 
ATOM     20  C   UNL     1      48.979   4.739  17.792  0.00  0.00    +0.000 A 
ATOM     21  S   UNL     1      48.618   4.509  19.444  0.00  0.00    +0.000 S 
ATOM     22  C   UNL     1      48.152   6.136  19.624  0.00  0.00    +0.000 A 
ATOM     23  N   UNL     1      47.742   6.619  20.829  0.00  0.00    +0.000 NA
ATOM     24  C   UNL     1      47.450   7.877  20.827  0.00  0.00    +0.000 A 
ATOM     25  N   UNL     1      47.527   8.698  19.731  0.00  0.00    +0.000 N 
ATOM     26  C   UNL     1      47.906   8.245  18.491  0.00  0.00    +0.000 A 
ATOM     27  O   UNL     1      47.917   8.998  17.521  0.00  0.00    +0.000 OA
ATOM     28  C   UNL     1      48.254   6.841  18.440  0.00  0.00    +0.000 A 
ATOM     32  H   UNL     1      47.274   9.672  19.793  0.00  0.00    +0.000 HD
ENDBRANCH   2  19
ENDBRANCH   4   3
TORSDOF 11
ENDMDL
MODEL 3
REMARK VINA RESULT:    -6.656      4.442      9.409
REMARK INTER + INTRA:         -11.718
REMARK INTER:                 -10.564
REMARK INTRA:                  -1.155
REMARK UNBOUND:                -0.977
REMARK  Name = 
REMARK  11 active torsions:
REMARK  status: ('A' for Active; 'I' for Inactive)
REMARK    1  A    between atoms: C_2  and  C_19
REMARK    2  A    between atoms: N_3  and  C_4
REMARK    3  A    between atoms: C_4  and  C_5
REMARK    4  A    between atoms: C_8  and  C_9
REMARK    5  A    between atoms: C_9  and  N_10
REMARK    6  A    between atoms: N_10  and  C_11
REMARK    7  A    between atoms: C_11  and  C_12
REMARK    8  A    between atoms: C_12  and  O_13
REMARK    9  A    between atoms: O_13  and  C_14
REMARK   10  A    between atoms: C_14  and  C_15
REMARK   11  A    between atoms: C_15  and  O_16
REMARK                            x       y       z     vdW  Elec       q    Type
REMARK                         _______ _______ _______ _____ _____    ______ ____
ROOT
ATOM      4  C   UNL     1      47.186   3.373  16.799  0.00  0.00    +0.000 C 
ENDROOT
BRANCH   4   5
ATOM      5  C   UNL     1      48.661   3.376  17.107  0.00  0.00    +0.000 A 
ATOM      6  C   UNL     1      49.313   4.566  17.454  0.00  0.00    +0.000 A 
ATOM      7  C   UNL     1      50.680   4.572  17.751  0.00  0.00    +0.000 A 
ATOM      8  C   UNL     1      51.430   3.388  17.696  0.00  0.00    +0.000 A 
ATOM     17  C   UNL     1      50.786   2.205  17.308  0.00  0.00    +0.000 A 
ATOM     18  C   UNL     1      49.418   2.200  17.011  0.00  0.00    +0.000 A 
BRANCH   8   9
ATOM      9  C   UNL     1      52.908   3.393  18.028  0.00  0.00    +0.000 C 
BRANCH   9  10
ATOM     10  N   UNL     1      53.203   2.494  19.146  0.00  0.00    +0.000 NA
ATOM     30  H   UNL     1      53.341   1.554  18.773  0.00  0.00    +0.000 HD
BRANCH  10  11
ATOM     11  C   UNL     1      54.402   2.919  19.875  0.00  0.00    +0.000 C 
BRANCH  11  12
ATOM     12  C   UNL     1      55.407   1.764  19.988  0.00  0.00    +0.000 C 
BRANCH  12  13
ATOM     13  O   UNL     1      54.716   0.510  20.045  0.00  0.00    +0.000 OA
BRANCH  13  14
ATOM     14  C   UNL     1      55.308  -0.431  19.135  0.00  0.00    +0.000 C 
BRANCH  14  15
ATOM     15  C   UNL     1      54.266  -0.861  18.107  0.00  0.00    +0.000 C 
BRANCH  15  16
ATOM     16  O   UNL     1      52.969  -0.432  18.514  0.00  0.00    +0.000 OA
ATOM     31  H   UNL     1      52.593  -1.185  19.011  0.00  0.00    +0.000 HD
ENDBRANCH  15  16
ENDBRANCH  14  15
ENDBRANCH  13  14
ENDBRANCH  12  13
ENDBRANCH  11  12
ENDBRANCH  10  11
ENDBRANCH   9  10
ENDBRANCH   8   9
ENDBRANCH   4   5
BRANCH   4   3
ATOM      1  O   UNL     1      47.266   3.056  14.023  0.00  0.00    +0.000 OA
ATOM      2  C   UNL     1      46.858   4.120  14.485  0.00  0.00    +0.000 C 
ATOM      3  N   UNL     1      46.862   4.386  15.830  0.00  0.00    +0.000 N 
ATOM     29  H   UNL     1      46.331   5.178  16.176  0.00  0.00    +0.000 HD
BRANCH   2  19
ATOM     19  C   UNL     1      46.389   5.206  13.616  0.00  0.00    +0.000 A 
ATOM     20  C   UNL     1      47.197   6.310  13.376  0.00  0.00    +0.000 A 
ATOM     21  S   UNL     1      46.470   7.483  12.372  0.00  0.00    +0.000 S 
ATOM     22  C   UNL     1      45.071   6.531  12.182  0.00  0.00    +0.000 A 
ATOM     23  N   UNL     1      44.036   6.954  11.405  0.00  0.00    +0.000 NA
ATOM     24  C   UNL     1      43.055   6.118  11.324  0.00  0.00    +0.000 A 
ATOM     25  N   UNL     1      43.011   4.899  11.950  0.00  0.00    +0.000 N 
ATOM     26  C   UNL     1      44.019   4.448  12.767  0.00  0.00    +0.000 A 
ATOM     27  O   UNL     1      43.924   3.372  13.351  0.00  0.00    +0.000 OA
ATOM     28  C   UNL     1      45.149   5.345  12.885  0.00  0.00    +0.000 A 
ATOM     32  H   UNL     1      42.209   4.295  11.856  0.00  0.00    +0.000 HD
ENDBRANCH   2  19
ENDBRANCH   4   3
TORSDOF 11
ENDMDL
MODEL 4
REMARK VINA RESULT:    -6.639      2.054      2.857
REMARK INTER + INTRA:         -11.692
REMARK INTER:                 -10.067
REMARK INTRA:                  -1.625
REMARK UNBOUND:                -0.977
REMARK  Name = 
REMARK  11 active torsions:
REMARK  status: ('A' for Active; 'I' for Inactive)
REMARK    1  A    between atoms: C_2  and  C_19
REMARK    2  A    between atoms: N_3  and  C_4
REMARK    3  A    between atoms: C_4  and  C_5
REMARK    4  A    between atoms: C_8  and  C_9
REMARK    5  A    between atoms: C_9  and  N_10
REMARK    6  A    between atoms: N_10  and  C_11
REMARK    7  A    between atoms: C_11  and  C_12
REMARK    8  A    between atoms: C_12  and  O_13
REMARK    9  A    between atoms: O_13  and  C_14
REMARK   10  A    between atoms: C_14  and  C_15
REMARK   11  A    between atoms: C_15  and  O_16
REMARK                            x       y       z     vdW  Elec       q    Type
REMARK                         _______ _______ _______ _____ _____    ______ ____
ROOT
ATOM      4  C   UNL     1      48.984   7.962  13.037  0.00  0.00    +0.000 C 
ENDROOT
BRANCH   4   5
ATOM      5  C   UNL     1      47.567   7.780  12.557  0.00  0.00    +0.000 A 
ATOM      6  C   UNL     1      46.578   8.716  12.888  0.00  0.00    +0.000 A 
ATOM      7  C   UNL     1      45.265   8.557  12.435  0.00  0.00    +0.000 A 
ATOM      8  C   UNL     1      44.905   7.450  11.651  0.00  0.00    +0.000 A 
ATOM     17  C   UNL     1      45.886   6.494  11.356  0.00  0.00    +0.000 A 
ATOM     18  C   UNL     1      47.201   6.653  11.809  0.00  0.00    +0.000 A 
BRANCH   8   9
ATOM      9  C   UNL     1      43.486   7.284  11.152  0.00  0.00    +0.000 C 
BRANCH   9  10
ATOM     10  N   UNL     1      43.265   5.939  10.618  0.00  0.00    +0.000 NA
ATOM     30  H   UNL     1      44.166   5.558  10.327  0.00  0.00    +0.000 HD
BRANCH  10  11
ATOM     11  C   UNL     1      42.653   5.056  11.616  0.00  0.00    +0.000 C 
BRANCH  11  12
ATOM     12  C   UNL     1      43.502   3.794  11.819  0.00  0.00    +0.000 C 
BRANCH  12  13
ATOM     13  O   UNL     1      43.453   2.971  10.646  0.00  0.00    +0.000 OA
BRANCH  13  14
ATOM     14  C   UNL     1      44.758   2.867  10.053  0.00  0.00    +0.000 C 
BRANCH  14  15
ATOM     15  C   UNL     1      44.680   3.289   8.589  0.00  0.00    +0.000 C 
BRANCH  15  16
ATOM     16  O   UNL     1      44.928   4.687   8.467  0.00  0.00    +0.000 OA
ATOM     31  H   UNL     1      44.054   5.091   8.305  0.00  0.00    +0.000 HD
ENDBRANCH  15  16
ENDBRANCH  14  15
ENDBRANCH  13  14
ENDBRANCH  12  13
ENDBRANCH  11  12
ENDBRANCH  10  11
ENDBRANCH   9  10
ENDBRANCH   8   9
ENDBRANCH   4   5
BRANCH   4   3
ATOM      1  O   UNL     1      48.691   8.690  15.720  0.00  0.00    +0.000 OA
ATOM      2  C   UNL     1      49.013   7.534  15.454  0.00  0.00    +0.000 C 
ATOM      3  N   UNL     1      49.255   7.116  14.170  0.00  0.00    +0.000 N 
ATOM     29  H   UNL     1      49.310   6.122  13.979  0.00  0.00    +0.000 HD
BRANCH   2  19
ATOM     19  C   UNL     1      49.215   6.529  16.505  0.00  0.00    +0.000 A 
ATOM     20  C   UNL     1      50.120   6.763  17.532  0.00  0.00    +0.000 A 
ATOM     21  S   UNL     1      50.245   5.471  18.639  0.00  0.00    +0.000 S 
ATOM     22  C   UNL     1      49.055   4.577  17.813  0.00  0.00    +0.000 A 
ATOM     23  N   UNL     1      48.662   3.352  18.259  0.00  0.00    +0.000 NA
ATOM     24  C   UNL     1      47.729   2.803  17.555  0.00  0.00    +0.000 A 
ATOM     25  N   UNL     1      47.155   3.363  16.443  0.00  0.00    +0.000 N 
ATOM     26  C   UNL     1      47.543   4.581  15.941  0.00  0.00    +0.000 A 
ATOM     27  O   UNL     1      47.040   5.029  14.915  0.00  0.00    +0.000 OA
ATOM     28  C   UNL     1      48.581   5.245  16.700  0.00  0.00    +0.000 A 
ATOM     32  H   UNL     1      46.437   2.876  15.929  0.00  0.00    +0.000 HD
ENDBRANCH   2  19
ENDBRANCH   4   3
TORSDOF 11
ENDMDL
MODEL 5
REMARK VINA RESULT:    -6.450      2.418      3.034
REMARK INTER + INTRA:         -11.386
REMARK INTER:                 -10.633
REMARK INTRA:                  -0.753
REMARK UNBOUND:                -0.977
REMARK  Name = 
REMARK  11 active torsions:
REMARK  status: ('A' for Active; 'I' for Inactive)
REMARK    1  A    between atoms: C_2  and  C_19
REMARK    2  A    between atoms: N_3  and  C_4
REMARK    3  A    between atoms: C_4  and  C_5
REMARK    4  A    between atoms: C_8  and  C_9
REMARK    5  A    between atoms: C_9  and  N_10
REMARK    6  A    between atoms: N_10  and  C_11
REMARK    7  A    between atoms: C_11  and  C_12
REMARK    8  A    between atoms: C_12  and  O_13
REMARK    9  A    between atoms: O_13  and  C_14
REMARK   10  A    between atoms: C_14  and  C_15
REMARK   11  A    between atoms: C_15  and  O_16
REMARK                            x       y       z     vdW  Elec       q    Type
REMARK                         _______ _______ _______ _____ _____    ______ ____
ROOT
ATOM      4  C   UNL     1      47.253   4.236  14.848  0.00  0.00    +0.000 C 
ENDROOT
BRANCH   4   5
ATOM      5  C   UNL     1      46.342   4.379  13.656  0.00  0.00    +0.000 A 
ATOM      6  C   UNL     1      45.881   3.246  12.974  0.00  0.00    +0.000 A 
ATOM      7  C   UNL     1      45.027   3.374  11.874  0.00  0.00    +0.000 A 
ATOM      8  C   UNL     1      44.624   4.640  11.421  0.00  0.00    +0.000 A 
ATOM     17  C   UNL     1      45.120   5.773  12.080  0.00  0.00    +0.000 A 
ATOM     18  C   UNL     1      45.975   5.645  13.181  0.00  0.00    +0.000 A 
BRANCH   8   9
ATOM      9  C   UNL     1      43.691   4.777  10.237  0.00  0.00    +0.000 C 
BRANCH   9  10
ATOM     10  N   UNL     1      44.107   3.913   9.131  0.00  0.00    +0.000 NA
ATOM     30  H   UNL     1      43.372   3.922   8.423  0.00  0.00    +0.000 HD
BRANCH  10  11
ATOM     11  C   UNL     1      45.370   4.367   8.539  0.00  0.00    +0.000 C 
BRANCH  11  12
ATOM     12  C   UNL     1      45.881   3.353   7.505  0.00  0.00    +0.000 C 
BRANCH  12  13
ATOM     13  O   UNL     1      46.184   2.106   8.144  0.00  0.00    +0.000 OA
BRANCH  13  14
ATOM     14  C   UNL     1      47.090   1.337   7.337  0.00  0.00    +0.000 C 
BRANCH  14  15
ATOM     15  C   UNL     1      48.106   2.274   6.689  0.00  0.00    +0.000 C 
BRANCH  15  16
ATOM     16  O   UNL     1      48.612   1.695   5.488  0.00  0.00    +0.000 OA
ATOM     31  H   UNL     1      47.837   1.603   4.900  0.00  0.00    +0.000 HD
ENDBRANCH  15  16
ENDBRANCH  14  15
ENDBRANCH  13  14
ENDBRANCH  12  13
ENDBRANCH  11  12
ENDBRANCH  10  11
ENDBRANCH   9  10
ENDBRANCH   8   9
ENDBRANCH   4   5
BRANCH   4   3
ATOM      1  O   UNL     1      49.316   4.790  16.651  0.00  0.00    +0.000 OA
ATOM      2  C   UNL     1      48.606   5.716  16.264  0.00  0.00    +0.000 C 
ATOM      3  N   UNL     1      47.525   5.519  15.443  0.00  0.00    +0.000 N 
ATOM     29  H   UNL     1      47.102   6.319  14.987  0.00  0.00    +0.000 HD
BRANCH   2  19
ATOM     19  C   UNL     1      48.837   7.098  16.701  0.00  0.00    +0.000 A 
ATOM     20  C   UNL     1      49.496   7.994  15.869  0.00  0.00    +0.000 A 
ATOM     21  S   UNL     1      49.702   9.541  16.560  0.00  0.00    +0.000 S 
ATOM     22  C   UNL     1      48.871   9.081  17.972  0.00  0.00    +0.000 A 
ATOM     23  N   UNL     1      48.670   9.965  18.988  0.00  0.00    +0.000 NA
ATOM     24  C   UNL     1      47.996   9.490  19.982  0.00  0.00    +0.000 A 
ATOM     25  N   UNL     1      47.507   8.212  20.057  0.00  0.00    +0.000 N 
ATOM     26  C   UNL     1      47.713   7.279  19.070  0.00  0.00    +0.000 A 
ATOM     27  O   UNL     1      47.301   6.129  19.193  0.00  0.00    +0.000 OA
ATOM     28  C   UNL     1      48.456   7.763  17.926  0.00  0.00    +0.000 A 
ATOM     32  H   UNL     1      46.996   7.898  20.868  0.00  0.00    +0.000 HD
ENDBRANCH   2  19
ENDBRANCH   4   3
TORSDOF 11
ENDMDL
MODEL 6
REMARK VINA RESULT:    -6.398      3.693      8.040
REMARK INTER + INTRA:         -11.301
REMARK INTER:                 -10.137
REMARK INTRA:                  -1.164
REMARK UNBOUND:                -0.977
REMARK  Name = 
REMARK  11 active torsions:
REMARK  status: ('A' for Active; 'I' for Inactive)
REMARK    1  A    between atoms: C_2  and  C_19
REMARK    2  A    between atoms: N_3  and  C_4
REMARK    3  A    between atoms: C_4  and  C_5
REMARK    4  A    between atoms: C_8  and  C_9
REMARK    5  A    between atoms: C_9  and  N_10
REMARK    6  A    between atoms: N_10  and  C_11
REMARK    7  A    between atoms: C_11  and  C_12
REMARK    8  A    between atoms: C_12  and  O_13
REMARK    9  A    between atoms: O_13  and  C_14
REMARK   10  A    between atoms: C_14  and  C_15
REMARK   11  A    between atoms: C_15  and  O_16
REMARK                            x       y       z     vdW  Elec       q    Type
REMARK                         _______ _______ _______ _____ _____    ______ ____
ROOT
ATOM      4  C   UNL     1      48.231   7.980  12.272  0.00  0.00    +0.000 C 
ENDROOT
BRANCH   4   5
ATOM      5  C   UNL     1      48.954   7.622  13.544  0.00  0.00    +0.000 A 
ATOM      6  C   UNL     1      48.318   6.862  14.534  0.00  0.00    +0.000 A 
ATOM      7  C   UNL     1      48.989   6.519  15.712  0.00  0.00    +0.000 A 
ATOM      8  C   UNL     1      50.309   6.938  15.934  0.00  0.00    +0.000 A 
ATOM     17  C   UNL     1      50.930   7.734  14.961  0.00  0.00    +0.000 A 
ATOM     18  C   UNL     1      50.258   8.077  13.782  0.00  0.00    +0.000 A 
BRANCH   8   9
ATOM      9  C   UNL     1      51.039   6.557  17.204  0.00  0.00    +0.000 C 
BRANCH   9  10
ATOM     10  N   UNL     1      51.855   5.357  17.008  0.00  0.00    +0.000 NA
ATOM     30  H   UNL     1      52.829   5.644  16.911  0.00  0.00    +0.000 HD
BRANCH  10  11
ATOM     11  C   UNL     1      51.722   4.426  18.133  0.00  0.00    +0.000 C 
BRANCH  11  12
ATOM     12  C   UNL     1      51.214   3.060  17.651  0.00  0.00    +0.000 C 
BRANCH  12  13
ATOM     13  O   UNL     1      50.004   3.220  16.900  0.00  0.00    +0.000 OA
BRANCH  13  14
ATOM     14  C   UNL     1      48.861   3.146  17.768  0.00  0.00    +0.000 C 
BRANCH  14  15
ATOM     15  C   UNL     1      47.589   3.301  16.940  0.00  0.00    +0.000 C 
BRANCH  15  16
ATOM     16  O   UNL     1      46.460   2.857  17.687  0.00  0.00    +0.000 OA
ATOM     31  H   UNL     1      46.601   1.900  17.823  0.00  0.00    +0.000 HD
ENDBRANCH  15  16
ENDBRANCH  14  15
ENDBRANCH  13  14
ENDBRANCH  12  13
ENDBRANCH  11  12
ENDBRANCH  10  11
ENDBRANCH   9  10
ENDBRANCH   8   9
ENDBRANCH   4   5
BRANCH   4   3
ATOM      1  O   UNL     1      45.501   7.937  11.671  0.00  0.00    +0.000 OA
ATOM      2  C   UNL     1      46.176   6.939  11.424  0.00  0.00    +0.000 C 
ATOM      3  N   UNL     1      47.502   6.849  11.760  0.00  0.00    +0.000 N 
ATOM     29  H   UNL     1      48.062   6.106  11.356  0.00  0.00    +0.000 HD
BRANCH   2  19
ATOM     19  C   UNL     1      45.589   5.749  10.798  0.00  0.00    +0.000 A 
ATOM     20  C   UNL     1      45.786   5.500   9.445  0.00  0.00    +0.000 A 
ATOM     21  S   UNL     1      45.001   4.091   8.889  0.00  0.00    +0.000 S 
ATOM     22  C   UNL     1      44.415   3.736  10.448  0.00  0.00    +0.000 A 
ATOM     23  N   UNL     1      43.666   2.623  10.680  0.00  0.00    +0.000 NA
ATOM     24  C   UNL     1      43.318   2.463  11.914  0.00  0.00    +0.000 A 
ATOM     25  N   UNL     1      43.647   3.314  12.937  0.00  0.00    +0.000 N 
ATOM     26  C   UNL     1      44.374   4.463  12.742  0.00  0.00    +0.000 A 
ATOM     27  O   UNL     1      44.608   5.226  13.674  0.00  0.00    +0.000 OA
ATOM     28  C   UNL     1      44.798   4.686  11.376  0.00  0.00    +0.000 A 
ATOM     32  H   UNL     1      43.335   3.137  13.880  0.00  0.00    +0.000 HD
ENDBRANCH   2  19
ENDBRANCH   4   3
TORSDOF 11
ENDMDL
MODEL 7
REMARK VINA RESULT:    -6.303      2.946      8.395
REMARK INTER + INTRA:         -11.149
REMARK INTER:                 -10.103
REMARK INTRA:                  -1.046
REMARK UNBOUND:                -0.977
REMARK  Name = 
REMARK  11 active torsions:
REMARK  status: ('A' for Active; 'I' for Inactive)
REMARK    1  A    between atoms: C_2  and  C_19
REMARK    2  A    between atoms: N_3  and  C_4
REMARK    3  A    between atoms: C_4  and  C_5
REMARK    4  A    between atoms: C_8  and  C_9
REMARK    5  A    between atoms: C_9  and  N_10
REMARK    6  A    between atoms: N_10  and  C_11
REMARK    7  A    between atoms: C_11  and  C_12
REMARK    8  A    between atoms: C_12  and  O_13
REMARK    9  A    between atoms: O_13  and  C_14
REMARK   10  A    between atoms: C_14  and  C_15
REMARK   11  A    between atoms: C_15  and  O_16
REMARK                            x       y       z     vdW  Elec       q    Type
REMARK                         _______ _______ _______ _____ _____    ______ ____
ROOT
ATOM      4  C   UNL     1      47.450   7.615  12.229  0.00  0.00    +0.000 C 
ENDROOT
BRANCH   4   5
ATOM      5  C   UNL     1      48.480   7.453  13.317  0.00  0.00    +0.000 A 
ATOM      6  C   UNL     1      48.182   6.723  14.476  0.00  0.00    +0.000 A 
ATOM      7  C   UNL     1      49.138   6.561  15.483  0.00  0.00    +0.000 A 
ATOM      8  C   UNL     1      50.412   7.135  15.361  0.00  0.00    +0.000 A 
ATOM     17  C   UNL     1      50.695   7.899  14.221  0.00  0.00    +0.000 A 
ATOM     18  C   UNL     1      49.737   8.061  13.213  0.00  0.00    +0.000 A 
BRANCH   8   9
ATOM      9  C   UNL     1      51.451   6.950  16.447  0.00  0.00    +0.000 C 
BRANCH   9  10
ATOM     10  N   UNL     1      51.566   5.544  16.837  0.00  0.00    +0.000 NA
ATOM     30  H   UNL     1      52.547   5.270  16.764  0.00  0.00    +0.000 HD
BRANCH  10  11
ATOM     11  C   UNL     1      51.091   5.324  18.207  0.00  0.00    +0.000 C 
BRANCH  11  12
ATOM     12  C   UNL     1      50.015   4.229  18.241  0.00  0.00    +0.000 C 
BRANCH  12  13
ATOM     13  O   UNL     1      49.995   3.517  16.997  0.00  0.00    +0.000 OA
BRANCH  13  14
ATOM     14  C   UNL     1      48.862   2.637  16.941  0.00  0.00    +0.000 C 
BRANCH  14  15
ATOM     15  C   UNL     1      47.592   3.462  16.753  0.00  0.00    +0.000 C 
BRANCH  15  16
ATOM     16  O   UNL     1      46.553   2.964  17.592  0.00  0.00    +0.000 OA
ATOM     31  H   UNL     1      45.732   3.371  17.254  0.00  0.00    +0.000 HD
ENDBRANCH  15  16
ENDBRANCH  14  15
ENDBRANCH  13  14
ENDBRANCH  12  13
ENDBRANCH  11  12
ENDBRANCH  10  11
ENDBRANCH   9  10
ENDBRANCH   8   9
ENDBRANCH   4   5
BRANCH   4   3
ATOM      1  O   UNL     1      44.763   7.443  11.479  0.00  0.00    +0.000 OA
ATOM      2  C   UNL     1      45.410   6.405  11.597  0.00  0.00    +0.000 C 
ATOM      3  N   UNL     1      46.709   6.396  12.038  0.00  0.00    +0.000 N 
ATOM     29  H   UNL     1      47.262   5.554  11.921  0.00  0.00    +0.000 HD
BRANCH   2  19
ATOM     19  C   UNL     1      44.815   5.091  11.325  0.00  0.00    +0.000 A 
ATOM     20  C   UNL     1      44.009   4.478  12.276  0.00  0.00    +0.000 A 
ATOM     21  S   UNL     1      43.436   2.944  11.798  0.00  0.00    +0.000 S 
ATOM     22  C   UNL     1      44.202   3.070  10.282  0.00  0.00    +0.000 A 
ATOM     23  N   UNL     1      44.093   2.078   9.356  0.00  0.00    +0.000 NA
ATOM     24  C   UNL     1      44.697   2.322   8.241  0.00  0.00    +0.000 A 
ATOM     25  N   UNL     1      45.403   3.464   7.967  0.00  0.00    +0.000 N 
ATOM     26  C   UNL     1      45.565   4.475   8.882  0.00  0.00    +0.000 A 
ATOM     27  O   UNL     1      46.245   5.462   8.619  0.00  0.00    +0.000 OA
ATOM     28  C   UNL     1      44.898   4.256  10.148  0.00  0.00    +0.000 A 
ATOM     32  H   UNL     1      45.863   3.590   7.078  0.00  0.00    +0.000 HD
ENDBRANCH   2  19
ENDBRANCH   4   3
TORSDOF 11
ENDMDL
MODEL 8
REMARK VINA RESULT:    -6.199      2.541      3.738
REMARK INTER + INTRA:         -10.981
REMARK INTER:                 -10.071
REMARK INTRA:                  -0.911
REMARK UNBOUND:                -0.977
REMARK  Name = 
REMARK  11 active torsions:
REMARK  status: ('A' for Active; 'I' for Inactive)
REMARK    1  A    between atoms: C_2  and  C_19
REMARK    2  A    between atoms: N_3  and  C_4
REMARK    3  A    between atoms: C_4  and  C_5
REMARK    4  A    between atoms: C_8  and  C_9
REMARK    5  A    between atoms: C_9  and  N_10
REMARK    6  A    between atoms: N_10  and  C_11
REMARK    7  A    between atoms: C_11  and  C_12
REMARK    8  A    between atoms: C_12  and  O_13
REMARK    9  A    between atoms: O_13  and  C_14
REMARK   10  A    between atoms: C_14  and  C_15
REMARK   11  A    between atoms: C_15  and  O_16
REMARK                            x       y       z     vdW  Elec       q    Type
REMARK                         _______ _______ _______ _____ _____    ______ ____
ROOT
ATOM      4  C   UNL     1      47.575   4.074  15.664  0.00  0.00    +0.000 C 
ENDROOT
BRANCH   4   5
ATOM      5  C   UNL     1      47.005   4.517  14.342  0.00  0.00    +0.000 A 
ATOM      6  C   UNL     1      46.156   3.672  13.615  0.00  0.00    +0.000 A 
ATOM      7  C   UNL     1      45.616   4.083  12.392  0.00  0.00    +0.000 A 
ATOM      8  C   UNL     1      45.922   5.344  11.860  0.00  0.00    +0.000 A 
ATOM     17  C   UNL     1      46.804   6.172  12.569  0.00  0.00    +0.000 A 
ATOM     18  C   UNL     1      47.345   5.760  13.793  0.00  0.00    +0.000 A 
BRANCH   8   9
ATOM      9  C   UNL     1      45.328   5.793  10.541  0.00  0.00    +0.000 C 
BRANCH   9  10
ATOM     10  N   UNL     1      44.320   4.845  10.064  0.00  0.00    +0.000 NA
ATOM     30  H   UNL     1      43.478   5.368   9.820  0.00  0.00    +0.000 HD
BRANCH  10  11
ATOM     11  C   UNL     1      44.795   4.097   8.894  0.00  0.00    +0.000 C 
BRANCH  11  12
ATOM     12  C   UNL     1      44.503   2.598   9.052  0.00  0.00    +0.000 C 
BRANCH  12  13
ATOM     13  O   UNL     1      45.715   1.843   8.939  0.00  0.00    +0.000 OA
BRANCH  13  14
ATOM     14  C   UNL     1      46.447   2.242   7.769  0.00  0.00    +0.000 C 
BRANCH  14  15
ATOM     15  C   UNL     1      47.217   1.042   7.224  0.00  0.00    +0.000 C 
BRANCH  15  16
ATOM     16  O   UNL     1      46.789  -0.152   7.873  0.00  0.00    +0.000 OA
ATOM     31  H   UNL     1      47.542  -0.426   8.432  0.00  0.00    +0.000 HD
ENDBRANCH  15  16
ENDBRANCH  14  15
ENDBRANCH  13  14
ENDBRANCH  12  13
ENDBRANCH  11  12
ENDBRANCH  10  11
ENDBRANCH   9  10
ENDBRANCH   8   9
ENDBRANCH   4   5
BRANCH   4   3
ATOM      1  O   UNL     1      49.713   5.426  16.854  0.00  0.00    +0.000 OA
ATOM      2  C   UNL     1      48.567   5.780  17.124  0.00  0.00    +0.000 C 
ATOM      3  N   UNL     1      47.463   5.120  16.647  0.00  0.00    +0.000 N 
ATOM     29  H   UNL     1      46.555   5.564  16.722  0.00  0.00    +0.000 HD
BRANCH   2  19
ATOM     19  C   UNL     1      48.302   6.907  18.026  0.00  0.00    +0.000 A 
ATOM     20  C   UNL     1      48.166   6.692  19.392  0.00  0.00    +0.000 A 
ATOM     21  S   UNL     1      47.827   8.113  20.275  0.00  0.00    +0.000 S 
ATOM     22  C   UNL     1      47.903   9.070  18.869  0.00  0.00    +0.000 A 
ATOM     23  N   UNL     1      47.721  10.418  18.927  0.00  0.00    +0.000 NA
ATOM     24  C   UNL     1      47.839  11.021  17.792  0.00  0.00    +0.000 A 
ATOM     25  N   UNL     1      48.119  10.401  16.601  0.00  0.00    +0.000 N 
ATOM     26  C   UNL     1      48.280   9.042  16.492  0.00  0.00    +0.000 A 
ATOM     27  O   UNL     1      48.482   8.516  15.402  0.00  0.00    +0.000 OA
ATOM     28  C   UNL     1      48.166   8.317  17.741  0.00  0.00    +0.000 A 
ATOM     32  H   UNL     1      48.188  10.929  15.745  0.00  0.00    +0.000 HD
ENDBRANCH   2  19
ENDBRANCH   4   3
TORSDOF 11
ENDMDL
MODEL 9
REMARK VINA RESULT:    -6.163      4.507      9.365
REMARK INTER + INTRA:         -10.922
REMARK INTER:                  -9.621
REMARK INTRA:                  -1.301
REMARK UNBOUND:                -0.977
REMARK  Name = 
REMARK  11 active torsions:
REMARK  status: ('A' for Active; 'I' for Inactive)
REMARK    1  A    between atoms: C_2  and  C_19
REMARK    2  A    between atoms: N_3  and  C_4
REMARK    3  A    between atoms: C_4  and  C_5
REMARK    4  A    between atoms: C_8  and  C_9
REMARK    5  A    between atoms: C_9  and  N_10
REMARK    6  A    between atoms: N_10  and  C_11
REMARK    7  A    between atoms: C_11  and  C_12
REMARK    8  A    between atoms: C_12  and  O_13
REMARK    9  A    between atoms: O_13  and  C_14
REMARK   10  A    between atoms: C_14  and  C_15
REMARK   11  A    between atoms: C_15  and  O_16
REMARK                            x       y       z     vdW  Elec       q    Type
REMARK                         _______ _______ _______ _____ _____    ______ ____
ROOT
ATOM      4  C   UNL     1      47.286   3.769  16.922  0.00  0.00    +0.000 C 
ENDROOT
BRANCH   4   5
ATOM      5  C   UNL     1      48.731   3.406  17.144  0.00  0.00    +0.000 A 
ATOM      6  C   UNL     1      49.626   4.343  17.678  0.00  0.00    +0.000 A 
ATOM      7  C   UNL     1      50.966   4.007  17.896  0.00  0.00    +0.000 A 
ATOM      8  C   UNL     1      51.446   2.729  17.573  0.00  0.00    +0.000 A 
ATOM     17  C   UNL     1      50.560   1.807  17.001  0.00  0.00    +0.000 A 
ATOM     18  C   UNL     1      49.219   2.144  16.782  0.00  0.00    +0.000 A 
BRANCH   8   9
ATOM      9  C   UNL     1      52.895   2.363  17.820  0.00  0.00    +0.000 C 
BRANCH   9  10
ATOM     10  N   UNL     1      53.192   2.307  19.252  0.00  0.00    +0.000 NA
ATOM     30  H   UNL     1      53.103   1.338  19.561  0.00  0.00    +0.000 HD
BRANCH  10  11
ATOM     11  C   UNL     1      54.543   2.798  19.542  0.00  0.00    +0.000 C 
BRANCH  11  12
ATOM     12  C   UNL     1      55.520   1.627  19.717  0.00  0.00    +0.000 C 
BRANCH  12  13
ATOM     13  O   UNL     1      54.807   0.436  20.071  0.00  0.00    +0.000 OA
BRANCH  13  14
ATOM     14  C   UNL     1      55.329  -0.693  19.352  0.00  0.00    +0.000 C 
BRANCH  14  15
ATOM     15  C   UNL     1      54.179  -1.616  18.961  0.00  0.00    +0.000 C 
BRANCH  15  16
ATOM     16  O   UNL     1      53.009  -0.851  18.680  0.00  0.00    +0.000 OA
ATOM     31  H   UNL     1      53.249  -0.280  17.925  0.00  0.00    +0.000 HD
ENDBRANCH  15  16
ENDBRANCH  14  15
ENDBRANCH  13  14
ENDBRANCH  12  13
ENDBRANCH  11  12
ENDBRANCH  10  11
ENDBRANCH   9  10
ENDBRANCH   8   9
ENDBRANCH   4   5
BRANCH   4   3
ATOM      1  O   UNL     1      47.227   3.239  14.178  0.00  0.00    +0.000 OA
ATOM      2  C   UNL     1      47.065   4.396  14.559  0.00  0.00    +0.000 C 
ATOM      3  N   UNL     1      47.158   4.754  15.880  0.00  0.00    +0.000 N 
ATOM     29  H   UNL     1      46.814   5.663  16.168  0.00  0.00    +0.000 HD
BRANCH   2  19
ATOM     19  C   UNL     1      46.812   5.490  13.614  0.00  0.00    +0.000 A 
ATOM     20  C   UNL     1      45.661   5.492  12.837  0.00  0.00    +0.000 A 
ATOM     21  S   UNL     1      45.557   6.823  11.774  0.00  0.00    +0.000 S 
ATOM     22  C   UNL     1      47.021   7.469  12.354  0.00  0.00    +0.000 A 
ATOM     23  N   UNL     1      47.512   8.642  11.867  0.00  0.00    +0.000 NA
ATOM     24  C   UNL     1      48.613   9.030  12.420  0.00  0.00    +0.000 A 
ATOM     25  N   UNL     1      49.271   8.352  13.413  0.00  0.00    +0.000 N 
ATOM     26  C   UNL     1      48.828   7.151  13.911  0.00  0.00    +0.000 A 
ATOM     27  O   UNL     1      49.469   6.548  14.767  0.00  0.00    +0.000 OA
ATOM     28  C   UNL     1      47.590   6.675  13.331  0.00  0.00    +0.000 A 
ATOM     32  H   UNL     1      50.135   8.703  13.797  0.00  0.00    +0.000 HD
ENDBRANCH   2  19
ENDBRANCH   4   3
TORSDOF 11
ENDMDL
