MODEL 1
REMARK VINA RESULT:    -6.481      0.000      0.000
REMARK INTER + INTRA:          -6.898
REMARK INTER:                  -6.860
REMARK INTRA:                  -0.038
REMARK UNBOUND:                -0.038
REMARK  Name = 
REMARK  1 active torsions:
REMARK  status: ('A' for Active; 'I' for Inactive)
REMARK    1  A    between atoms: C_2  and  C_4
REMARK                            x       y       z     vdW  Elec       q    Type
REMARK                         _______ _______ _______ _____ _____    ______ ____
ROOT
ATOM      4  C   UNL     1      46.468   2.489   7.693  0.00  0.00    +0.000 A 
ATOM      5  C   UNL     1      45.619   1.889   8.621  0.00  0.00    +0.000 A 
ATOM      6  C   UNL     1      44.733   2.690   9.341  0.00  0.00    +0.000 A 
ATOM      7  C   UNL     1      44.728   4.061   9.121  0.00  0.00    +0.000 A 
ATOM      8  N   UNL     1      43.815   4.877   9.782  0.00  0.00    +0.000 N 
ATOM      9  N   UNL     1      45.546   4.661   8.240  0.00  0.00    +0.000 NA
ATOM     10  C   UNL     1      46.408   3.868   7.552  0.00  0.00    +0.000 A 
ATOM     13  H   UNL     1      43.844   4.748  10.786  0.00  0.00    +0.000 HD
ATOM     14  H   UNL     1      44.027   5.836   9.515  0.00  0.00    +0.000 HD
ENDROOT
BRANCH   4   2
ATOM      1  N   UNL     1      48.527   2.398   6.412  0.00  0.00    +0.000 N 
ATOM      2  C   UNL     1      47.425   1.726   6.869  0.00  0.00    +0.000 C 
ATOM      3  O   UNL     1      47.264   0.537   6.638  0.00  0.00    +0.000 OA
ATOM     11  H   UNL     1      49.231   1.836   5.951  0.00  0.00    +0.000 HD
ATOM     12  H   UNL     1      48.819   3.282   6.803  0.00  0.00    +0.000 HD
ENDBRANCH   4   2
TORSDOF 1
ENDMDL
MODEL 2
REMARK VINA RESULT:    -6.217      1.453      1.920
REMARK INTER + INTRA:          -6.619
REMARK INTER:                  -6.578
REMARK INTRA:                  -0.040
REMARK UNBOUND:                -0.038
REMARK  Name = 
REMARK  1 active torsions:
REMARK  status: ('A' for Active; 'I' for Inactive)
REMARK    1  A    between atoms: C_2  and  C_4
REMARK                            x       y       z     vdW  Elec       q    Type
REMARK                         _______ _______ _______ _____ _____    ______ ____
ROOT
ATOM      4  C   UNL     1      46.251   2.125   7.948  0.00  0.00    +0.000 A 
ATOM      5  C   UNL     1      46.383   3.469   7.607  0.00  0.00    +0.000 A 
ATOM      6  C   UNL     1      45.548   4.406   8.217  0.00  0.00    +0.000 A 
ATOM      7  C   UNL     1      44.603   3.972   9.138  0.00  0.00    +0.000 A 
ATOM      8  N   UNL     1      43.797   4.889   9.804  0.00  0.00    +0.000 N 
ATOM      9  N   UNL     1      44.452   2.680   9.472  0.00  0.00    +0.000 NA
ATOM     10  C   UNL     1      45.267   1.780   8.864  0.00  0.00    +0.000 A 
ATOM     13  H   UNL     1      43.312   5.507   9.166  0.00  0.00    +0.000 HD
ATOM     14  H   UNL     1      43.152   4.353  10.381  0.00  0.00    +0.000 HD
ENDROOT
BRANCH   4   2
ATOM      1  N   UNL     1      46.767  -0.230   7.675  0.00  0.00    +0.000 N 
ATOM      2  C   UNL     1      47.099   1.063   7.373  0.00  0.00    +0.000 C 
ATOM      3  O   UNL     1      48.032   1.324   6.629  0.00  0.00    +0.000 OA
ATOM     11  H   UNL     1      47.282  -0.948   7.181  0.00  0.00    +0.000 HD
ATOM     12  H   UNL     1      45.865  -0.480   8.053  0.00  0.00    +0.000 HD
ENDBRANCH   4   2
TORSDOF 1
ENDMDL
MODEL 3
REMARK VINA RESULT:    -6.065      1.992      4.013
REMARK INTER + INTRA:          -6.458
REMARK INTER:                  -6.418
REMARK INTRA:                  -0.040
REMARK UNBOUND:                -0.038
REMARK  Name = 
REMARK  1 active torsions:
REMARK  status: ('A' for Active; 'I' for Inactive)
REMARK    1  A    between atoms: C_2  and  C_4
REMARK                            x       y       z     vdW  Elec       q    Type
REMARK                         _______ _______ _______ _____ _____    ______ ____
ROOT
ATOM      4  C   UNL     1      45.278   3.125   8.804  0.00  0.00    +0.000 A 
ATOM      5  C   UNL     1      45.729   1.821   8.610  0.00  0.00    +0.000 A 
ATOM      6  C   UNL     1      46.758   1.592   7.697  0.00  0.00    +0.000 A 
ATOM      7  C   UNL     1      47.296   2.666   7.000  0.00  0.00    +0.000 A 
ATOM      8  N   UNL     1      48.362   2.476   6.126  0.00  0.00    +0.000 N 
ATOM      9  N   UNL     1      46.867   3.928   7.163  0.00  0.00    +0.000 NA
ATOM     10  C   UNL     1      45.860   4.133   8.051  0.00  0.00    +0.000 A 
ATOM     13  H   UNL     1      48.170   1.756   5.440  0.00  0.00    +0.000 HD
ATOM     14  H   UNL     1      48.553   3.376   5.692  0.00  0.00    +0.000 HD
ENDROOT
BRANCH   4   2
ATOM      1  N   UNL     1      43.788   4.773   9.779  0.00  0.00    +0.000 N 
ATOM      2  C   UNL     1      44.209   3.471   9.761  0.00  0.00    +0.000 C 
ATOM      3  O   UNL     1      43.694   2.625  10.477  0.00  0.00    +0.000 OA
ATOM     11  H   UNL     1      42.977   4.970  10.353  0.00  0.00    +0.000 HD
ATOM     12  H   UNL     1      43.996   5.417   9.030  0.00  0.00    +0.000 HD
ENDBRANCH   4   2
TORSDOF 1
ENDMDL
MODEL 4
REMARK VINA RESULT:    -5.835      2.624      4.134
REMARK INTER + INTRA:          -6.214
REMARK INTER:                  -6.185
REMARK INTRA:                  -0.029
REMARK UNBOUND:                -0.038
REMARK  Name = 
REMARK  1 active torsions:
REMARK  status: ('A' for Active; 'I' for Inactive)
REMARK    1  A    between atoms: C_2  and  C_4
REMARK                            x       y       z     vdW  Elec       q    Type
REMARK                         _______ _______ _______ _____ _____    ______ ____
ROOT
ATOM      4  C   UNL     1      44.853   3.198   9.825  0.00  0.00    +0.000 A 
ATOM      5  C   UNL     1      45.299   2.075   9.130  0.00  0.00    +0.000 A 
ATOM      6  C   UNL     1      45.995   2.253   7.935  0.00  0.00    +0.000 A 
ATOM      7  C   UNL     1      46.214   3.542   7.465  0.00  0.00    +0.000 A 
ATOM      8  N   UNL     1      46.954   3.753   6.306  0.00  0.00    +0.000 N 
ATOM      9  N   UNL     1      45.782   4.637   8.112  0.00  0.00    +0.000 NA
ATOM     10  C   UNL     1      45.100   4.445   9.271  0.00  0.00    +0.000 A 
ATOM     13  H   UNL     1      46.599   3.219   5.523  0.00  0.00    +0.000 HD
ATOM     14  H   UNL     1      46.941   4.754   6.123  0.00  0.00    +0.000 HD
ENDROOT
BRANCH   4   2
ATOM      1  N   UNL     1      44.850   2.746  12.208  0.00  0.00    +0.000 N 
ATOM      2  C   UNL     1      44.126   3.113  11.107  0.00  0.00    +0.000 C 
ATOM      3  O   UNL     1      42.941   3.396  11.190  0.00  0.00    +0.000 OA
ATOM     11  H   UNL     1      44.369   2.806  13.097  0.00  0.00    +0.000 HD
ATOM     12  H   UNL     1      45.860   2.770  12.223  0.00  0.00    +0.000 HD
ENDBRANCH   4   2
TORSDOF 1
ENDMDL
MODEL 5
REMARK VINA RESULT:    -5.735      1.709      2.048
REMARK INTER + INTRA:          -6.108
REMARK INTER:                  -6.078
REMARK INTRA:                  -0.030
REMARK UNBOUND:                -0.038
REMARK  Name = 
REMARK  1 active torsions:
REMARK  status: ('A' for Active; 'I' for Inactive)
REMARK    1  A    between atoms: C_2  and  C_4
REMARK                            x       y       z     vdW  Elec       q    Type
REMARK                         _______ _______ _______ _____ _____    ______ ____
ROOT
ATOM      4  C   UNL     1      46.435   2.767   7.308  0.00  0.00    +0.000 A 
ATOM      5  C   UNL     1      45.793   3.918   7.760  0.00  0.00    +0.000 A 
ATOM      6  C   UNL     1      44.963   3.833   8.878  0.00  0.00    +0.000 A 
ATOM      7  C   UNL     1      44.792   2.604   9.502  0.00  0.00    +0.000 A 
ATOM      8  N   UNL     1      44.017   2.500  10.652  0.00  0.00    +0.000 N 
ATOM      9  N   UNL     1      45.392   1.480   9.075  0.00  0.00    +0.000 NA
ATOM     10  C   UNL     1      46.192   1.579   7.981  0.00  0.00    +0.000 A 
ATOM     13  H   UNL     1      43.091   2.888  10.526  0.00  0.00    +0.000 HD
ATOM     14  H   UNL     1      43.987   1.514  10.902  0.00  0.00    +0.000 HD
ENDROOT
BRANCH   4   2
ATOM      1  N   UNL     1      48.663   2.475   6.393  0.00  0.00    +0.000 N 
ATOM      2  C   UNL     1      47.347   2.760   6.148  0.00  0.00    +0.000 C 
ATOM      3  O   UNL     1      46.940   2.958   5.013  0.00  0.00    +0.000 OA
ATOM     11  H   UNL     1      49.252   2.357   5.578  0.00  0.00    +0.000 HD
ATOM     12  H   UNL     1      48.971   2.050   7.255  0.00  0.00    +0.000 HD
ENDBRANCH   4   2
TORSDOF 1
ENDMDL
MODEL 6
REMARK VINA RESULT:    -5.011      3.607      4.827
REMARK INTER + INTRA:          -5.342
REMARK INTER:                  -5.302
REMARK INTRA:                  -0.040
REMARK UNBOUND:                -0.038
REMARK  Name = 
REMARK  1 active torsions:
REMARK  status: ('A' for Active; 'I' for Inactive)
REMARK    1  A    between atoms: C_2  and  C_4
REMARK                            x       y       z     vdW  Elec       q    Type
REMARK                         _______ _______ _______ _____ _____    ______ ____
ROOT
ATOM      4  C   UNL     1      44.944   4.112  11.051  0.00  0.00    +0.000 A 
ATOM      5  C   UNL     1      45.352   5.442  11.127  0.00  0.00    +0.000 A 
ATOM      6  C   UNL     1      45.980   5.890  12.289  0.00  0.00    +0.000 A 
ATOM      7  C   UNL     1      46.171   5.003  13.340  0.00  0.00    +0.000 A 
ATOM      8  N   UNL     1      46.845   5.406  14.488  0.00  0.00    +0.000 N 
ATOM      9  N   UNL     1      45.774   3.720  13.292  0.00  0.00    +0.000 NA
ATOM     10  C   UNL     1      45.158   3.302  12.156  0.00  0.00    +0.000 A 
ATOM     13  H   UNL     1      46.447   6.245  14.891  0.00  0.00    +0.000 HD
ATOM     14  H   UNL     1      46.820   4.623  15.138  0.00  0.00    +0.000 HD
ENDROOT
BRANCH   4   2
ATOM      1  N   UNL     1      44.115   4.372   8.785  0.00  0.00    +0.000 N 
ATOM      2  C   UNL     1      44.290   3.539   9.858  0.00  0.00    +0.000 C 
ATOM      3  O   UNL     1      43.956   2.365   9.813  0.00  0.00    +0.000 OA
ATOM     11  H   UNL     1      43.776   3.937   7.936  0.00  0.00    +0.000 HD
ATOM     12  H   UNL     1      44.613   5.245   8.694  0.00  0.00    +0.000 HD
ENDBRANCH   4   2
TORSDOF 1
ENDMDL
MODEL 7
REMARK VINA RESULT:    -4.884      4.284      5.425
REMARK INTER + INTRA:          -5.208
REMARK INTER:                  -5.171
REMARK INTRA:                  -0.037
REMARK UNBOUND:                -0.038
REMARK  Name = 
REMARK  1 active torsions:
REMARK  status: ('A' for Active; 'I' for Inactive)
REMARK    1  A    between atoms: C_2  and  C_4
REMARK                            x       y       z     vdW  Elec       q    Type
REMARK                         _______ _______ _______ _____ _____    ______ ____
ROOT
ATOM      4  C   UNL     1      46.084   4.269  12.877  0.00  0.00    +0.000 A 
ATOM      5  C   UNL     1      45.340   3.200  12.383  0.00  0.00    +0.000 A 
ATOM      6  C   UNL     1      44.616   3.369  11.203  0.00  0.00    +0.000 A 
ATOM      7  C   UNL     1      44.649   4.600  10.560  0.00  0.00    +0.000 A 
ATOM      8  N   UNL     1      43.983   4.781   9.351  0.00  0.00    +0.000 N 
ATOM      9  N   UNL     1      45.349   5.647  11.025  0.00  0.00    +0.000 NA
ATOM     10  C   UNL     1      46.043   5.468  12.179  0.00  0.00    +0.000 A 
ATOM     13  H   UNL     1      43.009   4.512   9.407  0.00  0.00    +0.000 HD
ATOM     14  H   UNL     1      44.095   5.759   9.094  0.00  0.00    +0.000 HD
ENDROOT
BRANCH   4   2
ATOM      1  N   UNL     1      47.002   5.317  14.863  0.00  0.00    +0.000 N 
ATOM      2  C   UNL     1      46.897   4.182  14.105  0.00  0.00    +0.000 C 
ATOM      3  O   UNL     1      47.421   3.135  14.452  0.00  0.00    +0.000 OA
ATOM     11  H   UNL     1      47.461   5.213  15.759  0.00  0.00    +0.000 HD
ATOM     12  H   UNL     1      46.375   6.100  14.750  0.00  0.00    +0.000 HD
ENDBRANCH   4   2
TORSDOF 1
ENDMDL
MODEL 8
REMARK VINA RESULT:    -4.820      5.813      6.196
REMARK INTER + INTRA:          -5.140
REMARK INTER:                  -5.111
REMARK INTRA:                  -0.029
REMARK UNBOUND:                -0.038
REMARK  Name = 
REMARK  1 active torsions:
REMARK  status: ('A' for Active; 'I' for Inactive)
REMARK    1  A    between atoms: C_2  and  C_4
REMARK                            x       y       z     vdW  Elec       q    Type
REMARK                         _______ _______ _______ _____ _____    ______ ____
ROOT
ATOM      4  C   UNL     1      45.840   5.100  13.310  0.00  0.00    +0.000 A 
ATOM      5  C   UNL     1      46.181   6.189  12.511  0.00  0.00    +0.000 A 
ATOM      6  C   UNL     1      45.190   6.798  11.741  0.00  0.00    +0.000 A 
ATOM      7  C   UNL     1      43.896   6.296  11.784  0.00  0.00    +0.000 A 
ATOM      8  N   UNL     1      42.875   6.918  11.073  0.00  0.00    +0.000 N 
ATOM      9  N   UNL     1      43.549   5.240  12.538  0.00  0.00    +0.000 NA
ATOM     10  C   UNL     1      44.527   4.654  13.276  0.00  0.00    +0.000 A 
ATOM     13  H   UNL     1      43.106   7.032  10.094  0.00  0.00    +0.000 HD
ATOM     14  H   UNL     1      42.037   6.357  11.204  0.00  0.00    +0.000 HD
ENDROOT
BRANCH   4   2
ATOM      1  N   UNL     1      47.210   5.050  15.311  0.00  0.00    +0.000 N 
ATOM      2  C   UNL     1      46.813   4.402  14.173  0.00  0.00    +0.000 C 
ATOM      3  O   UNL     1      47.215   3.280  13.906  0.00  0.00    +0.000 OA
ATOM     11  H   UNL     1      47.783   4.513  15.952  0.00  0.00    +0.000 HD
ATOM     12  H   UNL     1      46.703   5.837  15.689  0.00  0.00    +0.000 HD
ENDBRANCH   4   2
TORSDOF 1
ENDMDL
MODEL 9
REMARK VINA RESULT:    -4.785      2.256      3.137
REMARK INTER + INTRA:          -5.103
REMARK INTER:                  -5.066
REMARK INTRA:                  -0.037
REMARK UNBOUND:                -0.038
REMARK  Name = 
REMARK  1 active torsions:
REMARK  status: ('A' for Active; 'I' for Inactive)
REMARK    1  A    between atoms: C_2  and  C_4
REMARK                            x       y       z     vdW  Elec       q    Type
REMARK                         _______ _______ _______ _____ _____    ______ ____
ROOT
ATOM      4  C   UNL     1      45.116   3.854   9.265  0.00  0.00    +0.000 A 
ATOM      5  C   UNL     1      45.272   5.107   9.855  0.00  0.00    +0.000 A 
ATOM      6  C   UNL     1      44.514   5.420  10.984  0.00  0.00    +0.000 A 
ATOM      7  C   UNL     1      43.620   4.480  11.480  0.00  0.00    +0.000 A 
ATOM      8  N   UNL     1      42.894   4.742  12.638  0.00  0.00    +0.000 N 
ATOM      9  N   UNL     1      43.446   3.272  10.919  0.00  0.00    +0.000 NA
ATOM     10  C   UNL     1      44.186   2.986   9.817  0.00  0.00    +0.000 A 
ATOM     13  H   UNL     1      42.389   5.617  12.582  0.00  0.00    +0.000 HD
ATOM     14  H   UNL     1      42.271   3.951  12.783  0.00  0.00    +0.000 HD
ENDROOT
BRANCH   4   2
ATOM      1  N   UNL     1      46.181   2.090   7.984  0.00  0.00    +0.000 N 
ATOM      2  C   UNL     1      45.886   3.423   8.081  0.00  0.00    +0.000 C 
ATOM      3  O   UNL     1      46.210   4.213   7.208  0.00  0.00    +0.000 OA
ATOM     11  H   UNL     1      46.603   1.791   7.114  0.00  0.00    +0.000 HD
ATOM     12  H   UNL     1      45.705   1.391   8.534  0.00  0.00    +0.000 HD
ENDBRANCH   4   2
TORSDOF 1
ENDMDL
