MODEL 1
REMARK VINA RESULT:    -6.273      0.000      0.000
REMARK INTER + INTRA:          -7.304
REMARK INTER:                  -7.190
REMARK INTRA:                  -0.115
REMARK UNBOUND:                -0.115
REMARK  Name = 
REMARK  3 active torsions:
REMARK  status: ('A' for Active; 'I' for Inactive)
REMARK    1  A    between atoms: O_1  and  C_2
REMARK    2  A    between atoms: C_2  and  C_3
REMARK    3  A    between atoms: C_5  and  C_6
REMARK                            x       y       z     vdW  Elec       q    Type
REMARK                         _______ _______ _______ _____ _____    ______ ____
ROOT
ATOM      3  C   UNL     1      43.355   4.161  10.968  0.00  0.00    +0.000 A 
ATOM      4  C   UNL     1      44.190   4.308   9.839  0.00  0.00    +0.000 A 
ATOM      5  C   UNL     1      44.698   3.055   9.584  0.00  0.00    +0.000 A 
ATOM     11  N   UNL     1      44.130   2.242  10.527  0.00  0.00    +0.000 N 
ATOM     12  N   UNL     1      43.312   2.886  11.384  0.00  0.00    +0.000 NA
ATOM     14  H   UNL     1      44.268   1.244  10.643  0.00  0.00    +0.000 HD
ENDROOT
BRANCH   5   6
ATOM      6  C   UNL     1      45.621   2.637   8.572  0.00  0.00    +0.000 A 
ATOM      7  C   UNL     1      46.042   1.341   8.342  0.00  0.00    +0.000 A 
ATOM      8  C   UNL     1      46.988   1.250   7.282  0.00  0.00    +0.000 A 
ATOM      9  C   UNL     1      47.253   2.481   6.728  0.00  0.00    +0.000 A 
ATOM     10  S   UNL     1      46.349   3.728   7.471  0.00  0.00    +0.000 S 
ENDBRANCH   5   6
BRANCH   3   2
ATOM      2  C   UNL     1      42.603   5.239  11.670  0.00  0.00    +0.000 C 
BRANCH   2   1
ATOM      1  O   UNL     1      42.565   6.448  10.906  0.00  0.00    +0.000 OA
ATOM     13  H   UNL     1      42.199   7.126  11.498  0.00  0.00    +0.000 HD
ENDBRANCH   2   1
ENDBRANCH   3   2
TORSDOF 3
ENDMDL
MODEL 2
REMARK VINA RESULT:    -6.010      2.116      2.353
REMARK INTER + INTRA:          -7.004
REMARK INTER:                  -6.889
REMARK INTRA:                  -0.115
REMARK UNBOUND:                -0.115
REMARK  Name = 
REMARK  3 active torsions:
REMARK  status: ('A' for Active; 'I' for Inactive)
REMARK    1  A    between atoms: O_1  and  C_2
REMARK    2  A    between atoms: C_2  and  C_3
REMARK    3  A    between atoms: C_5  and  C_6
REMARK                            x       y       z     vdW  Elec       q    Type
REMARK                         _______ _______ _______ _____ _____    ______ ____
ROOT
ATOM      3  C   UNL     1      43.944   3.500  10.690  0.00  0.00    +0.000 A 
ATOM      4  C   UNL     1      44.905   2.684  10.055  0.00  0.00    +0.000 A 
ATOM      5  C   UNL     1      45.117   3.250   8.818  0.00  0.00    +0.000 A 
ATOM     11  N   UNL     1      44.319   4.362   8.794  0.00  0.00    +0.000 N 
ATOM     12  N   UNL     1      43.591   4.538   9.915  0.00  0.00    +0.000 NA
ATOM     14  H   UNL     1      44.220   5.032   8.039  0.00  0.00    +0.000 HD
ENDROOT
BRANCH   5   6
ATOM      6  C   UNL     1      45.970   2.814   7.754  0.00  0.00    +0.000 A 
ATOM      7  C   UNL     1      46.315   3.550   6.636  0.00  0.00    +0.000 A 
ATOM      8  C   UNL     1      47.156   2.831   5.741  0.00  0.00    +0.000 A 
ATOM      9  C   UNL     1      47.437   1.568   6.209  0.00  0.00    +0.000 A 
ATOM     10  S   UNL     1      46.705   1.267   7.726  0.00  0.00    +0.000 S 
ENDBRANCH   5   6
BRANCH   3   2
ATOM      2  C   UNL     1      43.340   3.288  12.036  0.00  0.00    +0.000 C 
BRANCH   2   1
ATOM      1  O   UNL     1      43.443   1.925  12.458  0.00  0.00    +0.000 OA
ATOM     13  H   UNL     1      44.369   1.798  12.726  0.00  0.00    +0.000 HD
ENDBRANCH   2   1
ENDBRANCH   3   2
TORSDOF 3
ENDMDL
MODEL 3
REMARK VINA RESULT:    -5.864      1.335      1.361
REMARK INTER + INTRA:          -6.836
REMARK INTER:                  -6.718
REMARK INTRA:                  -0.119
REMARK UNBOUND:                -0.115
REMARK  Name = 
REMARK  3 active torsions:
REMARK  status: ('A' for Active; 'I' for Inactive)
REMARK    1  A    between atoms: O_1  and  C_2
REMARK    2  A    between atoms: C_2  and  C_3
REMARK    3  A    between atoms: C_5  and  C_6
REMARK                            x       y       z     vdW  Elec       q    Type
REMARK                         _______ _______ _______ _____ _____    ______ ____
ROOT
ATOM      3  C   UNL     1      43.738   4.114  11.160  0.00  0.00    +0.000 A 
ATOM      4  C   UNL     1      44.732   3.211  10.722  0.00  0.00    +0.000 A 
ATOM      5  C   UNL     1      44.876   3.439   9.373  0.00  0.00    +0.000 A 
ATOM     11  N   UNL     1      44.011   4.461   9.090  0.00  0.00    +0.000 N 
ATOM     12  N   UNL     1      43.303   4.889  10.155  0.00  0.00    +0.000 NA
ATOM     14  H   UNL     1      43.852   4.901   8.190  0.00  0.00    +0.000 HD
ENDROOT
BRANCH   5   6
ATOM      6  C   UNL     1      45.728   2.783   8.427  0.00  0.00    +0.000 A 
ATOM      7  C   UNL     1      46.007   1.429   8.388  0.00  0.00    +0.000 A 
ATOM      8  C   UNL     1      46.914   1.084   7.347  0.00  0.00    +0.000 A 
ATOM      9  C   UNL     1      47.292   2.186   6.614  0.00  0.00    +0.000 A 
ATOM     10  S   UNL     1      46.539   3.617   7.171  0.00  0.00    +0.000 S 
ENDBRANCH   5   6
BRANCH   3   2
ATOM      2  C   UNL     1      43.184   4.234  12.538  0.00  0.00    +0.000 C 
BRANCH   2   1
ATOM      1  O   UNL     1      42.804   5.579  12.844  0.00  0.00    +0.000 OA
ATOM     13  H   UNL     1      42.599   5.589  13.794  0.00  0.00    +0.000 HD
ENDBRANCH   2   1
ENDBRANCH   3   2
TORSDOF 3
ENDMDL
MODEL 4
REMARK VINA RESULT:    -5.611      3.048      5.265
REMARK INTER + INTRA:          -6.546
REMARK INTER:                  -6.424
REMARK INTRA:                  -0.122
REMARK UNBOUND:                -0.115
REMARK  Name = 
REMARK  3 active torsions:
REMARK  status: ('A' for Active; 'I' for Inactive)
REMARK    1  A    between atoms: O_1  and  C_2
REMARK    2  A    between atoms: C_2  and  C_3
REMARK    3  A    between atoms: C_5  and  C_6
REMARK                            x       y       z     vdW  Elec       q    Type
REMARK                         _______ _______ _______ _____ _____    ______ ____
ROOT
ATOM      3  C   UNL     1      45.976   3.015   7.769  0.00  0.00    +0.000 A 
ATOM      4  C   UNL     1      45.325   4.033   8.500  0.00  0.00    +0.000 A 
ATOM      5  C   UNL     1      44.828   3.423   9.629  0.00  0.00    +0.000 A 
ATOM     11  N   UNL     1      45.226   2.117   9.533  0.00  0.00    +0.000 N 
ATOM     12  N   UNL     1      45.922   1.838   8.412  0.00  0.00    +0.000 NA
ATOM     14  H   UNL     1      45.046   1.369  10.193  0.00  0.00    +0.000 HD
ENDROOT
BRANCH   5   6
ATOM      6  C   UNL     1      44.058   3.982  10.699  0.00  0.00    +0.000 A 
ATOM      7  C   UNL     1      43.347   5.167  10.655  0.00  0.00    +0.000 A 
ATOM      8  C   UNL     1      42.707   5.471  11.890  0.00  0.00    +0.000 A 
ATOM      9  C   UNL     1      42.941   4.501  12.837  0.00  0.00    +0.000 A 
ATOM     10  S   UNL     1      43.907   3.227  12.229  0.00  0.00    +0.000 S 
ENDBRANCH   5   6
BRANCH   3   2
ATOM      2  C   UNL     1      46.641   3.152   6.443  0.00  0.00    +0.000 C 
BRANCH   2   1
ATOM      1  O   UNL     1      48.052   2.929   6.528  0.00  0.00    +0.000 OA
ATOM     13  H   UNL     1      48.294   3.100   7.453  0.00  0.00    +0.000 HD
ENDBRANCH   2   1
ENDBRANCH   3   2
TORSDOF 3
ENDMDL
MODEL 5
REMARK VINA RESULT:    -4.839      3.765      5.526
REMARK INTER + INTRA:          -5.661
REMARK INTER:                  -5.557
REMARK INTRA:                  -0.105
REMARK UNBOUND:                -0.115
REMARK  Name = 
REMARK  3 active torsions:
REMARK  status: ('A' for Active; 'I' for Inactive)
REMARK    1  A    between atoms: O_1  and  C_2
REMARK    2  A    between atoms: C_2  and  C_3
REMARK    3  A    between atoms: C_5  and  C_6
REMARK                            x       y       z     vdW  Elec       q    Type
REMARK                         _______ _______ _______ _____ _____    ______ ____
ROOT
ATOM      3  C   UNL     1      44.940   3.554   9.429  0.00  0.00    +0.000 A 
ATOM      4  C   UNL     1      44.934   4.184  10.692  0.00  0.00    +0.000 A 
ATOM      5  C   UNL     1      45.449   5.443  10.485  0.00  0.00    +0.000 A 
ATOM     11  N   UNL     1      45.696   5.509   9.141  0.00  0.00    +0.000 N 
ATOM     12  N   UNL     1      45.401   4.375   8.473  0.00  0.00    +0.000 NA
ATOM     14  H   UNL     1      46.075   6.295   8.623  0.00  0.00    +0.000 HD
ENDROOT
BRANCH   5   6
ATOM      6  C   UNL     1      45.694   6.491  11.430  0.00  0.00    +0.000 A 
ATOM      7  C   UNL     1      44.890   7.595  11.644  0.00  0.00    +0.000 A 
ATOM      8  C   UNL     1      45.418   8.476  12.629  0.00  0.00    +0.000 A 
ATOM      9  C   UNL     1      46.605   8.011  13.146  0.00  0.00    +0.000 A 
ATOM     10  S   UNL     1      47.063   6.514  12.458  0.00  0.00    +0.000 S 
ENDBRANCH   5   6
BRANCH   3   2
ATOM      2  C   UNL     1      44.521   2.157   9.124  0.00  0.00    +0.000 C 
BRANCH   2   1
ATOM      1  O   UNL     1      45.644   1.302   8.889  0.00  0.00    +0.000 OA
ATOM     13  H   UNL     1      46.430   1.826   9.115  0.00  0.00    +0.000 HD
ENDBRANCH   2   1
ENDBRANCH   3   2
TORSDOF 3
ENDMDL
MODEL 6
REMARK VINA RESULT:    -4.738      3.608      4.085
REMARK INTER + INTRA:          -5.545
REMARK INTER:                  -5.431
REMARK INTRA:                  -0.114
REMARK UNBOUND:                -0.115
REMARK  Name = 
REMARK  3 active torsions:
REMARK  status: ('A' for Active; 'I' for Inactive)
REMARK    1  A    between atoms: O_1  and  C_2
REMARK    2  A    between atoms: C_2  and  C_3
REMARK    3  A    between atoms: C_5  and  C_6
REMARK                            x       y       z     vdW  Elec       q    Type
REMARK                         _______ _______ _______ _____ _____    ______ ____
ROOT
ATOM      3  C   UNL     1      45.953   7.468  12.114  0.00  0.00    +0.000 A 
ATOM      4  C   UNL     1      46.360   6.266  11.494  0.00  0.00    +0.000 A 
ATOM      5  C   UNL     1      45.260   5.810  10.805  0.00  0.00    +0.000 A 
ATOM     11  N   UNL     1      44.292   6.754  11.013  0.00  0.00    +0.000 N 
ATOM     12  N   UNL     1      44.682   7.771  11.808  0.00  0.00    +0.000 NA
ATOM     14  H   UNL     1      43.345   6.755  10.650  0.00  0.00    +0.000 HD
ENDROOT
BRANCH   5   6
ATOM      6  C   UNL     1      45.107   4.618  10.025  0.00  0.00    +0.000 A 
ATOM      7  C   UNL     1      45.525   4.444   8.719  0.00  0.00    +0.000 A 
ATOM      8  C   UNL     1      45.203   3.155   8.206  0.00  0.00    +0.000 A 
ATOM      9  C   UNL     1      44.557   2.381   9.142  0.00  0.00    +0.000 A 
ATOM     10  S   UNL     1      44.363   3.200  10.631  0.00  0.00    +0.000 S 
ENDBRANCH   5   6
BRANCH   3   2
ATOM      2  C   UNL     1      46.767   8.330  13.016  0.00  0.00    +0.000 C 
BRANCH   2   1
ATOM      1  O   UNL     1      47.287   7.596  14.129  0.00  0.00    +0.000 OA
ATOM     13  H   UNL     1      46.534   7.446  14.724  0.00  0.00    +0.000 HD
ENDBRANCH   2   1
ENDBRANCH   3   2
TORSDOF 3
ENDMDL
MODEL 7
REMARK VINA RESULT:    -4.730      4.348      5.529
REMARK INTER + INTRA:          -5.536
REMARK INTER:                  -5.414
REMARK INTRA:                  -0.122
REMARK UNBOUND:                -0.115
REMARK  Name = 
REMARK  3 active torsions:
REMARK  status: ('A' for Active; 'I' for Inactive)
REMARK    1  A    between atoms: O_1  and  C_2
REMARK    2  A    between atoms: C_2  and  C_3
REMARK    3  A    between atoms: C_5  and  C_6
REMARK                            x       y       z     vdW  Elec       q    Type
REMARK                         _______ _______ _______ _____ _____    ______ ____
ROOT
ATOM      3  C   UNL     1      43.876   4.326  11.942  0.00  0.00    +0.000 A 
ATOM      4  C   UNL     1      45.136   4.903  11.673  0.00  0.00    +0.000 A 
ATOM      5  C   UNL     1      45.111   6.147  12.261  0.00  0.00    +0.000 A 
ATOM     11  N   UNL     1      43.885   6.231  12.863  0.00  0.00    +0.000 N 
ATOM     12  N   UNL     1      43.110   5.142  12.683  0.00  0.00    +0.000 NA
ATOM     14  H   UNL     1      43.515   7.008  13.400  0.00  0.00    +0.000 HD
ENDROOT
BRANCH   5   6
ATOM      6  C   UNL     1      46.116   7.167  12.272  0.00  0.00    +0.000 A 
ATOM      7  C   UNL     1      47.412   7.034  11.809  0.00  0.00    +0.000 A 
ATOM      8  C   UNL     1      48.182   8.218  11.985  0.00  0.00    +0.000 A 
ATOM      9  C   UNL     1      47.446   9.224  12.568  0.00  0.00    +0.000 A 
ATOM     10  S   UNL     1      45.834   8.743  12.879  0.00  0.00    +0.000 S 
ENDBRANCH   5   6
BRANCH   3   2
ATOM      2  C   UNL     1      43.384   2.997  11.481  0.00  0.00    +0.000 C 
BRANCH   2   1
ATOM      1  O   UNL     1      43.456   2.012  12.517  0.00  0.00    +0.000 OA
ATOM     13  H   UNL     1      43.034   2.412  13.295  0.00  0.00    +0.000 HD
ENDBRANCH   2   1
ENDBRANCH   3   2
TORSDOF 3
ENDMDL
MODEL 8
REMARK VINA RESULT:    -4.722      5.655      6.402
REMARK INTER + INTRA:          -5.527
REMARK INTER:                  -5.412
REMARK INTRA:                  -0.115
REMARK UNBOUND:                -0.115
REMARK  Name = 
REMARK  3 active torsions:
REMARK  status: ('A' for Active; 'I' for Inactive)
REMARK    1  A    between atoms: O_1  and  C_2
REMARK    2  A    between atoms: C_2  and  C_3
REMARK    3  A    between atoms: C_5  and  C_6
REMARK                            x       y       z     vdW  Elec       q    Type
REMARK                         _______ _______ _______ _____ _____    ______ ____
ROOT
ATOM      3  C   UNL     1      47.598   4.358  16.111  0.00  0.00    +0.000 A 
ATOM      4  C   UNL     1      46.794   4.008  15.005  0.00  0.00    +0.000 A 
ATOM      5  C   UNL     1      46.941   5.031  14.097  0.00  0.00    +0.000 A 
ATOM     11  N   UNL     1      47.828   5.897  14.677  0.00  0.00    +0.000 N 
ATOM     12  N   UNL     1      48.242   5.517  15.903  0.00  0.00    +0.000 NA
ATOM     14  H   UNL     1      48.180   6.767  14.292  0.00  0.00    +0.000 HD
ENDROOT
BRANCH   5   6
ATOM      6  C   UNL     1      46.327   5.203  12.815  0.00  0.00    +0.000 A 
ATOM      7  C   UNL     1      46.583   6.227  11.923  0.00  0.00    +0.000 A 
ATOM      8  C   UNL     1      45.790   6.141  10.743  0.00  0.00    +0.000 A 
ATOM      9  C   UNL     1      44.959   5.045  10.767  0.00  0.00    +0.000 A 
ATOM     10  S   UNL     1      45.153   4.121  12.194  0.00  0.00    +0.000 S 
ENDBRANCH   5   6
BRANCH   3   2
ATOM      2  C   UNL     1      47.748   3.598  17.384  0.00  0.00    +0.000 C 
BRANCH   2   1
ATOM      1  O   UNL     1      46.582   2.827  17.686  0.00  0.00    +0.000 OA
ATOM     13  H   UNL     1      46.902   2.011  18.105  0.00  0.00    +0.000 HD
ENDBRANCH   2   1
ENDBRANCH   3   2
TORSDOF 3
ENDMDL
MODEL 9
REMARK VINA RESULT:    -4.654      4.368      5.827
REMARK INTER + INTRA:          -5.449
REMARK INTER:                  -5.329
REMARK INTRA:                  -0.120
REMARK UNBOUND:                -0.115
REMARK  Name = 
REMARK  3 active torsions:
REMARK  status: ('A' for Active; 'I' for Inactive)
REMARK    1  A    between atoms: O_1  and  C_2
REMARK    2  A    between atoms: C_2  and  C_3
REMARK    3  A    between atoms: C_5  and  C_6
REMARK                            x       y       z     vdW  Elec       q    Type
REMARK                         _______ _______ _______ _____ _____    ______ ____
ROOT
ATOM      3  C   UNL     1      44.709   3.665  11.797  0.00  0.00    +0.000 A 
ATOM      4  C   UNL     1      45.070   5.025  11.677  0.00  0.00    +0.000 A 
ATOM      5  C   UNL     1      45.888   5.292  12.751  0.00  0.00    +0.000 A 
ATOM     11  N   UNL     1      45.998   4.102  13.419  0.00  0.00    +0.000 N 
ATOM     12  N   UNL     1      45.289   3.096  12.866  0.00  0.00    +0.000 NA
ATOM     14  H   UNL     1      46.531   3.916  14.261  0.00  0.00    +0.000 HD
ENDROOT
BRANCH   5   6
ATOM      6  C   UNL     1      46.512   6.522  13.134  0.00  0.00    +0.000 A 
ATOM      7  C   UNL     1      45.990   7.789  12.951  0.00  0.00    +0.000 A 
ATOM      8  C   UNL     1      46.863   8.815  13.410  0.00  0.00    +0.000 A 
ATOM      9  C   UNL     1      48.023   8.299  13.939  0.00  0.00    +0.000 A 
ATOM     10  S   UNL     1      48.043   6.589  13.899  0.00  0.00    +0.000 S 
ENDBRANCH   5   6
BRANCH   3   2
ATOM      2  C   UNL     1      43.795   2.900  10.904  0.00  0.00    +0.000 C 
BRANCH   2   1
ATOM      1  O   UNL     1      43.059   1.904  11.620  0.00  0.00    +0.000 OA
ATOM     13  H   UNL     1      42.618   1.361  10.946  0.00  0.00    +0.000 HD
ENDBRANCH   2   1
ENDBRANCH   3   2
TORSDOF 3
ENDMDL
