MODEL 1
REMARK VINA RESULT:    -8.919      0.000      0.000
REMARK INTER + INTRA:         -13.364
REMARK INTER:                 -12.569
REMARK INTRA:                  -0.795
REMARK UNBOUND:                -0.795
REMARK  Name = 
REMARK  8 active torsions:
REMARK  status: ('A' for Active; 'I' for Inactive)
REMARK    1  A    between atoms: C_2  and  C_24
REMARK    2  A    between atoms: N_3  and  C_4
REMARK    3  A    between atoms: C_4  and  C_5
REMARK    4  A    between atoms: C_8  and  C_9
REMARK    5  A    between atoms: C_9  and  N_10
REMARK    6  A    between atoms: C_11  and  C_13
REMARK    7  A    between atoms: C_17  and  O_18
REMARK    8  A    between atoms: N_20  and  O_21
REMARK                            x       y       z     vdW  Elec       q    Type
REMARK                         _______ _______ _______ _____ _____    ______ ____
ROOT
ATOM      5  C   UNL     1      46.885   8.130  13.381  0.00  0.00    +0.000 A 
ATOM      6  C   UNL     1      47.239   6.811  13.073  0.00  0.00    +0.000 A 
ATOM      7  C   UNL     1      46.386   5.996  12.319  0.00  0.00    +0.000 A 
ATOM      8  C   UNL     1      45.169   6.493  11.832  0.00  0.00    +0.000 A 
ATOM     22  C   UNL     1      44.812   7.812  12.141  0.00  0.00    +0.000 A 
ATOM     23  C   UNL     1      45.664   8.626  12.898  0.00  0.00    +0.000 A 
ENDROOT
BRANCH   8   9
ATOM      9  C   UNL     1      44.263   5.623  10.996  0.00  0.00    +0.000 C 
BRANCH   9  10
ATOM     10  N   UNL     1      44.979   4.957   9.938  0.00  0.00    +0.000 N 
ATOM     11  C   UNL     1      44.805   3.620   9.681  0.00  0.00    +0.000 C 
ATOM     12  O   UNL     1      43.944   2.939  10.228  0.00  0.00    +0.000 OA
ATOM     35  H   UNL     1      45.788   5.405   9.529  0.00  0.00    +0.000 HD
BRANCH  11  13
ATOM     13  C   UNL     1      45.741   3.048   8.642  0.00  0.00    +0.000 A 
ATOM     14  C   UNL     1      45.829   1.705   8.624  0.00  0.00    +0.000 A 
ATOM     15  C   UNL     1      46.709   1.069   7.617  0.00  0.00    +0.000 A 
ATOM     16  O   UNL     1      46.822  -0.150   7.520  0.00  0.00    +0.000 OA
ATOM     17  C   UNL     1      47.481   1.957   6.699  0.00  0.00    +0.000 A 
ATOM     19  C   UNL     1      47.314   3.276   6.834  0.00  0.00    +0.000 A 
ATOM     20  N   UNL     1      46.447   3.858   7.742  0.00  0.00    +0.000 N 
BRANCH  17  18
ATOM     18  O   UNL     1      48.340   1.396   5.778  0.00  0.00    +0.000 OA
ATOM     36  H   UNL     1      47.768   0.851   5.196  0.00  0.00    +0.000 HD
ENDBRANCH  17  18
BRANCH  20  21
ATOM     21  O   UNL     1      46.584   5.224   7.995  0.00  0.00    +0.000 OA
ATOM     37  H   UNL     1      45.984   5.386   8.747  0.00  0.00    +0.000 HD
ENDBRANCH  20  21
ENDBRANCH  11  13
ENDBRANCH   9  10
ENDBRANCH   8   9
BRANCH   5   4
ATOM      4  C   UNL     1      47.820   9.004  14.181  0.00  0.00    +0.000 C 
BRANCH   4   3
ATOM      1  O   UNL     1      49.877   7.491  15.369  0.00  0.00    +0.000 OA
ATOM      2  C   UNL     1      48.884   7.779  16.026  0.00  0.00    +0.000 C 
ATOM      3  N   UNL     1      47.873   8.586  15.557  0.00  0.00    +0.000 N 
ATOM     34  H   UNL     1      47.022   8.671  16.090  0.00  0.00    +0.000 HD
BRANCH   2  24
ATOM     24  C   UNL     1      48.570   7.141  17.304  0.00  0.00    +0.000 A 
ATOM     25  C   UNL     1      48.542   7.858  18.488  0.00  0.00    +0.000 A 
ATOM     26  S   UNL     1      48.513   6.843  19.867  0.00  0.00    +0.000 S 
ATOM     27  C   UNL     1      48.533   5.440  18.898  0.00  0.00    +0.000 A 
ATOM     28  N   UNL     1      48.731   4.199  19.417  0.00  0.00    +0.000 NA
ATOM     29  C   UNL     1      48.728   3.252  18.538  0.00  0.00    +0.000 A 
ATOM     30  N   UNL     1      48.459   3.416  17.200  0.00  0.00    +0.000 N 
ATOM     31  C   UNL     1      48.171   4.642  16.650  0.00  0.00    +0.000 A 
ATOM     32  O   UNL     1      47.798   4.762  15.488  0.00  0.00    +0.000 OA
ATOM     33  C   UNL     1      48.365   5.746  17.564  0.00  0.00    +0.000 A 
ATOM     38  H   UNL     1      48.381   2.621  16.584  0.00  0.00    +0.000 HD
ENDBRANCH   2  24
ENDBRANCH   4   3
ENDBRANCH   5   4
TORSDOF 8
ENDMDL
MODEL 2
REMARK VINA RESULT:    -8.609      1.289      1.955
REMARK INTER + INTRA:         -12.927
REMARK INTER:                 -11.311
REMARK INTRA:                  -1.616
REMARK UNBOUND:                -0.795
REMARK  Name = 
REMARK  8 active torsions:
REMARK  status: ('A' for Active; 'I' for Inactive)
REMARK    1  A    between atoms: C_2  and  C_24
REMARK    2  A    between atoms: N_3  and  C_4
REMARK    3  A    between atoms: C_4  and  C_5
REMARK    4  A    between atoms: C_8  and  C_9
REMARK    5  A    between atoms: C_9  and  N_10
REMARK    6  A    between atoms: C_11  and  C_13
REMARK    7  A    between atoms: C_17  and  O_18
REMARK    8  A    between atoms: N_20  and  O_21
REMARK                            x       y       z     vdW  Elec       q    Type
REMARK                         _______ _______ _______ _____ _____    ______ ____
ROOT
ATOM      5  C   UNL     1      48.110   8.214  13.512  0.00  0.00    +0.000 A 
ATOM      6  C   UNL     1      46.794   8.665  13.673  0.00  0.00    +0.000 A 
ATOM      7  C   UNL     1      45.769   8.204  12.838  0.00  0.00    +0.000 A 
ATOM      8  C   UNL     1      46.034   7.257  11.838  0.00  0.00    +0.000 A 
ATOM     22  C   UNL     1      47.350   6.806  11.674  0.00  0.00    +0.000 A 
ATOM     23  C   UNL     1      48.375   7.271  12.508  0.00  0.00    +0.000 A 
ENDROOT
BRANCH   8   9
ATOM      9  C   UNL     1      44.924   6.740  10.957  0.00  0.00    +0.000 C 
BRANCH   9  10
ATOM     10  N   UNL     1      45.380   5.700  10.069  0.00  0.00    +0.000 N 
ATOM     11  C   UNL     1      44.579   4.637   9.734  0.00  0.00    +0.000 C 
ATOM     12  O   UNL     1      43.395   4.565  10.046  0.00  0.00    +0.000 OA
ATOM     35  H   UNL     1      46.368   5.615   9.871  0.00  0.00    +0.000 HD
BRANCH  11  13
ATOM     13  C   UNL     1      45.261   3.563   8.919  0.00  0.00    +0.000 A 
ATOM     14  C   UNL     1      45.958   4.004   7.855  0.00  0.00    +0.000 A 
ATOM     15  C   UNL     1      46.673   3.011   7.020  0.00  0.00    +0.000 A 
ATOM     16  O   UNL     1      47.351   3.337   6.049  0.00  0.00    +0.000 OA
ATOM     17  C   UNL     1      46.550   1.569   7.383  0.00  0.00    +0.000 A 
ATOM     19  C   UNL     1      45.813   1.266   8.457  0.00  0.00    +0.000 A 
ATOM     20  N   UNL     1      45.194   2.206   9.262  0.00  0.00    +0.000 N 
BRANCH  17  18
ATOM     18  O   UNL     1      47.170   0.618   6.602  0.00  0.00    +0.000 OA
ATOM     36  H   UNL     1      47.353  -0.130   7.210  0.00  0.00    +0.000 HD
ENDBRANCH  17  18
BRANCH  20  21
ATOM     21  O   UNL     1      44.218   1.761  10.156  0.00  0.00    +0.000 OA
ATOM     37  H   UNL     1      43.495   1.449   9.581  0.00  0.00    +0.000 HD
ENDBRANCH  20  21
ENDBRANCH  11  13
ENDBRANCH   9  10
ENDBRANCH   8   9
BRANCH   5   4
ATOM      4  C   UNL     1      49.202   8.706  14.430  0.00  0.00    +0.000 C 
BRANCH   4   3
ATOM      1  O   UNL     1      50.922   6.739  15.480  0.00  0.00    +0.000 OA
ATOM      2  C   UNL     1      49.942   7.089  16.125  0.00  0.00    +0.000 C 
ATOM      3  N   UNL     1      49.097   8.102  15.732  0.00  0.00    +0.000 N 
ATOM     34  H   UNL     1      48.235   8.249  16.233  0.00  0.00    +0.000 HD
BRANCH   2  24
ATOM     24  C   UNL     1      49.449   6.342  17.282  0.00  0.00    +0.000 A 
ATOM     25  C   UNL     1      49.899   6.606  18.565  0.00  0.00    +0.000 A 
ATOM     26  S   UNL     1      49.461   5.380  19.677  0.00  0.00    +0.000 S 
ATOM     27  C   UNL     1      48.663   4.490  18.461  0.00  0.00    +0.000 A 
ATOM     28  N   UNL     1      48.227   3.218  18.657  0.00  0.00    +0.000 NA
ATOM     29  C   UNL     1      47.656   2.689  17.625  0.00  0.00    +0.000 A 
ATOM     30  N   UNL     1      47.401   3.342  16.443  0.00  0.00    +0.000 N 
ATOM     31  C   UNL     1      47.751   4.654  16.233  0.00  0.00    +0.000 A 
ATOM     32  O   UNL     1      47.399   5.269  15.233  0.00  0.00    +0.000 OA
ATOM     33  C   UNL     1      48.568   5.211  17.289  0.00  0.00    +0.000 A 
ATOM     38  H   UNL     1      46.868   2.900  15.709  0.00  0.00    +0.000 HD
ENDBRANCH   2  24
ENDBRANCH   4   3
ENDBRANCH   5   4
TORSDOF 8
ENDMDL
MODEL 3
REMARK VINA RESULT:    -8.565      1.428      1.509
REMARK INTER + INTRA:         -12.865
REMARK INTER:                 -12.123
REMARK INTRA:                  -0.743
REMARK UNBOUND:                -0.795
REMARK  Name = 
REMARK  8 active torsions:
REMARK  status: ('A' for Active; 'I' for Inactive)
REMARK    1  A    between atoms: C_2  and  C_24
REMARK    2  A    between atoms: N_3  and  C_4
REMARK    3  A    between atoms: C_4  and  C_5
REMARK    4  A    between atoms: C_8  and  C_9
REMARK    5  A    between atoms: C_9  and  N_10
REMARK    6  A    between atoms: C_11  and  C_13
REMARK    7  A    between atoms: C_17  and  O_18
REMARK    8  A    between atoms: N_20  and  O_21
REMARK                            x       y       z     vdW  Elec       q    Type
REMARK                         _______ _______ _______ _____ _____    ______ ____
ROOT
ATOM      5  C   UNL     1      46.687   7.638  13.568  0.00  0.00    +0.000 A 
ATOM      6  C   UNL     1      46.817   6.257  13.379  0.00  0.00    +0.000 A 
ATOM      7  C   UNL     1      45.964   5.569  12.507  0.00  0.00    +0.000 A 
ATOM      8  C   UNL     1      44.979   6.254  11.781  0.00  0.00    +0.000 A 
ATOM     22  C   UNL     1      44.847   7.636  11.971  0.00  0.00    +0.000 A 
ATOM     23  C   UNL     1      45.698   8.323  12.846  0.00  0.00    +0.000 A 
ENDROOT
BRANCH   8   9
ATOM      9  C   UNL     1      44.080   5.517  10.821  0.00  0.00    +0.000 C 
BRANCH   9  10
ATOM     10  N   UNL     1      44.824   4.871   9.770  0.00  0.00    +0.000 N 
ATOM     11  C   UNL     1      44.833   3.506   9.627  0.00  0.00    +0.000 C 
ATOM     12  O   UNL     1      44.111   2.759  10.280  0.00  0.00    +0.000 OA
ATOM     35  H   UNL     1      45.536   5.392   9.275  0.00  0.00    +0.000 HD
BRANCH  11  13
ATOM     13  C   UNL     1      45.782   2.985   8.573  0.00  0.00    +0.000 A 
ATOM     14  C   UNL     1      45.886   1.645   8.504  0.00  0.00    +0.000 A 
ATOM     15  C   UNL     1      46.780   1.059   7.480  0.00  0.00    +0.000 A 
ATOM     16  O   UNL     1      46.908  -0.155   7.336  0.00  0.00    +0.000 OA
ATOM     17  C   UNL     1      47.549   1.990   6.603  0.00  0.00    +0.000 A 
ATOM     19  C   UNL     1      47.365   3.301   6.788  0.00  0.00    +0.000 A 
ATOM     20  N   UNL     1      46.485   3.838   7.711  0.00  0.00    +0.000 N 
BRANCH  17  18
ATOM     18  O   UNL     1      48.420   1.476   5.667  0.00  0.00    +0.000 OA
ATOM     36  H   UNL     1      47.884   1.368   4.852  0.00  0.00    +0.000 HD
ENDBRANCH  17  18
BRANCH  20  21
ATOM     21  O   UNL     1      46.605   5.195   8.018  0.00  0.00    +0.000 OA
ATOM     37  H   UNL     1      47.437   5.462   7.587  0.00  0.00    +0.000 HD
ENDBRANCH  20  21
ENDBRANCH  11  13
ENDBRANCH   9  10
ENDBRANCH   8   9
BRANCH   5   4
ATOM      4  C   UNL     1      47.623   8.371  14.498  0.00  0.00    +0.000 C 
BRANCH   4   3
ATOM      1  O   UNL     1      48.875   9.004  16.940  0.00  0.00    +0.000 OA
ATOM      2  C   UNL     1      48.988   7.875  16.480  0.00  0.00    +0.000 C 
ATOM      3  N   UNL     1      48.342   7.452  15.341  0.00  0.00    +0.000 N 
ATOM     34  H   UNL     1      48.584   6.561  14.938  0.00  0.00    +0.000 HD
BRANCH   2  24
ATOM     24  C   UNL     1      49.973   6.915  16.976  0.00  0.00    +0.000 A 
ATOM     25  C   UNL     1      51.325   7.216  17.023  0.00  0.00    +0.000 A 
ATOM     26  S   UNL     1      52.294   5.829  17.289  0.00  0.00    +0.000 S 
ATOM     27  C   UNL     1      50.923   4.818  17.349  0.00  0.00    +0.000 A 
ATOM     28  N   UNL     1      51.017   3.462  17.342  0.00  0.00    +0.000 NA
ATOM     29  C   UNL     1      49.878   2.852  17.379  0.00  0.00    +0.000 A 
ATOM     30  N   UNL     1      48.657   3.469  17.509  0.00  0.00    +0.000 N 
ATOM     31  C   UNL     1      48.523   4.833  17.604  0.00  0.00    +0.000 A 
ATOM     32  O   UNL     1      47.449   5.365  17.858  0.00  0.00    +0.000 OA
ATOM     33  C   UNL     1      49.755   5.552  17.364  0.00  0.00    +0.000 A 
ATOM     38  H   UNL     1      47.812   2.929  17.625  0.00  0.00    +0.000 HD
ENDBRANCH   2  24
ENDBRANCH   4   3
ENDBRANCH   5   4
TORSDOF 8
ENDMDL
MODEL 4
REMARK VINA RESULT:    -8.348      1.688      1.979
REMARK INTER + INTRA:         -12.559
REMARK INTER:                 -11.669
REMARK INTRA:                  -0.890
REMARK UNBOUND:                -0.795
REMARK  Name = 
REMARK  8 active torsions:
REMARK  status: ('A' for Active; 'I' for Inactive)
REMARK    1  A    between atoms: C_2  and  C_24
REMARK    2  A    between atoms: N_3  and  C_4
REMARK    3  A    between atoms: C_4  and  C_5
REMARK    4  A    between atoms: C_8  and  C_9
REMARK    5  A    between atoms: C_9  and  N_10
REMARK    6  A    between atoms: C_11  and  C_13
REMARK    7  A    between atoms: C_17  and  O_18
REMARK    8  A    between atoms: N_20  and  O_21
REMARK                            x       y       z     vdW  Elec       q    Type
REMARK                         _______ _______ _______ _____ _____    ______ ____
ROOT
ATOM      5  C   UNL     1      46.367   8.310  13.141  0.00  0.00    +0.000 A 
ATOM      6  C   UNL     1      45.428   8.771  12.210  0.00  0.00    +0.000 A 
ATOM      7  C   UNL     1      44.671   7.872  11.449  0.00  0.00    +0.000 A 
ATOM      8  C   UNL     1      44.817   6.489  11.623  0.00  0.00    +0.000 A 
ATOM     22  C   UNL     1      45.757   6.026  12.553  0.00  0.00    +0.000 A 
ATOM     23  C   UNL     1      46.516   6.926  13.311  0.00  0.00    +0.000 A 
ENDROOT
BRANCH   8   9
ATOM      9  C   UNL     1      43.981   5.522  10.822  0.00  0.00    +0.000 C 
BRANCH   9  10
ATOM     10  N   UNL     1      44.750   4.860   9.800  0.00  0.00    +0.000 N 
ATOM     11  C   UNL     1      44.707   3.498   9.633  0.00  0.00    +0.000 C 
ATOM     12  O   UNL     1      43.921   2.774  10.236  0.00  0.00    +0.000 OA
ATOM     35  H   UNL     1      45.509   5.357   9.351  0.00  0.00    +0.000 HD
BRANCH  11  13
ATOM     13  C   UNL     1      45.687   2.952   8.621  0.00  0.00    +0.000 A 
ATOM     14  C   UNL     1      45.796   1.611   8.591  0.00  0.00    +0.000 A 
ATOM     15  C   UNL     1      46.720   1.000   7.609  0.00  0.00    +0.000 A 
ATOM     16  O   UNL     1      46.855  -0.217   7.502  0.00  0.00    +0.000 OA
ATOM     17  C   UNL     1      47.510   1.909   6.728  0.00  0.00    +0.000 A 
ATOM     19  C   UNL     1      47.317   3.225   6.871  0.00  0.00    +0.000 A 
ATOM     20  N   UNL     1      46.411   3.783   7.755  0.00  0.00    +0.000 N 
BRANCH  17  18
ATOM     18  O   UNL     1      48.408   1.373   5.831  0.00  0.00    +0.000 OA
ATOM     36  H   UNL     1      49.262   1.814   6.032  0.00  0.00    +0.000 HD
ENDBRANCH  17  18
BRANCH  20  21
ATOM     21  O   UNL     1      46.518   5.148   8.028  0.00  0.00    +0.000 OA
ATOM     37  H   UNL     1      46.464   5.199   9.000  0.00  0.00    +0.000 HD
ENDBRANCH  20  21
ENDBRANCH  11  13
ENDBRANCH   9  10
ENDBRANCH   8   9
BRANCH   5   4
ATOM      4  C   UNL     1      47.165   9.289  13.968  0.00  0.00    +0.000 C 
BRANCH   4   3
ATOM      1  O   UNL     1      48.725  10.533  15.955  0.00  0.00    +0.000 OA
ATOM      2  C   UNL     1      48.294   9.403  16.147  0.00  0.00    +0.000 C 
ATOM      3  N   UNL     1      47.453   8.753  15.272  0.00  0.00    +0.000 N 
ATOM     34  H   UNL     1      47.246   7.778  15.418  0.00  0.00    +0.000 HD
BRANCH   2  24
ATOM     24  C   UNL     1      48.778   8.545  17.228  0.00  0.00    +0.000 A 
ATOM     25  C   UNL     1      48.358   8.715  18.537  0.00  0.00    +0.000 A 
ATOM     26  S   UNL     1      49.325   7.847  19.652  0.00  0.00    +0.000 S 
ATOM     27  C   UNL     1      50.309   7.234  18.401  0.00  0.00    +0.000 A 
ATOM     28  N   UNL     1      51.473   6.578  18.646  0.00  0.00    +0.000 NA
ATOM     29  C   UNL     1      52.097   6.193  17.582  0.00  0.00    +0.000 A 
ATOM     30  N   UNL     1      51.625   6.325  16.298  0.00  0.00    +0.000 N 
ATOM     31  C   UNL     1      50.413   6.908  16.013  0.00  0.00    +0.000 A 
ATOM     32  O   UNL     1      49.937   6.898  14.883  0.00  0.00    +0.000 OA
ATOM     33  C   UNL     1      49.786   7.528  17.159  0.00  0.00    +0.000 A 
ATOM     38  H   UNL     1      52.120   5.919  15.517  0.00  0.00    +0.000 HD
ENDBRANCH   2  24
ENDBRANCH   4   3
ENDBRANCH   5   4
TORSDOF 8
ENDMDL
MODEL 5
REMARK VINA RESULT:    -8.317      1.330      2.029
REMARK INTER + INTRA:         -12.516
REMARK INTER:                 -11.853
REMARK INTRA:                  -0.662
REMARK UNBOUND:                -0.795
REMARK  Name = 
REMARK  8 active torsions:
REMARK  status: ('A' for Active; 'I' for Inactive)
REMARK    1  A    between atoms: C_2  and  C_24
REMARK    2  A    between atoms: N_3  and  C_4
REMARK    3  A    between atoms: C_4  and  C_5
REMARK    4  A    between atoms: C_8  and  C_9
REMARK    5  A    between atoms: C_9  and  N_10
REMARK    6  A    between atoms: C_11  and  C_13
REMARK    7  A    between atoms: C_17  and  O_18
REMARK    8  A    between atoms: N_20  and  O_21
REMARK                            x       y       z     vdW  Elec       q    Type
REMARK                         _______ _______ _______ _____ _____    ______ ____
ROOT
ATOM      5  C   UNL     1      46.827   7.886  13.591  0.00  0.00    +0.000 A 
ATOM      6  C   UNL     1      46.967   6.493  13.570  0.00  0.00    +0.000 A 
ATOM      7  C   UNL     1      46.127   5.699  12.781  0.00  0.00    +0.000 A 
ATOM      8  C   UNL     1      45.144   6.283  11.970  0.00  0.00    +0.000 A 
ATOM     22  C   UNL     1      45.001   7.677  11.991  0.00  0.00    +0.000 A 
ATOM     23  C   UNL     1      45.839   8.471  12.784  0.00  0.00    +0.000 A 
ENDROOT
BRANCH   8   9
ATOM      9  C   UNL     1      44.258   5.428  11.099  0.00  0.00    +0.000 C 
BRANCH   9  10
ATOM     10  N   UNL     1      44.994   4.802  10.030  0.00  0.00    +0.000 N 
ATOM     11  C   UNL     1      44.780   3.493   9.679  0.00  0.00    +0.000 C 
ATOM     12  O   UNL     1      43.870   2.814  10.144  0.00  0.00    +0.000 OA
ATOM     35  H   UNL     1      45.837   5.241   9.685  0.00  0.00    +0.000 HD
BRANCH  11  13
ATOM     13  C   UNL     1      45.739   2.949   8.645  0.00  0.00    +0.000 A 
ATOM     14  C   UNL     1      45.857   1.609   8.618  0.00  0.00    +0.000 A 
ATOM     15  C   UNL     1      46.760   1.000   7.615  0.00  0.00    +0.000 A 
ATOM     16  O   UNL     1      46.901  -0.216   7.510  0.00  0.00    +0.000 OA
ATOM     17  C   UNL     1      47.521   1.911   6.711  0.00  0.00    +0.000 A 
ATOM     19  C   UNL     1      47.322   3.226   6.854  0.00  0.00    +0.000 A 
ATOM     20  N   UNL     1      46.435   3.782   7.758  0.00  0.00    +0.000 N 
BRANCH  17  18
ATOM     18  O   UNL     1      48.400   1.378   5.795  0.00  0.00    +0.000 OA
ATOM     36  H   UNL     1      49.015   2.111   5.574  0.00  0.00    +0.000 HD
ENDBRANCH  17  18
BRANCH  20  21
ATOM     21  O   UNL     1      46.539   5.149   8.023  0.00  0.00    +0.000 OA
ATOM     37  H   UNL     1      47.168   5.472   7.353  0.00  0.00    +0.000 HD
ENDBRANCH  20  21
ENDBRANCH  11  13
ENDBRANCH   9  10
ENDBRANCH   8   9
BRANCH   5   4
ATOM      4  C   UNL     1      47.749   8.733  14.433  0.00  0.00    +0.000 C 
BRANCH   4   3
ATOM      1  O   UNL     1      50.023   7.237  15.156  0.00  0.00    +0.000 OA
ATOM      2  C   UNL     1      49.095   7.344  15.948  0.00  0.00    +0.000 C 
ATOM      3  N   UNL     1      47.986   8.124  15.716  0.00  0.00    +0.000 N 
ATOM     34  H   UNL     1      47.198   8.061  16.341  0.00  0.00    +0.000 HD
BRANCH   2  24
ATOM     24  C   UNL     1      48.972   6.503  17.138  0.00  0.00    +0.000 A 
ATOM     25  C   UNL     1      49.004   5.120  17.059  0.00  0.00    +0.000 A 
ATOM     26  S   UNL     1      48.481   4.370  18.507  0.00  0.00    +0.000 S 
ATOM     27  C   UNL     1      48.211   5.880  19.252  0.00  0.00    +0.000 A 
ATOM     28  N   UNL     1      47.560   6.000  20.440  0.00  0.00    +0.000 NA
ATOM     29  C   UNL     1      47.433   7.218  20.852  0.00  0.00    +0.000 A 
ATOM     30  N   UNL     1      47.971   8.321  20.234  0.00  0.00    +0.000 N 
ATOM     31  C   UNL     1      48.707   8.235  19.077  0.00  0.00    +0.000 A 
ATOM     32  O   UNL     1      49.299   9.201  18.609  0.00  0.00    +0.000 OA
ATOM     33  C   UNL     1      48.697   6.916  18.483  0.00  0.00    +0.000 A 
ATOM     38  H   UNL     1      47.913   9.235  20.659  0.00  0.00    +0.000 HD
ENDBRANCH   2  24
ENDBRANCH   4   3
ENDBRANCH   5   4
TORSDOF 8
ENDMDL
MODEL 6
REMARK VINA RESULT:    -7.707      3.440      4.585
REMARK INTER + INTRA:         -11.656
REMARK INTER:                 -10.163
REMARK INTRA:                  -1.493
REMARK UNBOUND:                -0.795
REMARK  Name = 
REMARK  8 active torsions:
REMARK  status: ('A' for Active; 'I' for Inactive)
REMARK    1  A    between atoms: C_2  and  C_24
REMARK    2  A    between atoms: N_3  and  C_4
REMARK    3  A    between atoms: C_4  and  C_5
REMARK    4  A    between atoms: C_8  and  C_9
REMARK    5  A    between atoms: C_9  and  N_10
REMARK    6  A    between atoms: C_11  and  C_13
REMARK    7  A    between atoms: C_17  and  O_18
REMARK    8  A    between atoms: N_20  and  O_21
REMARK                            x       y       z     vdW  Elec       q    Type
REMARK                         _______ _______ _______ _____ _____    ______ ____
ROOT
ATOM      5  C   UNL     1      47.242   8.077  13.708  0.00  0.00    +0.000 A 
ATOM      6  C   UNL     1      47.537   6.717  13.859  0.00  0.00    +0.000 A 
ATOM      7  C   UNL     1      46.747   5.739  13.244  0.00  0.00    +0.000 A 
ATOM      8  C   UNL     1      45.659   6.101  12.438  0.00  0.00    +0.000 A 
ATOM     22  C   UNL     1      45.361   7.462  12.288  0.00  0.00    +0.000 A 
ATOM     23  C   UNL     1      46.150   8.440  12.907  0.00  0.00    +0.000 A 
ENDROOT
BRANCH   8   9
ATOM      9  C   UNL     1      44.824   5.048  11.753  0.00  0.00    +0.000 C 
BRANCH   9  10
ATOM     10  N   UNL     1      45.479   4.516  10.584  0.00  0.00    +0.000 N 
ATOM     11  C   UNL     1      44.892   3.549   9.807  0.00  0.00    +0.000 C 
ATOM     12  O   UNL     1      43.735   3.174   9.965  0.00  0.00    +0.000 OA
ATOM     35  H   UNL     1      46.470   4.674  10.456  0.00  0.00    +0.000 HD
BRANCH  11  13
ATOM     13  C   UNL     1      45.774   2.995   8.712  0.00  0.00    +0.000 A 
ATOM     14  C   UNL     1      45.893   1.655   8.693  0.00  0.00    +0.000 A 
ATOM     15  C   UNL     1      46.723   1.035   7.634  0.00  0.00    +0.000 A 
ATOM     16  O   UNL     1      46.859  -0.181   7.534  0.00  0.00    +0.000 OA
ATOM     17  C   UNL     1      47.413   1.937   6.666  0.00  0.00    +0.000 A 
ATOM     19  C   UNL     1      47.221   3.253   6.807  0.00  0.00    +0.000 A 
ATOM     20  N   UNL     1      46.400   3.818   7.767  0.00  0.00    +0.000 N 
BRANCH  17  18
ATOM     18  O   UNL     1      48.224   1.394   5.694  0.00  0.00    +0.000 OA
ATOM     36  H   UNL     1      48.284   0.440   5.916  0.00  0.00    +0.000 HD
ENDBRANCH  17  18
BRANCH  20  21
ATOM     21  O   UNL     1      46.520   5.188   8.007  0.00  0.00    +0.000 OA
ATOM     37  H   UNL     1      47.209   5.249   8.693  0.00  0.00    +0.000 HD
ENDBRANCH  20  21
ENDBRANCH  11  13
ENDBRANCH   9  10
ENDBRANCH   8   9
BRANCH   5   4
ATOM      4  C   UNL     1      48.112   9.123  14.363  0.00  0.00    +0.000 C 
BRANCH   4   3
ATOM      1  O   UNL     1      50.195  10.841  13.564  0.00  0.00    +0.000 OA
ATOM      2  C   UNL     1      50.439   9.663  13.791  0.00  0.00    +0.000 C 
ATOM      3  N   UNL     1      49.504   8.773  14.269  0.00  0.00    +0.000 N 
ATOM     34  H   UNL     1      49.729   7.791  14.304  0.00  0.00    +0.000 HD
BRANCH   2  24
ATOM     24  C   UNL     1      51.695   9.026  13.396  0.00  0.00    +0.000 A 
ATOM     25  C   UNL     1      52.856   9.184  14.135  0.00  0.00    +0.000 A 
ATOM     26  S   UNL     1      54.247   8.655  13.287  0.00  0.00    +0.000 S 
ATOM     27  C   UNL     1      53.314   8.207  11.932  0.00  0.00    +0.000 A 
ATOM     28  N   UNL     1      53.876   7.867  10.741  0.00  0.00    +0.000 NA
ATOM     29  C   UNL     1      53.021   7.567   9.820  0.00  0.00    +0.000 A 
ATOM     30  N   UNL     1      51.660   7.490   9.999  0.00  0.00    +0.000 N 
ATOM     31  C   UNL     1      51.059   7.744  11.209  0.00  0.00    +0.000 A 
ATOM     32  O   UNL     1      49.865   7.539  11.397  0.00  0.00    +0.000 OA
ATOM     33  C   UNL     1      51.964   8.277  12.204  0.00  0.00    +0.000 A 
ATOM     38  H   UNL     1      51.057   7.159   9.262  0.00  0.00    +0.000 HD
ENDBRANCH   2  24
ENDBRANCH   4   3
ENDBRANCH   5   4
TORSDOF 8
ENDMDL
MODEL 7
REMARK VINA RESULT:    -7.666      3.980      8.628
REMARK INTER + INTRA:         -11.597
REMARK INTER:                 -10.234
REMARK INTRA:                  -1.363
REMARK UNBOUND:                -0.795
REMARK  Name = 
REMARK  8 active torsions:
REMARK  status: ('A' for Active; 'I' for Inactive)
REMARK    1  A    between atoms: C_2  and  C_24
REMARK    2  A    between atoms: N_3  and  C_4
REMARK    3  A    between atoms: C_4  and  C_5
REMARK    4  A    between atoms: C_8  and  C_9
REMARK    5  A    between atoms: C_9  and  N_10
REMARK    6  A    between atoms: C_11  and  C_13
REMARK    7  A    between atoms: C_17  and  O_18
REMARK    8  A    between atoms: N_20  and  O_21
REMARK                            x       y       z     vdW  Elec       q    Type
REMARK                         _______ _______ _______ _____ _____    ______ ____
ROOT
ATOM      5  C   UNL     1      47.930   8.045  13.611  0.00  0.00    +0.000 A 
ATOM      6  C   UNL     1      47.989   8.941  14.686  0.00  0.00    +0.000 A 
ATOM      7  C   UNL     1      48.364   8.506  15.963  0.00  0.00    +0.000 A 
ATOM      8  C   UNL     1      48.718   7.168  16.187  0.00  0.00    +0.000 A 
ATOM     22  C   UNL     1      48.658   6.270  15.113  0.00  0.00    +0.000 A 
ATOM     23  C   UNL     1      48.279   6.705  13.837  0.00  0.00    +0.000 A 
ENDROOT
BRANCH   8   9
ATOM      9  C   UNL     1      49.150   6.707  17.557  0.00  0.00    +0.000 C 
BRANCH   9  10
ATOM     10  N   UNL     1      50.054   5.587  17.490  0.00  0.00    +0.000 N 
ATOM     11  C   UNL     1      49.635   4.306  17.747  0.00  0.00    +0.000 C 
ATOM     12  O   UNL     1      48.456   4.007  17.912  0.00  0.00    +0.000 OA
ATOM     35  H   UNL     1      51.052   5.755  17.487  0.00  0.00    +0.000 HD
BRANCH  11  13
ATOM     13  C   UNL     1      50.737   3.273  17.783  0.00  0.00    +0.000 A 
ATOM     14  C   UNL     1      51.833   3.626  18.482  0.00  0.00    +0.000 A 
ATOM     15  C   UNL     1      52.947   2.655  18.582  0.00  0.00    +0.000 A 
ATOM     16  O   UNL     1      53.968   2.892  19.223  0.00  0.00    +0.000 OA
ATOM     17  C   UNL     1      52.810   1.352  17.869  0.00  0.00    +0.000 A 
ATOM     19  C   UNL     1      51.674   1.135  17.197  0.00  0.00    +0.000 A 
ATOM     20  N   UNL     1      50.616   2.026  17.156  0.00  0.00    +0.000 N 
BRANCH  17  18
ATOM     18  O   UNL     1      53.846   0.445  17.909  0.00  0.00    +0.000 OA
ATOM     36  H   UNL     1      53.645  -0.203  17.200  0.00  0.00    +0.000 HD
ENDBRANCH  17  18
BRANCH  20  21
ATOM     21  O   UNL     1      49.629   1.826  16.189  0.00  0.00    +0.000 OA
ATOM     37  H   UNL     1      48.794   1.888  16.688  0.00  0.00    +0.000 HD
ENDBRANCH  20  21
ENDBRANCH  11  13
ENDBRANCH   9  10
ENDBRANCH   8   9
BRANCH   5   4
ATOM      4  C   UNL     1      47.540   8.529  12.236  0.00  0.00    +0.000 C 
BRANCH   4   3
ATOM      1  O   UNL     1      44.863   7.784  11.780  0.00  0.00    +0.000 OA
ATOM      2  C   UNL     1      45.766   7.103  11.310  0.00  0.00    +0.000 C 
ATOM      3  N   UNL     1      47.097   7.439  11.408  0.00  0.00    +0.000 N 
ATOM     34  H   UNL     1      47.797   6.771  11.124  0.00  0.00    +0.000 HD
BRANCH   2  24
ATOM     24  C   UNL     1      45.546   5.764  10.767  0.00  0.00    +0.000 A 
ATOM     25  C   UNL     1      45.772   5.473   9.431  0.00  0.00    +0.000 A 
ATOM     26  S   UNL     1      45.104   3.966   8.968  0.00  0.00    +0.000 S 
ATOM     27  C   UNL     1      44.512   3.685  10.543  0.00  0.00    +0.000 A 
ATOM     28  N   UNL     1      43.653   2.672  10.827  0.00  0.00    +0.000 NA
ATOM     29  C   UNL     1      43.297   2.614  12.069  0.00  0.00    +0.000 A 
ATOM     30  N   UNL     1      43.787   3.419  13.069  0.00  0.00    +0.000 N 
ATOM     31  C   UNL     1      44.720   4.400  12.838  0.00  0.00    +0.000 A 
ATOM     32  O   UNL     1      45.254   5.018  13.752  0.00  0.00    +0.000 OA
ATOM     33  C   UNL     1      44.987   4.624  11.434  0.00  0.00    +0.000 A 
ATOM     38  H   UNL     1      43.536   3.259  14.034  0.00  0.00    +0.000 HD
ENDBRANCH   2  24
ENDBRANCH   4   3
ENDBRANCH   5   4
TORSDOF 8
ENDMDL
MODEL 8
REMARK VINA RESULT:    -7.608      1.836      3.060
REMARK INTER + INTRA:         -11.516
REMARK INTER:                 -10.269
REMARK INTRA:                  -1.246
REMARK UNBOUND:                -0.795
REMARK  Name = 
REMARK  8 active torsions:
REMARK  status: ('A' for Active; 'I' for Inactive)
REMARK    1  A    between atoms: C_2  and  C_24
REMARK    2  A    between atoms: N_3  and  C_4
REMARK    3  A    between atoms: C_4  and  C_5
REMARK    4  A    between atoms: C_8  and  C_9
REMARK    5  A    between atoms: C_9  and  N_10
REMARK    6  A    between atoms: C_11  and  C_13
REMARK    7  A    between atoms: C_17  and  O_18
REMARK    8  A    between atoms: N_20  and  O_21
REMARK                            x       y       z     vdW  Elec       q    Type
REMARK                         _______ _______ _______ _____ _____    ______ ____
ROOT
ATOM      5  C   UNL     1      48.248   8.344  13.462  0.00  0.00    +0.000 A 
ATOM      6  C   UNL     1      46.936   8.809  13.616  0.00  0.00    +0.000 A 
ATOM      7  C   UNL     1      45.890   8.269  12.858  0.00  0.00    +0.000 A 
ATOM      8  C   UNL     1      46.129   7.230  11.947  0.00  0.00    +0.000 A 
ATOM     22  C   UNL     1      47.442   6.766  11.791  0.00  0.00    +0.000 A 
ATOM     23  C   UNL     1      48.488   7.309  12.547  0.00  0.00    +0.000 A 
ENDROOT
BRANCH   8   9
ATOM      9  C   UNL     1      44.997   6.630  11.151  0.00  0.00    +0.000 C 
BRANCH   9  10
ATOM     10  N   UNL     1      45.456   5.611  10.243  0.00  0.00    +0.000 N 
ATOM     11  C   UNL     1      44.606   4.658   9.740  0.00  0.00    +0.000 C 
ATOM     12  O   UNL     1      43.391   4.687   9.911  0.00  0.00    +0.000 OA
ATOM     35  H   UNL     1      46.449   5.439  10.151  0.00  0.00    +0.000 HD
BRANCH  11  13
ATOM     13  C   UNL     1      45.276   3.577   8.925  0.00  0.00    +0.000 A 
ATOM     14  C   UNL     1      45.966   4.008   7.853  0.00  0.00    +0.000 A 
ATOM     15  C   UNL     1      46.671   3.008   7.019  0.00  0.00    +0.000 A 
ATOM     16  O   UNL     1      47.343   3.325   6.040  0.00  0.00    +0.000 OA
ATOM     17  C   UNL     1      46.545   1.569   7.392  0.00  0.00    +0.000 A 
ATOM     19  C   UNL     1      45.816   1.275   8.474  0.00  0.00    +0.000 A 
ATOM     20  N   UNL     1      45.207   2.222   9.278  0.00  0.00    +0.000 N 
BRANCH  17  18
ATOM     18  O   UNL     1      47.156   0.611   6.612  0.00  0.00    +0.000 OA
ATOM     36  H   UNL     1      48.007   0.420   7.063  0.00  0.00    +0.000 HD
ENDBRANCH  17  18
BRANCH  20  21
ATOM     21  O   UNL     1      44.237   1.787  10.183  0.00  0.00    +0.000 OA
ATOM     37  H   UNL     1      44.749   1.513  10.965  0.00  0.00    +0.000 HD
ENDBRANCH  20  21
ENDBRANCH  11  13
ENDBRANCH   9  10
ENDBRANCH   8   9
BRANCH   5   4
ATOM      4  C   UNL     1      49.365   8.923  14.297  0.00  0.00    +0.000 C 
BRANCH   4   3
ATOM      1  O   UNL     1      50.253   6.566  15.557  0.00  0.00    +0.000 OA
ATOM      2  C   UNL     1      49.597   7.380  16.195  0.00  0.00    +0.000 C 
ATOM      3  N   UNL     1      49.196   8.595  15.688  0.00  0.00    +0.000 N 
ATOM     34  H   UNL     1      48.544   9.157  16.212  0.00  0.00    +0.000 HD
BRANCH   2  24
ATOM     24  C   UNL     1      49.000   7.069  17.493  0.00  0.00    +0.000 A 
ATOM     25  C   UNL     1      48.290   5.899  17.707  0.00  0.00    +0.000 A 
ATOM     26  S   UNL     1      47.395   5.935  19.167  0.00  0.00    +0.000 S 
ATOM     27  C   UNL     1      47.950   7.507  19.529  0.00  0.00    +0.000 A 
ATOM     28  N   UNL     1      47.423   8.251  20.537  0.00  0.00    +0.000 NA
ATOM     29  C   UNL     1      47.953   9.423  20.662  0.00  0.00    +0.000 A 
ATOM     30  N   UNL     1      49.020   9.889  19.931  0.00  0.00    +0.000 N 
ATOM     31  C   UNL     1      49.636   9.137  18.960  0.00  0.00    +0.000 A 
ATOM     32  O   UNL     1      50.669   9.503  18.411  0.00  0.00    +0.000 OA
ATOM     33  C   UNL     1      48.942   7.904  18.657  0.00  0.00    +0.000 A 
ATOM     38  H   UNL     1      49.446  10.779  20.143  0.00  0.00    +0.000 HD
ENDBRANCH   2  24
ENDBRANCH   4   3
ENDBRANCH   5   4
TORSDOF 8
ENDMDL
MODEL 9
REMARK VINA RESULT:    -7.606      3.577      9.031
REMARK INTER + INTRA:         -11.514
REMARK INTER:                 -10.226
REMARK INTRA:                  -1.287
REMARK UNBOUND:                -0.795
REMARK  Name = 
REMARK  8 active torsions:
REMARK  status: ('A' for Active; 'I' for Inactive)
REMARK    1  A    between atoms: C_2  and  C_24
REMARK    2  A    between atoms: N_3  and  C_4
REMARK    3  A    between atoms: C_4  and  C_5
REMARK    4  A    between atoms: C_8  and  C_9
REMARK    5  A    between atoms: C_9  and  N_10
REMARK    6  A    between atoms: C_11  and  C_13
REMARK    7  A    between atoms: C_17  and  O_18
REMARK    8  A    between atoms: N_20  and  O_21
REMARK                            x       y       z     vdW  Elec       q    Type
REMARK                         _______ _______ _______ _____ _____    ______ ____
ROOT
ATOM      5  C   UNL     1      48.108   6.891  13.525  0.00  0.00    +0.000 A 
ATOM      6  C   UNL     1      48.805   7.800  14.331  0.00  0.00    +0.000 A 
ATOM      7  C   UNL     1      49.036   7.528  15.685  0.00  0.00    +0.000 A 
ATOM      8  C   UNL     1      48.598   6.325  16.257  0.00  0.00    +0.000 A 
ATOM     22  C   UNL     1      47.898   5.416  15.453  0.00  0.00    +0.000 A 
ATOM     23  C   UNL     1      47.664   5.690  14.099  0.00  0.00    +0.000 A 
ENDROOT
BRANCH   8   9
ATOM      9  C   UNL     1      48.871   6.021  17.709  0.00  0.00    +0.000 C 
BRANCH   9  10
ATOM     10  N   UNL     1      49.629   4.806  17.873  0.00  0.00    +0.000 N 
ATOM     11  C   UNL     1      50.990   4.778  17.704  0.00  0.00    +0.000 C 
ATOM     12  O   UNL     1      51.667   5.788  17.542  0.00  0.00    +0.000 OA
ATOM     35  H   UNL     1      49.145   3.918  17.881  0.00  0.00    +0.000 HD
BRANCH  11  13
ATOM     13  C   UNL     1      51.607   3.399  17.762  0.00  0.00    +0.000 A 
ATOM     14  C   UNL     1      52.835   3.342  18.311  0.00  0.00    +0.000 A 
ATOM     15  C   UNL     1      53.495   2.021  18.425  0.00  0.00    +0.000 A 
ATOM     16  O   UNL     1      54.603   1.882  18.938  0.00  0.00    +0.000 OA
ATOM     17  C   UNL     1      52.777   0.829  17.888  0.00  0.00    +0.000 A 
ATOM     19  C   UNL     1      51.568   1.028  17.352  0.00  0.00    +0.000 A 
ATOM     20  N   UNL     1      50.936   2.258  17.301  0.00  0.00    +0.000 N 
BRANCH  17  18
ATOM     18  O   UNL     1      53.382  -0.408  17.941  0.00  0.00    +0.000 OA
ATOM     36  H   UNL     1      54.329  -0.221  18.116  0.00  0.00    +0.000 HD
ENDBRANCH  17  18
BRANCH  20  21
ATOM     21  O   UNL     1      49.831   2.393  16.459  0.00  0.00    +0.000 OA
ATOM     37  H   UNL     1      50.217   2.657  15.603  0.00  0.00    +0.000 HD
ENDBRANCH  20  21
ENDBRANCH  11  13
ENDBRANCH   9  10
ENDBRANCH   8   9
BRANCH   5   4
ATOM      4  C   UNL     1      47.880   7.188  12.063  0.00  0.00    +0.000 C 
BRANCH   4   3
ATOM      1  O   UNL     1      45.181   7.777  11.515  0.00  0.00    +0.000 OA
ATOM      2  C   UNL     1      45.598   6.640  11.336  0.00  0.00    +0.000 C 
ATOM      3  N   UNL     1      46.917   6.282  11.493  0.00  0.00    +0.000 N 
ATOM     34  H   UNL     1      47.172   5.307  11.467  0.00  0.00    +0.000 HD
BRANCH   2  24
ATOM     24  C   UNL     1      44.710   5.496  11.127  0.00  0.00    +0.000 A 
ATOM     25  C   UNL     1      43.674   5.210  12.000  0.00  0.00    +0.000 A 
ATOM     26  S   UNL     1      43.023   3.646  11.752  0.00  0.00    +0.000 S 
ATOM     27  C   UNL     1      44.112   3.338  10.477  0.00  0.00    +0.000 A 
ATOM     28  N   UNL     1      44.263   2.103   9.930  0.00  0.00    +0.000 NA
ATOM     29  C   UNL     1      45.141   2.048   8.983  0.00  0.00    +0.000 A 
ATOM     30  N   UNL     1      45.819   3.128   8.471  0.00  0.00    +0.000 N 
ATOM     31  C   UNL     1      45.633   4.406   8.938  0.00  0.00    +0.000 A 
ATOM     32  O   UNL     1      46.135   5.380   8.387  0.00  0.00    +0.000 OA
ATOM     33  C   UNL     1      44.813   4.474  10.128  0.00  0.00    +0.000 A 
ATOM     38  H   UNL     1      46.422   3.030   7.668  0.00  0.00    +0.000 HD
ENDBRANCH   2  24
ENDBRANCH   4   3
ENDBRANCH   5   4
TORSDOF 8
ENDMDL
