MODEL 1
REMARK VINA RESULT:    -6.905      0.000      0.000
REMARK INTER + INTRA:          -8.587
REMARK INTER:                  -8.116
REMARK INTRA:                  -0.470
REMARK UNBOUND:                -0.470
REMARK  Name = 
REMARK  4 active torsions:
REMARK  status: ('A' for Active; 'I' for Inactive)
REMARK    1  A    between atoms: C_1  and  N_2
REMARK    2  A    between atoms: C_3  and  C_5
REMARK    3  A    between atoms: C_5  and  N_6
REMARK    4  A    between atoms: C_11  and  C_12
REMARK                            x       y       z     vdW  Elec       q    Type
REMARK                         _______ _______ _______ _____ _____    ______ ____
ROOT
ATOM      6  N   UNL     1      44.070   4.275  10.432  0.00  0.00    +0.000 N 
ATOM      7  C   UNL     1      43.588   3.133  11.023  0.00  0.00    +0.000 A 
ATOM      8  C   UNL     1      44.137   2.052  10.366  0.00  0.00    +0.000 A 
ATOM      9  C   UNL     1      44.991   2.555   9.349  0.00  0.00    +0.000 A 
ATOM     10  C   UNL     1      45.798   1.980   8.351  0.00  0.00    +0.000 A 
ATOM     11  C   UNL     1      46.511   2.843   7.511  0.00  0.00    +0.000 A 
ATOM     15  C   UNL     1      46.402   4.217   7.728  0.00  0.00    +0.000 A 
ATOM     16  N   UNL     1      45.645   4.825   8.684  0.00  0.00    +0.000 NA
ATOM     17  C   UNL     1      44.955   3.944   9.436  0.00  0.00    +0.000 A 
ENDROOT
BRANCH  11  12
ATOM     12  C   UNL     1      47.372   2.377   6.396  0.00  0.00    +0.000 C 
ATOM     13  N   UNL     1      47.291   3.016   5.190  0.00  0.00    +0.000 N 
ATOM     14  O   UNL     1      48.150   1.442   6.544  0.00  0.00    +0.000 OA
ATOM     19  H   UNL     1      46.709   3.811   4.984  0.00  0.00    +0.000 HD
ATOM     20  H   UNL     1      47.908   2.685   4.457  0.00  0.00    +0.000 HD
ENDBRANCH  11  12
BRANCH   6   5
ATOM      5  C   UNL     1      43.663   5.627  10.763  0.00  0.00    +0.000 C 
BRANCH   5   3
ATOM      1  C   UNL     1      46.578   7.603  12.175  0.00  0.00    +0.000 C 
ATOM      2  N   UNL     1      45.628   6.970  11.298  0.00  0.00    +0.000 N 
ATOM      3  C   UNL     1      44.563   6.255  11.802  0.00  0.00    +0.000 C 
ATOM      4  O   UNL     1      44.331   6.159  13.006  0.00  0.00    +0.000 OA
ATOM     18  H   UNL     1      45.787   6.983  10.293  0.00  0.00    +0.000 HD
ENDBRANCH   5   3
ENDBRANCH   6   5
TORSDOF 3
ENDMDL
MODEL 2
REMARK VINA RESULT:    -6.403      2.208      5.640
REMARK INTER + INTRA:          -7.996
REMARK INTER:                  -7.731
REMARK INTRA:                  -0.266
REMARK UNBOUND:                -0.470
REMARK  Name = 
REMARK  4 active torsions:
REMARK  status: ('A' for Active; 'I' for Inactive)
REMARK    1  A    between atoms: C_1  and  N_2
REMARK    2  A    between atoms: C_3  and  C_5
REMARK    3  A    between atoms: C_5  and  N_6
REMARK    4  A    between atoms: C_11  and  C_12
REMARK                            x       y       z     vdW  Elec       q    Type
REMARK                         _______ _______ _______ _____ _____    ______ ____
ROOT
ATOM      6  N   UNL     1      44.460   4.052  10.228  0.00  0.00    +0.000 N 
ATOM      7  C   UNL     1      43.832   3.098  10.991  0.00  0.00    +0.000 A 
ATOM      8  C   UNL     1      44.261   3.247  12.293  0.00  0.00    +0.000 A 
ATOM      9  C   UNL     1      45.172   4.336  12.323  0.00  0.00    +0.000 A 
ATOM     10  C   UNL     1      45.950   4.957  13.318  0.00  0.00    +0.000 A 
ATOM     11  C   UNL     1      46.752   6.039  12.937  0.00  0.00    +0.000 A 
ATOM     15  C   UNL     1      46.713   6.456  11.606  0.00  0.00    +0.000 A 
ATOM     16  N   UNL     1      45.972   5.899  10.608  0.00  0.00    +0.000 NA
ATOM     17  C   UNL     1      45.251   4.839  11.028  0.00  0.00    +0.000 A 
ENDROOT
BRANCH  11  12
ATOM     12  C   UNL     1      47.648   6.765  13.871  0.00  0.00    +0.000 C 
ATOM     13  N   UNL     1      47.345   8.055  14.206  0.00  0.00    +0.000 N 
ATOM     14  O   UNL     1      48.640   6.224  14.345  0.00  0.00    +0.000 OA
ATOM     19  H   UNL     1      46.536   8.568  13.894  0.00  0.00    +0.000 HD
ATOM     20  H   UNL     1      47.966   8.513  14.862  0.00  0.00    +0.000 HD
ENDBRANCH  11  12
BRANCH   6   5
ATOM      5  C   UNL     1      44.356   4.175   8.787  0.00  0.00    +0.000 C 
BRANCH   5   3
ATOM      1  C   UNL     1      46.873   1.614   7.561  0.00  0.00    +0.000 C 
ATOM      2  N   UNL     1      45.743   2.265   8.171  0.00  0.00    +0.000 N 
ATOM      3  C   UNL     1      45.575   3.630   8.079  0.00  0.00    +0.000 C 
ATOM      4  O   UNL     1      46.333   4.356   7.439  0.00  0.00    +0.000 OA
ATOM     18  H   UNL     1      45.101   1.723   8.745  0.00  0.00    +0.000 HD
ENDBRANCH   5   3
ENDBRANCH   6   5
TORSDOF 3
ENDMDL
MODEL 3
REMARK VINA RESULT:    -6.173      1.721      2.440
REMARK INTER + INTRA:          -7.726
REMARK INTER:                  -7.540
REMARK INTRA:                  -0.186
REMARK UNBOUND:                -0.470
REMARK  Name = 
REMARK  4 active torsions:
REMARK  status: ('A' for Active; 'I' for Inactive)
REMARK    1  A    between atoms: C_1  and  N_2
REMARK    2  A    between atoms: C_3  and  C_5
REMARK    3  A    between atoms: C_5  and  N_6
REMARK    4  A    between atoms: C_11  and  C_12
REMARK                            x       y       z     vdW  Elec       q    Type
REMARK                         _______ _______ _______ _____ _____    ______ ____
ROOT
ATOM      6  N   UNL     1      44.385   3.767  10.363  0.00  0.00    +0.000 N 
ATOM      7  C   UNL     1      44.354   5.136  10.264  0.00  0.00    +0.000 A 
ATOM      8  C   UNL     1      45.138   5.500   9.190  0.00  0.00    +0.000 A 
ATOM      9  C   UNL     1      45.654   4.311   8.611  0.00  0.00    +0.000 A 
ATOM     10  C   UNL     1      46.512   4.016   7.535  0.00  0.00    +0.000 A 
ATOM     11  C   UNL     1      46.792   2.671   7.274  0.00  0.00    +0.000 A 
ATOM     15  C   UNL     1      46.186   1.701   8.074  0.00  0.00    +0.000 A 
ATOM     16  N   UNL     1      45.341   1.930   9.118  0.00  0.00    +0.000 NA
ATOM     17  C   UNL     1      45.140   3.244   9.343  0.00  0.00    +0.000 A 
ENDROOT
BRANCH  11  12
ATOM     12  C   UNL     1      47.705   2.217   6.196  0.00  0.00    +0.000 C 
ATOM     13  N   UNL     1      47.845   2.995   5.081  0.00  0.00    +0.000 N 
ATOM     14  O   UNL     1      48.332   1.168   6.296  0.00  0.00    +0.000 OA
ATOM     19  H   UNL     1      47.399   3.885   4.925  0.00  0.00    +0.000 HD
ATOM     20  H   UNL     1      48.492   2.666   4.374  0.00  0.00    +0.000 HD
ENDBRANCH  11  12
BRANCH   6   5
ATOM      5  C   UNL     1      43.766   2.988  11.420  0.00  0.00    +0.000 C 
BRANCH   5   3
ATOM      1  C   UNL     1      46.204   3.987  14.151  0.00  0.00    +0.000 C 
ATOM      2  N   UNL     1      45.607   3.607  12.897  0.00  0.00    +0.000 N 
ATOM      3  C   UNL     1      44.247   3.405  12.791  0.00  0.00    +0.000 C 
ATOM      4  O   UNL     1      43.469   3.584  13.725  0.00  0.00    +0.000 OA
ATOM     18  H   UNL     1      46.203   3.409  12.096  0.00  0.00    +0.000 HD
ENDBRANCH   5   3
ENDBRANCH   6   5
TORSDOF 3
ENDMDL
MODEL 4
REMARK VINA RESULT:    -6.075      2.405      6.062
REMARK INTER + INTRA:          -7.610
REMARK INTER:                  -7.272
REMARK INTRA:                  -0.338
REMARK UNBOUND:                -0.470
REMARK  Name = 
REMARK  4 active torsions:
REMARK  status: ('A' for Active; 'I' for Inactive)
REMARK    1  A    between atoms: C_1  and  N_2
REMARK    2  A    between atoms: C_3  and  C_5
REMARK    3  A    between atoms: C_5  and  N_6
REMARK    4  A    between atoms: C_11  and  C_12
REMARK                            x       y       z     vdW  Elec       q    Type
REMARK                         _______ _______ _______ _____ _____    ______ ____
ROOT
ATOM      6  N   UNL     1      44.745   3.807  11.659  0.00  0.00    +0.000 N 
ATOM      7  C   UNL     1      45.589   3.208  12.561  0.00  0.00    +0.000 A 
ATOM      8  C   UNL     1      46.238   4.205  13.259  0.00  0.00    +0.000 A 
ATOM      9  C   UNL     1      45.764   5.451  12.770  0.00  0.00    +0.000 A 
ATOM     10  C   UNL     1      46.042   6.802  13.048  0.00  0.00    +0.000 A 
ATOM     11  C   UNL     1      45.341   7.774  12.326  0.00  0.00    +0.000 A 
ATOM     15  C   UNL     1      44.391   7.351  11.397  0.00  0.00    +0.000 A 
ATOM     16  N   UNL     1      44.075   6.060  11.097  0.00  0.00    +0.000 NA
ATOM     17  C   UNL     1      44.808   5.171  11.797  0.00  0.00    +0.000 A 
ENDROOT
BRANCH  11  12
ATOM     12  C   UNL     1      45.558   9.233  12.490  0.00  0.00    +0.000 C 
ATOM     13  N   UNL     1      44.470  10.059  12.548  0.00  0.00    +0.000 N 
ATOM     14  O   UNL     1      46.688   9.699  12.579  0.00  0.00    +0.000 OA
ATOM     19  H   UNL     1      43.507   9.764  12.517  0.00  0.00    +0.000 HD
ATOM     20  H   UNL     1      44.654  11.046  12.681  0.00  0.00    +0.000 HD
ENDBRANCH  11  12
BRANCH   6   5
ATOM      5  C   UNL     1      43.949   3.112  10.665  0.00  0.00    +0.000 C 
BRANCH   5   3
ATOM      1  C   UNL     1      46.205   1.593   8.019  0.00  0.00    +0.000 C 
ATOM      2  N   UNL     1      45.443   1.839   9.216  0.00  0.00    +0.000 N 
ATOM      3  C   UNL     1      44.675   2.976   9.346  0.00  0.00    +0.000 C 
ATOM      4  O   UNL     1      44.552   3.808   8.449  0.00  0.00    +0.000 OA
ATOM     18  H   UNL     1      45.533   1.206  10.007  0.00  0.00    +0.000 HD
ENDBRANCH   5   3
ENDBRANCH   6   5
TORSDOF 3
ENDMDL
MODEL 5
REMARK VINA RESULT:    -5.989      3.225      6.159
REMARK INTER + INTRA:          -7.510
REMARK INTER:                  -7.056
REMARK INTRA:                  -0.454
REMARK UNBOUND:                -0.470
REMARK  Name = 
REMARK  4 active torsions:
REMARK  status: ('A' for Active; 'I' for Inactive)
REMARK    1  A    between atoms: C_1  and  N_2
REMARK    2  A    between atoms: C_3  and  C_5
REMARK    3  A    between atoms: C_5  and  N_6
REMARK    4  A    between atoms: C_11  and  C_12
REMARK                            x       y       z     vdW  Elec       q    Type
REMARK                         _______ _______ _______ _____ _____    ______ ____
ROOT
ATOM      6  N   UNL     1      44.772   5.281  10.984  0.00  0.00    +0.000 N 
ATOM      7  C   UNL     1      44.874   6.650  10.944  0.00  0.00    +0.000 A 
ATOM      8  C   UNL     1      45.620   7.050  12.031  0.00  0.00    +0.000 A 
ATOM      9  C   UNL     1      45.994   5.884  12.750  0.00  0.00    +0.000 A 
ATOM     10  C   UNL     1      46.719   5.629  13.929  0.00  0.00    +0.000 A 
ATOM     11  C   UNL     1      46.873   4.296  14.324  0.00  0.00    +0.000 A 
ATOM     15  C   UNL     1      46.326   3.299  13.516  0.00  0.00    +0.000 A 
ATOM     16  N   UNL     1      45.626   3.489  12.363  0.00  0.00    +0.000 NA
ATOM     17  C   UNL     1      45.479   4.794  12.055  0.00  0.00    +0.000 A 
ENDROOT
BRANCH  11  12
ATOM     12  C   UNL     1      47.582   3.884  15.560  0.00  0.00    +0.000 C 
ATOM     13  N   UNL     1      47.489   4.677  16.669  0.00  0.00    +0.000 N 
ATOM     14  O   UNL     1      48.238   2.848  15.600  0.00  0.00    +0.000 OA
ATOM     19  H   UNL     1      46.949   5.525  16.741  0.00  0.00    +0.000 HD
ATOM     20  H   UNL     1      47.968   4.356  17.501  0.00  0.00    +0.000 HD
ENDBRANCH  11  12
BRANCH   6   5
ATOM      5  C   UNL     1      43.987   4.471  10.072  0.00  0.00    +0.000 C 
BRANCH   5   3
ATOM      1  C   UNL     1      45.924   1.675   8.391  0.00  0.00    +0.000 C 
ATOM      2  N   UNL     1      45.102   2.449   9.283  0.00  0.00    +0.000 N 
ATOM      3  C   UNL     1      44.846   3.781   9.038  0.00  0.00    +0.000 C 
ATOM      4  O   UNL     1      45.250   4.366   8.035  0.00  0.00    +0.000 OA
ATOM     18  H   UNL     1      44.768   2.030  10.149  0.00  0.00    +0.000 HD
ENDBRANCH   5   3
ENDBRANCH   6   5
TORSDOF 3
ENDMDL
MODEL 6
REMARK VINA RESULT:    -5.804      4.021      5.683
REMARK INTER + INTRA:          -7.292
REMARK INTER:                  -7.034
REMARK INTRA:                  -0.258
REMARK UNBOUND:                -0.470
REMARK  Name = 
REMARK  4 active torsions:
REMARK  status: ('A' for Active; 'I' for Inactive)
REMARK    1  A    between atoms: C_1  and  N_2
REMARK    2  A    between atoms: C_3  and  C_5
REMARK    3  A    between atoms: C_5  and  N_6
REMARK    4  A    between atoms: C_11  and  C_12
REMARK                            x       y       z     vdW  Elec       q    Type
REMARK                         _______ _______ _______ _____ _____    ______ ____
ROOT
ATOM      6  N   UNL     1      47.521   5.080  14.601  0.00  0.00    +0.000 N 
ATOM      7  C   UNL     1      47.830   6.403  14.406  0.00  0.00    +0.000 A 
ATOM      8  C   UNL     1      47.188   6.823  13.260  0.00  0.00    +0.000 A 
ATOM      9  C   UNL     1      46.456   5.720  12.748  0.00  0.00    +0.000 A 
ATOM     10  C   UNL     1      45.637   5.502  11.625  0.00  0.00    +0.000 A 
ATOM     11  C   UNL     1      45.079   4.229  11.461  0.00  0.00    +0.000 A 
ATOM     15  C   UNL     1      45.342   3.262  12.432  0.00  0.00    +0.000 A 
ATOM     16  N   UNL     1      46.117   3.422  13.541  0.00  0.00    +0.000 NA
ATOM     17  C   UNL     1      46.656   4.656  13.623  0.00  0.00    +0.000 A 
ENDROOT
BRANCH  11  12
ATOM     12  C   UNL     1      44.227   3.849  10.308  0.00  0.00    +0.000 C 
ATOM     13  N   UNL     1      44.052   4.748   9.293  0.00  0.00    +0.000 N 
ATOM     14  O   UNL     1      43.690   2.749  10.252  0.00  0.00    +0.000 OA
ATOM     19  H   UNL     1      44.478   5.659   9.236  0.00  0.00    +0.000 HD
ATOM     20  H   UNL     1      43.481   4.448   8.512  0.00  0.00    +0.000 HD
ENDBRANCH  11  12
BRANCH   6   5
ATOM      5  C   UNL     1      48.071   4.234  15.643  0.00  0.00    +0.000 C 
BRANCH   5   3
ATOM      1  C   UNL     1      46.808   5.665  18.923  0.00  0.00    +0.000 C 
ATOM      2  N   UNL     1      47.485   5.461  17.669  0.00  0.00    +0.000 N 
ATOM      3  C   UNL     1      47.275   4.320  16.925  0.00  0.00    +0.000 C 
ATOM      4  O   UNL     1      46.474   3.446  17.252  0.00  0.00    +0.000 OA
ATOM     18  H   UNL     1      48.187   6.132  17.363  0.00  0.00    +0.000 HD
ENDBRANCH   5   3
ENDBRANCH   6   5
TORSDOF 3
ENDMDL
MODEL 7
REMARK VINA RESULT:    -5.660      4.588      6.356
REMARK INTER + INTRA:          -7.123
REMARK INTER:                  -6.813
REMARK INTRA:                  -0.310
REMARK UNBOUND:                -0.470
REMARK  Name = 
REMARK  4 active torsions:
REMARK  status: ('A' for Active; 'I' for Inactive)
REMARK    1  A    between atoms: C_1  and  N_2
REMARK    2  A    between atoms: C_3  and  C_5
REMARK    3  A    between atoms: C_5  and  N_6
REMARK    4  A    between atoms: C_11  and  C_12
REMARK                            x       y       z     vdW  Elec       q    Type
REMARK                         _______ _______ _______ _____ _____    ______ ____
ROOT
ATOM      6  N   UNL     1      47.500   4.973  15.389  0.00  0.00    +0.000 N 
ATOM      7  C   UNL     1      48.333   6.064  15.347  0.00  0.00    +0.000 A 
ATOM      8  C   UNL     1      48.159   6.683  14.128  0.00  0.00    +0.000 A 
ATOM      9  C   UNL     1      47.180   5.948  13.408  0.00  0.00    +0.000 A 
ATOM     10  C   UNL     1      46.595   6.050  12.132  0.00  0.00    +0.000 A 
ATOM     11  C   UNL     1      45.633   5.098  11.778  0.00  0.00    +0.000 A 
ATOM     15  C   UNL     1      45.291   4.122  12.715  0.00  0.00    +0.000 A 
ATOM     16  N   UNL     1      45.817   3.984  13.964  0.00  0.00    +0.000 NA
ATOM     17  C   UNL     1      46.763   4.907  14.233  0.00  0.00    +0.000 A 
ENDROOT
BRANCH  11  12
ATOM     12  C   UNL     1      44.961   5.063  10.455  0.00  0.00    +0.000 C 
ATOM     13  N   UNL     1      45.666   5.446   9.348  0.00  0.00    +0.000 N 
ATOM     14  O   UNL     1      43.798   4.694  10.345  0.00  0.00    +0.000 OA
ATOM     19  H   UNL     1      46.632   5.731   9.336  0.00  0.00    +0.000 HD
ATOM     20  H   UNL     1      45.183   5.391   8.459  0.00  0.00    +0.000 HD
ENDBRANCH  11  12
BRANCH   6   5
ATOM      5  C   UNL     1      47.448   3.998  16.461  0.00  0.00    +0.000 C 
BRANCH   5   3
ATOM      1  C   UNL     1      50.851   2.739  17.572  0.00  0.00    +0.000 C 
ATOM      2  N   UNL     1      49.620   3.473  17.442  0.00  0.00    +0.000 N 
ATOM      3  C   UNL     1      48.680   3.122  16.496  0.00  0.00    +0.000 C 
ATOM      4  O   UNL     1      48.806   2.149  15.757  0.00  0.00    +0.000 OA
ATOM     18  H   UNL     1      49.474   4.311  18.001  0.00  0.00    +0.000 HD
ENDBRANCH   5   3
ENDBRANCH   6   5
TORSDOF 3
ENDMDL
MODEL 8
REMARK VINA RESULT:    -5.575      3.792      7.070
REMARK INTER + INTRA:          -7.023
REMARK INTER:                  -6.830
REMARK INTRA:                  -0.193
REMARK UNBOUND:                -0.470
REMARK  Name = 
REMARK  4 active torsions:
REMARK  status: ('A' for Active; 'I' for Inactive)
REMARK    1  A    between atoms: C_1  and  N_2
REMARK    2  A    between atoms: C_3  and  C_5
REMARK    3  A    between atoms: C_5  and  N_6
REMARK    4  A    between atoms: C_11  and  C_12
REMARK                            x       y       z     vdW  Elec       q    Type
REMARK                         _______ _______ _______ _____ _____    ______ ____
ROOT
ATOM      6  N   UNL     1      45.570   4.657  12.596  0.00  0.00    +0.000 N 
ATOM      7  C   UNL     1      45.779   5.630  11.649  0.00  0.00    +0.000 A 
ATOM      8  C   UNL     1      46.770   6.467  12.115  0.00  0.00    +0.000 A 
ATOM      9  C   UNL     1      47.185   5.980  13.383  0.00  0.00    +0.000 A 
ATOM     10  C   UNL     1      48.118   6.391  14.352  0.00  0.00    +0.000 A 
ATOM     11  C   UNL     1      48.237   5.617  15.512  0.00  0.00    +0.000 A 
ATOM     15  C   UNL     1      47.447   4.473  15.628  0.00  0.00    +0.000 A 
ATOM     16  N   UNL     1      46.539   4.024  14.718  0.00  0.00    +0.000 NA
ATOM     17  C   UNL     1      46.443   4.830  13.641  0.00  0.00    +0.000 A 
ENDROOT
BRANCH  11  12
ATOM     12  C   UNL     1      49.152   5.952  16.631  0.00  0.00    +0.000 C 
ATOM     13  N   UNL     1      48.622   6.428  17.797  0.00  0.00    +0.000 N 
ATOM     14  O   UNL     1      50.364   5.801  16.524  0.00  0.00    +0.000 OA
ATOM     19  H   UNL     1      47.641   6.552  17.988  0.00  0.00    +0.000 HD
ATOM     20  H   UNL     1      49.273   6.626  18.547  0.00  0.00    +0.000 HD
ENDBRANCH  11  12
BRANCH   6   5
ATOM      5  C   UNL     1      44.543   3.634  12.535  0.00  0.00    +0.000 C 
BRANCH   5   3
ATOM      1  C   UNL     1      44.715   2.106   9.066  0.00  0.00    +0.000 C 
ATOM      2  N   UNL     1      44.975   2.472  10.434  0.00  0.00    +0.000 N 
ATOM      3  C   UNL     1      44.132   3.323  11.114  0.00  0.00    +0.000 C 
ATOM      4  O   UNL     1      43.098   3.773  10.625  0.00  0.00    +0.000 OA
ATOM     18  H   UNL     1      45.835   2.160  10.882  0.00  0.00    +0.000 HD
ENDBRANCH   5   3
ENDBRANCH   6   5
TORSDOF 3
ENDMDL
MODEL 9
REMARK VINA RESULT:    -5.422      4.320      6.083
REMARK INTER + INTRA:          -6.843
REMARK INTER:                  -6.572
REMARK INTRA:                  -0.272
REMARK UNBOUND:                -0.470
REMARK  Name = 
REMARK  4 active torsions:
REMARK  status: ('A' for Active; 'I' for Inactive)
REMARK    1  A    between atoms: C_1  and  N_2
REMARK    2  A    between atoms: C_3  and  C_5
REMARK    3  A    between atoms: C_5  and  N_6
REMARK    4  A    between atoms: C_11  and  C_12
REMARK                            x       y       z     vdW  Elec       q    Type
REMARK                         _______ _______ _______ _____ _____    ______ ____
ROOT
ATOM      6  N   UNL     1      47.441   7.238  13.637  0.00  0.00    +0.000 N 
ATOM      7  C   UNL     1      46.822   8.442  13.409  0.00  0.00    +0.000 A 
ATOM      8  C   UNL     1      45.578   8.184  12.875  0.00  0.00    +0.000 A 
ATOM      9  C   UNL     1      45.432   6.774  12.785  0.00  0.00    +0.000 A 
ATOM     10  C   UNL     1      44.430   5.903  12.319  0.00  0.00    +0.000 A 
ATOM     11  C   UNL     1      44.671   4.528  12.402  0.00  0.00    +0.000 A 
ATOM     15  C   UNL     1      45.874   4.099  12.965  0.00  0.00    +0.000 A 
ATOM     16  N   UNL     1      46.871   4.897  13.441  0.00  0.00    +0.000 NA
ATOM     17  C   UNL     1      46.596   6.210  13.299  0.00  0.00    +0.000 A 
ENDROOT
BRANCH  11  12
ATOM     12  C   UNL     1      43.720   3.497  11.917  0.00  0.00    +0.000 C 
ATOM     13  N   UNL     1      43.743   2.257  12.491  0.00  0.00    +0.000 N 
ATOM     14  O   UNL     1      42.920   3.744  11.022  0.00  0.00    +0.000 OA
ATOM     19  H   UNL     1      44.340   1.973  13.252  0.00  0.00    +0.000 HD
ATOM     20  H   UNL     1      43.067   1.584  12.150  0.00  0.00    +0.000 HD
ENDBRANCH  11  12
BRANCH   6   5
ATOM      5  C   UNL     1      48.804   7.070  14.105  0.00  0.00    +0.000 C 
BRANCH   5   3
ATOM      1  C   UNL     1      48.578   7.560  17.860  0.00  0.00    +0.000 C 
ATOM      2  N   UNL     1      48.543   7.748  16.434  0.00  0.00    +0.000 N 
ATOM      3  C   UNL     1      48.863   6.719  15.574  0.00  0.00    +0.000 C 
ATOM      4  O   UNL     1      49.141   5.586  15.960  0.00  0.00    +0.000 OA
ATOM     18  H   UNL     1      48.356   8.674  16.054  0.00  0.00    +0.000 HD
ENDBRANCH   5   3
ENDBRANCH   6   5
TORSDOF 3
ENDMDL
