MODEL 1
REMARK VINA RESULT:    -8.710      0.000      0.000
REMARK INTER + INTRA:         -13.418
REMARK INTER:                 -12.274
REMARK INTRA:                  -1.144
REMARK UNBOUND:                -1.144
REMARK  Name = 
REMARK  7 active torsions:
REMARK  status: ('A' for Active; 'I' for Inactive)
REMARK    1  A    between atoms: C_2  and  C_20
REMARK    2  A    between atoms: N_3  and  C_4
REMARK    3  A    between atoms: C_4  and  C_5
REMARK    4  A    between atoms: C_8  and  C_9
REMARK    5  A    between atoms: C_9  and  N_10
REMARK    6  A    between atoms: N_10  and  C_11
REMARK    7  A    between atoms: C_11  and  C_12
REMARK                            x       y       z     vdW  Elec       q    Type
REMARK                         _______ _______ _______ _____ _____    ______ ____
ROOT
ATOM      4  C   UNL     1      47.991   6.774  13.374  0.00  0.00    +0.000 C 
ENDROOT
BRANCH   4   5
ATOM      5  C   UNL     1      46.851   6.005  12.761  0.00  0.00    +0.000 A 
ATOM      6  C   UNL     1      46.260   4.948  13.462  0.00  0.00    +0.000 A 
ATOM      7  C   UNL     1      45.194   4.236  12.909  0.00  0.00    +0.000 A 
ATOM      8  C   UNL     1      44.698   4.561  11.639  0.00  0.00    +0.000 A 
ATOM     18  C   UNL     1      45.309   5.600  10.925  0.00  0.00    +0.000 A 
ATOM     19  C   UNL     1      46.381   6.310  11.477  0.00  0.00    +0.000 A 
BRANCH   8   9
ATOM      9  C   UNL     1      43.544   3.787  11.041  0.00  0.00    +0.000 C 
BRANCH   9  10
ATOM     10  N   UNL     1      43.807   3.437   9.648  0.00  0.00    +0.000 NA
ATOM     31  H   UNL     1      44.318   4.198   9.200  0.00  0.00    +0.000 HD
BRANCH  10  11
ATOM     11  C   UNL     1      44.591   2.209   9.542  0.00  0.00    +0.000 C 
BRANCH  11  12
ATOM     12  C   UNL     1      45.609   2.310   8.431  0.00  0.00    +0.000 A 
ATOM     13  C   UNL     1      46.386   1.204   8.059  0.00  0.00    +0.000 A 
ATOM     14  C   UNL     1      47.308   1.304   7.016  0.00  0.00    +0.000 A 
ATOM     15  C   UNL     1      47.463   2.509   6.332  0.00  0.00    +0.000 A 
ATOM     16  C   UNL     1      46.703   3.619   6.696  0.00  0.00    +0.000 A 
ATOM     17  C   UNL     1      45.782   3.520   7.739  0.00  0.00    +0.000 A 
ENDBRANCH  11  12
ENDBRANCH  10  11
ENDBRANCH   9  10
ENDBRANCH   8   9
ENDBRANCH   4   5
BRANCH   4   3
ATOM      1  O   UNL     1      50.162   6.689  15.178  0.00  0.00    +0.000 OA
ATOM      2  C   UNL     1      49.021   6.799  15.615  0.00  0.00    +0.000 C 
ATOM      3  N   UNL     1      47.911   6.782  14.811  0.00  0.00    +0.000 N 
ATOM     30  H   UNL     1      47.020   7.071  15.197  0.00  0.00    +0.000 HD
BRANCH   2  20
ATOM     20  C   UNL     1      48.759   6.893  17.056  0.00  0.00    +0.000 A 
ATOM     21  C   UNL     1      48.371   8.101  17.616  0.00  0.00    +0.000 A 
ATOM     22  S   UNL     1      48.129   8.022  19.304  0.00  0.00    +0.000 S 
ATOM     23  C   UNL     1      48.497   6.359  19.335  0.00  0.00    +0.000 A 
ATOM     24  N   UNL     1      48.454   5.653  20.494  0.00  0.00    +0.000 NA
ATOM     25  C   UNL     1      48.718   4.392  20.360  0.00  0.00    +0.000 A 
ATOM     26  N   UNL     1      49.029   3.783  19.175  0.00  0.00    +0.000 N 
ATOM     27  C   UNL     1      49.161   4.471  17.994  0.00  0.00    +0.000 A 
ATOM     28  O   UNL     1      49.587   3.913  16.989  0.00  0.00    +0.000 OA
ATOM     29  C   UNL     1      48.827   5.880  18.080  0.00  0.00    +0.000 A 
ATOM     32  H   UNL     1      49.261   2.801  19.145  0.00  0.00    +0.000 HD
ENDBRANCH   2  20
ENDBRANCH   4   3
TORSDOF 7
ENDMDL
MODEL 2
REMARK VINA RESULT:    -8.691      0.114      1.271
REMARK INTER + INTRA:         -13.391
REMARK INTER:                 -12.273
REMARK INTRA:                  -1.118
REMARK UNBOUND:                -1.144
REMARK  Name = 
REMARK  7 active torsions:
REMARK  status: ('A' for Active; 'I' for Inactive)
REMARK    1  A    between atoms: C_2  and  C_20
REMARK    2  A    between atoms: N_3  and  C_4
REMARK    3  A    between atoms: C_4  and  C_5
REMARK    4  A    between atoms: C_8  and  C_9
REMARK    5  A    between atoms: C_9  and  N_10
REMARK    6  A    between atoms: N_10  and  C_11
REMARK    7  A    between atoms: C_11  and  C_12
REMARK                            x       y       z     vdW  Elec       q    Type
REMARK                         _______ _______ _______ _____ _____    ______ ____
ROOT
ATOM      4  C   UNL     1      47.967   6.863  13.333  0.00  0.00    +0.000 C 
ENDROOT
BRANCH   4   5
ATOM      5  C   UNL     1      46.811   6.099  12.742  0.00  0.00    +0.000 A 
ATOM      6  C   UNL     1      46.394   6.359  11.432  0.00  0.00    +0.000 A 
ATOM      7  C   UNL     1      45.333   5.648  10.869  0.00  0.00    +0.000 A 
ATOM      8  C   UNL     1      44.658   4.665  11.606  0.00  0.00    +0.000 A 
ATOM     18  C   UNL     1      45.057   4.425  12.928  0.00  0.00    +0.000 A 
ATOM     19  C   UNL     1      46.118   5.141  13.494  0.00  0.00    +0.000 A 
BRANCH   8   9
ATOM      9  C   UNL     1      43.508   3.897  10.996  0.00  0.00    +0.000 C 
BRANCH   9  10
ATOM     10  N   UNL     1      43.803   3.507   9.620  0.00  0.00    +0.000 NA
ATOM     31  H   UNL     1      44.308   4.262   9.157  0.00  0.00    +0.000 HD
BRANCH  10  11
ATOM     11  C   UNL     1      44.610   2.290   9.568  0.00  0.00    +0.000 C 
BRANCH  11  12
ATOM     12  C   UNL     1      45.596   2.343   8.425  0.00  0.00    +0.000 A 
ATOM     13  C   UNL     1      45.798   3.524   7.698  0.00  0.00    +0.000 A 
ATOM     14  C   UNL     1      46.729   3.566   6.658  0.00  0.00    +0.000 A 
ATOM     15  C   UNL     1      47.469   2.430   6.335  0.00  0.00    +0.000 A 
ATOM     16  C   UNL     1      47.273   1.247   7.045  0.00  0.00    +0.000 A 
ATOM     17  C   UNL     1      46.343   1.203   8.083  0.00  0.00    +0.000 A 
ENDBRANCH  11  12
ENDBRANCH  10  11
ENDBRANCH   9  10
ENDBRANCH   8   9
ENDBRANCH   4   5
BRANCH   4   3
ATOM      1  O   UNL     1      50.175   6.741  15.089  0.00  0.00    +0.000 OA
ATOM      2  C   UNL     1      49.045   6.864  15.551  0.00  0.00    +0.000 C 
ATOM      3  N   UNL     1      47.918   6.865  14.772  0.00  0.00    +0.000 N 
ATOM     30  H   UNL     1      47.040   7.166  15.178  0.00  0.00    +0.000 HD
BRANCH   2  20
ATOM     20  C   UNL     1      48.816   6.956  16.999  0.00  0.00    +0.000 A 
ATOM     21  C   UNL     1      48.455   8.167  17.570  0.00  0.00    +0.000 A 
ATOM     22  S   UNL     1      48.249   8.085  19.263  0.00  0.00    +0.000 S 
ATOM     23  C   UNL     1      48.597   6.418  19.280  0.00  0.00    +0.000 A 
ATOM     24  N   UNL     1      48.571   5.708  20.437  0.00  0.00    +0.000 NA
ATOM     25  C   UNL     1      48.816   4.445  20.294  0.00  0.00    +0.000 A 
ATOM     26  N   UNL     1      49.094   3.836  19.101  0.00  0.00    +0.000 N 
ATOM     27  C   UNL     1      49.209   4.527  17.919  0.00  0.00    +0.000 A 
ATOM     28  O   UNL     1      49.606   3.967  16.903  0.00  0.00    +0.000 OA
ATOM     29  C   UNL     1      48.893   5.939  18.017  0.00  0.00    +0.000 A 
ATOM     32  H   UNL     1      49.313   2.851  19.062  0.00  0.00    +0.000 HD
ENDBRANCH   2  20
ENDBRANCH   4   3
TORSDOF 7
ENDMDL
MODEL 3
REMARK VINA RESULT:    -8.617      0.976      1.076
REMARK INTER + INTRA:         -13.287
REMARK INTER:                 -11.958
REMARK INTRA:                  -1.329
REMARK UNBOUND:                -1.144
REMARK  Name = 
REMARK  7 active torsions:
REMARK  status: ('A' for Active; 'I' for Inactive)
REMARK    1  A    between atoms: C_2  and  C_20
REMARK    2  A    between atoms: N_3  and  C_4
REMARK    3  A    between atoms: C_4  and  C_5
REMARK    4  A    between atoms: C_8  and  C_9
REMARK    5  A    between atoms: C_9  and  N_10
REMARK    6  A    between atoms: N_10  and  C_11
REMARK    7  A    between atoms: C_11  and  C_12
REMARK                            x       y       z     vdW  Elec       q    Type
REMARK                         _______ _______ _______ _____ _____    ______ ____
ROOT
ATOM      4  C   UNL     1      47.434   7.329  13.247  0.00  0.00    +0.000 C 
ENDROOT
BRANCH   4   5
ATOM      5  C   UNL     1      46.409   6.411  12.632  0.00  0.00    +0.000 A 
ATOM      6  C   UNL     1      45.764   5.451  13.418  0.00  0.00    +0.000 A 
ATOM      7  C   UNL     1      44.803   4.605  12.862  0.00  0.00    +0.000 A 
ATOM      8  C   UNL     1      44.470   4.695  11.503  0.00  0.00    +0.000 A 
ATOM     18  C   UNL     1      45.137   5.638  10.709  0.00  0.00    +0.000 A 
ATOM     19  C   UNL     1      46.104   6.482  11.266  0.00  0.00    +0.000 A 
BRANCH   8   9
ATOM      9  C   UNL     1      43.430   3.776  10.902  0.00  0.00    +0.000 C 
BRANCH   9  10
ATOM     10  N   UNL     1      43.792   3.387   9.541  0.00  0.00    +0.000 NA
ATOM     31  H   UNL     1      44.276   4.160   9.087  0.00  0.00    +0.000 HD
BRANCH  10  11
ATOM     11  C   UNL     1      44.658   2.211   9.533  0.00  0.00    +0.000 C 
BRANCH  11  12
ATOM     12  C   UNL     1      45.664   2.287   8.408  0.00  0.00    +0.000 A 
ATOM     13  C   UNL     1      46.425   1.169   8.041  0.00  0.00    +0.000 A 
ATOM     14  C   UNL     1      47.335   1.246   6.985  0.00  0.00    +0.000 A 
ATOM     15  C   UNL     1      47.493   2.440   6.284  0.00  0.00    +0.000 A 
ATOM     16  C   UNL     1      46.748   3.562   6.642  0.00  0.00    +0.000 A 
ATOM     17  C   UNL     1      45.839   3.486   7.697  0.00  0.00    +0.000 A 
ENDBRANCH  11  12
ENDBRANCH  10  11
ENDBRANCH   9  10
ENDBRANCH   8   9
ENDBRANCH   4   5
BRANCH   4   3
ATOM      1  O   UNL     1      50.042   7.114  14.308  0.00  0.00    +0.000 OA
ATOM      2  C   UNL     1      49.078   6.891  15.033  0.00  0.00    +0.000 C 
ATOM      3  N   UNL     1      47.784   6.910  14.579  0.00  0.00    +0.000 N 
ATOM     30  H   UNL     1      47.028   6.916  15.252  0.00  0.00    +0.000 HD
BRANCH   2  20
ATOM     20  C   UNL     1      49.250   6.522  16.443  0.00  0.00    +0.000 A 
ATOM     21  C   UNL     1      49.843   7.410  17.328  0.00  0.00    +0.000 A 
ATOM     22  S   UNL     1      49.973   6.800  18.918  0.00  0.00    +0.000 S 
ATOM     23  C   UNL     1      49.204   5.345  18.482  0.00  0.00    +0.000 A 
ATOM     24  N   UNL     1      48.973   4.371  19.400  0.00  0.00    +0.000 NA
ATOM     25  C   UNL     1      48.344   3.339  18.937  0.00  0.00    +0.000 A 
ATOM     26  N   UNL     1      47.938   3.192  17.638  0.00  0.00    +0.000 N 
ATOM     27  C   UNL     1      48.219   4.114  16.660  0.00  0.00    +0.000 A 
ATOM     28  O   UNL     1      47.969   3.874  15.483  0.00  0.00    +0.000 OA
ATOM     29  C   UNL     1      48.878   5.314  17.138  0.00  0.00    +0.000 A 
ATOM     32  H   UNL     1      47.484   2.344  17.331  0.00  0.00    +0.000 HD
ENDBRANCH   2  20
ENDBRANCH   4   3
TORSDOF 7
ENDMDL
MODEL 4
REMARK VINA RESULT:    -8.285      1.415      2.353
REMARK INTER + INTRA:         -12.819
REMARK INTER:                 -11.634
REMARK INTRA:                  -1.185
REMARK UNBOUND:                -1.144
REMARK  Name = 
REMARK  7 active torsions:
REMARK  status: ('A' for Active; 'I' for Inactive)
REMARK    1  A    between atoms: C_2  and  C_20
REMARK    2  A    between atoms: N_3  and  C_4
REMARK    3  A    between atoms: C_4  and  C_5
REMARK    4  A    between atoms: C_8  and  C_9
REMARK    5  A    between atoms: C_9  and  N_10
REMARK    6  A    between atoms: N_10  and  C_11
REMARK    7  A    between atoms: C_11  and  C_12
REMARK                            x       y       z     vdW  Elec       q    Type
REMARK                         _______ _______ _______ _____ _____    ______ ____
ROOT
ATOM      4  C   UNL     1      47.932   6.802  13.544  0.00  0.00    +0.000 C 
ENDROOT
BRANCH   4   5
ATOM      5  C   UNL     1      46.777   6.108  12.871  0.00  0.00    +0.000 A 
ATOM      6  C   UNL     1      46.426   6.442  11.558  0.00  0.00    +0.000 A 
ATOM      7  C   UNL     1      45.366   5.795  10.920  0.00  0.00    +0.000 A 
ATOM      8  C   UNL     1      44.627   4.805  11.582  0.00  0.00    +0.000 A 
ATOM     18  C   UNL     1      44.961   4.491  12.907  0.00  0.00    +0.000 A 
ATOM     19  C   UNL     1      46.020   5.143  13.548  0.00  0.00    +0.000 A 
BRANCH   8   9
ATOM      9  C   UNL     1      43.478   4.107  10.890  0.00  0.00    +0.000 C 
BRANCH   9  10
ATOM     10  N   UNL     1      43.850   3.685   9.542  0.00  0.00    +0.000 NA
ATOM     31  H   UNL     1      44.411   4.414   9.103  0.00  0.00    +0.000 HD
BRANCH  10  11
ATOM     11  C   UNL     1      44.617   2.441   9.563  0.00  0.00    +0.000 C 
BRANCH  11  12
ATOM     12  C   UNL     1      45.615   2.402   8.429  0.00  0.00    +0.000 A 
ATOM     13  C   UNL     1      46.307   1.224   8.115  0.00  0.00    +0.000 A 
ATOM     14  C   UNL     1      47.211   1.195   7.051  0.00  0.00    +0.000 A 
ATOM     15  C   UNL     1      47.432   2.341   6.290  0.00  0.00    +0.000 A 
ATOM     16  C   UNL     1      46.758   3.522   6.596  0.00  0.00    +0.000 A 
ATOM     17  C   UNL     1      45.855   3.552   7.659  0.00  0.00    +0.000 A 
ENDBRANCH  11  12
ENDBRANCH  10  11
ENDBRANCH   9  10
ENDBRANCH   8   9
ENDBRANCH   4   5
BRANCH   4   3
ATOM      1  O   UNL     1      50.152   6.627  15.280  0.00  0.00    +0.000 OA
ATOM      2  C   UNL     1      49.019   6.619  15.750  0.00  0.00    +0.000 C 
ATOM      3  N   UNL     1      47.890   6.634  14.972  0.00  0.00    +0.000 N 
ATOM     30  H   UNL     1      46.996   6.825  15.408  0.00  0.00    +0.000 HD
BRANCH   2  20
ATOM     20  C   UNL     1      48.791   6.526  17.197  0.00  0.00    +0.000 A 
ATOM     21  C   UNL     1      49.067   5.346  17.871  0.00  0.00    +0.000 A 
ATOM     22  S   UNL     1      48.724   5.422  19.543  0.00  0.00    +0.000 S 
ATOM     23  C   UNL     1      48.232   7.047  19.424  0.00  0.00    +0.000 A 
ATOM     24  N   UNL     1      47.827   7.739  20.521  0.00  0.00    +0.000 NA
ATOM     25  C   UNL     1      47.521   8.975  20.290  0.00  0.00    +0.000 A 
ATOM     26  N   UNL     1      47.575   9.574  19.060  0.00  0.00    +0.000 N 
ATOM     27  C   UNL     1      47.902   8.893  17.912  0.00  0.00    +0.000 A 
ATOM     28  O   UNL     1      47.792   9.429  16.815  0.00  0.00    +0.000 OA
ATOM     29  C   UNL     1      48.302   7.516  18.125  0.00  0.00    +0.000 A 
ATOM     32  H   UNL     1      47.287  10.534  18.939  0.00  0.00    +0.000 HD
ENDBRANCH   2  20
ENDBRANCH   4   3
TORSDOF 7
ENDMDL
MODEL 5
REMARK VINA RESULT:    -8.124      1.725      2.398
REMARK INTER + INTRA:         -12.592
REMARK INTER:                 -11.499
REMARK INTRA:                  -1.093
REMARK UNBOUND:                -1.144
REMARK  Name = 
REMARK  7 active torsions:
REMARK  status: ('A' for Active; 'I' for Inactive)
REMARK    1  A    between atoms: C_2  and  C_20
REMARK    2  A    between atoms: N_3  and  C_4
REMARK    3  A    between atoms: C_4  and  C_5
REMARK    4  A    between atoms: C_8  and  C_9
REMARK    5  A    between atoms: C_9  and  N_10
REMARK    6  A    between atoms: N_10  and  C_11
REMARK    7  A    between atoms: C_11  and  C_12
REMARK                            x       y       z     vdW  Elec       q    Type
REMARK                         _______ _______ _______ _____ _____    ______ ____
ROOT
ATOM      4  C   UNL     1      47.431   3.318  14.977  0.00  0.00    +0.000 C 
ENDROOT
BRANCH   4   5
ATOM      5  C   UNL     1      46.796   3.971  13.777  0.00  0.00    +0.000 A 
ATOM      6  C   UNL     1      45.925   3.242  12.960  0.00  0.00    +0.000 A 
ATOM      7  C   UNL     1      45.320   3.840  11.854  0.00  0.00    +0.000 A 
ATOM      8  C   UNL     1      45.577   5.181  11.534  0.00  0.00    +0.000 A 
ATOM     18  C   UNL     1      46.472   5.903  12.336  0.00  0.00    +0.000 A 
ATOM     19  C   UNL     1      47.082   5.301  13.442  0.00  0.00    +0.000 A 
BRANCH   8   9
ATOM      9  C   UNL     1      44.922   5.827  10.334  0.00  0.00    +0.000 C 
BRANCH   9  10
ATOM     10  N   UNL     1      45.540   5.379   9.089  0.00  0.00    +0.000 NA
ATOM     31  H   UNL     1      46.484   5.046   9.282  0.00  0.00    +0.000 HD
BRANCH  10  11
ATOM     11  C   UNL     1      44.772   4.304   8.466  0.00  0.00    +0.000 C 
BRANCH  11  12
ATOM     12  C   UNL     1      45.687   3.233   7.917  0.00  0.00    +0.000 A 
ATOM     13  C   UNL     1      45.742   1.960   8.502  0.00  0.00    +0.000 A 
ATOM     14  C   UNL     1      46.575   0.973   7.972  0.00  0.00    +0.000 A 
ATOM     15  C   UNL     1      47.360   1.245   6.854  0.00  0.00    +0.000 A 
ATOM     16  C   UNL     1      47.320   2.509   6.266  0.00  0.00    +0.000 A 
ATOM     17  C   UNL     1      46.489   3.496   6.795  0.00  0.00    +0.000 A 
ENDBRANCH  11  12
ENDBRANCH  10  11
ENDBRANCH   9  10
ENDBRANCH   8   9
ENDBRANCH   4   5
BRANCH   4   3
ATOM      1  O   UNL     1      46.699   3.157  17.699  0.00  0.00    +0.000 OA
ATOM      2  C   UNL     1      47.391   4.095  17.317  0.00  0.00    +0.000 C 
ATOM      3  N   UNL     1      47.734   4.281  16.003  0.00  0.00    +0.000 N 
ATOM     30  H   UNL     1      48.461   4.949  15.775  0.00  0.00    +0.000 HD
BRANCH   2  20
ATOM     20  C   UNL     1      47.853   5.134  18.246  0.00  0.00    +0.000 A 
ATOM     21  C   UNL     1      46.943   5.805  19.049  0.00  0.00    +0.000 A 
ATOM     22  S   UNL     1      47.662   6.987  20.050  0.00  0.00    +0.000 S 
ATOM     23  C   UNL     1      49.218   6.610  19.471  0.00  0.00    +0.000 A 
ATOM     24  N   UNL     1      50.316   7.254  19.944  0.00  0.00    +0.000 NA
ATOM     25  C   UNL     1      51.436   6.837  19.445  0.00  0.00    +0.000 A 
ATOM     26  N   UNL     1      51.550   5.844  18.509  0.00  0.00    +0.000 N 
ATOM     27  C   UNL     1      50.462   5.222  17.946  0.00  0.00    +0.000 A 
ATOM     28  O   UNL     1      50.603   4.447  17.006  0.00  0.00    +0.000 OA
ATOM     29  C   UNL     1      49.186   5.618  18.509  0.00  0.00    +0.000 A 
ATOM     32  H   UNL     1      52.451   5.591  18.132  0.00  0.00    +0.000 HD
ENDBRANCH   2  20
ENDBRANCH   4   3
TORSDOF 7
ENDMDL
MODEL 6
REMARK VINA RESULT:    -7.810      1.744      3.130
REMARK INTER + INTRA:         -12.150
REMARK INTER:                 -11.136
REMARK INTRA:                  -1.013
REMARK UNBOUND:                -1.144
REMARK  Name = 
REMARK  7 active torsions:
REMARK  status: ('A' for Active; 'I' for Inactive)
REMARK    1  A    between atoms: C_2  and  C_20
REMARK    2  A    between atoms: N_3  and  C_4
REMARK    3  A    between atoms: C_4  and  C_5
REMARK    4  A    between atoms: C_8  and  C_9
REMARK    5  A    between atoms: C_9  and  N_10
REMARK    6  A    between atoms: N_10  and  C_11
REMARK    7  A    between atoms: C_11  and  C_12
REMARK                            x       y       z     vdW  Elec       q    Type
REMARK                         _______ _______ _______ _____ _____    ______ ____
ROOT
ATOM      4  C   UNL     1      47.529   4.123  15.264  0.00  0.00    +0.000 C 
ENDROOT
BRANCH   4   5
ATOM      5  C   UNL     1      46.881   4.616  13.997  0.00  0.00    +0.000 A 
ATOM      6  C   UNL     1      47.395   5.737  13.336  0.00  0.00    +0.000 A 
ATOM      7  C   UNL     1      46.812   6.195  12.153  0.00  0.00    +0.000 A 
ATOM      8  C   UNL     1      45.696   5.545  11.607  0.00  0.00    +0.000 A 
ATOM     18  C   UNL     1      45.164   4.439  12.284  0.00  0.00    +0.000 A 
ATOM     19  C   UNL     1      45.746   3.984  13.473  0.00  0.00    +0.000 A 
BRANCH   8   9
ATOM      9  C   UNL     1      45.063   6.043  10.327  0.00  0.00    +0.000 C 
BRANCH   9  10
ATOM     10  N   UNL     1      45.673   5.417   9.157  0.00  0.00    +0.000 NA
ATOM     31  H   UNL     1      46.596   5.064   9.407  0.00  0.00    +0.000 HD
BRANCH  10  11
ATOM     11  C   UNL     1      44.860   4.312   8.655  0.00  0.00    +0.000 C 
BRANCH  11  12
ATOM     12  C   UNL     1      45.724   3.249   8.019  0.00  0.00    +0.000 A 
ATOM     13  C   UNL     1      46.526   3.539   6.907  0.00  0.00    +0.000 A 
ATOM     14  C   UNL     1      47.338   2.554   6.341  0.00  0.00    +0.000 A 
ATOM     15  C   UNL     1      47.357   1.269   6.880  0.00  0.00    +0.000 A 
ATOM     16  C   UNL     1      46.559   0.964   7.982  0.00  0.00    +0.000 A 
ATOM     17  C   UNL     1      45.747   1.947   8.547  0.00  0.00    +0.000 A 
ENDBRANCH  11  12
ENDBRANCH  10  11
ENDBRANCH   9  10
ENDBRANCH   8   9
ENDBRANCH   4   5
BRANCH   4   3
ATOM      1  O   UNL     1      49.750   5.245  16.599  0.00  0.00    +0.000 OA
ATOM      2  C   UNL     1      48.624   5.658  16.854  0.00  0.00    +0.000 C 
ATOM      3  N   UNL     1      47.490   5.122  16.299  0.00  0.00    +0.000 N 
ATOM     30  H   UNL     1      46.615   5.624  16.390  0.00  0.00    +0.000 HD
BRANCH   2  20
ATOM     20  C   UNL     1      48.405   6.729  17.835  0.00  0.00    +0.000 A 
ATOM     21  C   UNL     1      48.340   6.430  19.188  0.00  0.00    +0.000 A 
ATOM     22  S   UNL     1      48.064   7.798  20.172  0.00  0.00    +0.000 S 
ATOM     23  C   UNL     1      48.064   8.838  18.824  0.00  0.00    +0.000 A 
ATOM     24  N   UNL     1      47.897  10.177  18.971  0.00  0.00    +0.000 NA
ATOM     25  C   UNL     1      47.959  10.848  17.866  0.00  0.00    +0.000 A 
ATOM     26  N   UNL     1      48.161  10.296  16.630  0.00  0.00    +0.000 N 
ATOM     27  C   UNL     1      48.256   8.941  16.425  0.00  0.00    +0.000 A 
ATOM     28  O   UNL     1      48.286   8.481  15.289  0.00  0.00    +0.000 OA
ATOM     29  C   UNL     1      48.243   8.148  17.639  0.00  0.00    +0.000 A 
ATOM     32  H   UNL     1      48.162  10.871  15.801  0.00  0.00    +0.000 HD
ENDBRANCH   2  20
ENDBRANCH   4   3
TORSDOF 7
ENDMDL
MODEL 7
REMARK VINA RESULT:    -7.768      1.468      2.179
REMARK INTER + INTRA:         -12.091
REMARK INTER:                 -11.063
REMARK INTRA:                  -1.028
REMARK UNBOUND:                -1.144
REMARK  Name = 
REMARK  7 active torsions:
REMARK  status: ('A' for Active; 'I' for Inactive)
REMARK    1  A    between atoms: C_2  and  C_20
REMARK    2  A    between atoms: N_3  and  C_4
REMARK    3  A    between atoms: C_4  and  C_5
REMARK    4  A    between atoms: C_8  and  C_9
REMARK    5  A    between atoms: C_9  and  N_10
REMARK    6  A    between atoms: N_10  and  C_11
REMARK    7  A    between atoms: C_11  and  C_12
REMARK                            x       y       z     vdW  Elec       q    Type
REMARK                         _______ _______ _______ _____ _____    ______ ____
ROOT
ATOM      4  C   UNL     1      47.420   4.265  14.781  0.00  0.00    +0.000 C 
ENDROOT
BRANCH   4   5
ATOM      5  C   UNL     1      46.441   4.458  13.652  0.00  0.00    +0.000 A 
ATOM      6  C   UNL     1      45.882   3.348  13.010  0.00  0.00    +0.000 A 
ATOM      7  C   UNL     1      44.964   3.514  11.972  0.00  0.00    +0.000 A 
ATOM      8  C   UNL     1      44.588   4.796  11.547  0.00  0.00    +0.000 A 
ATOM     18  C   UNL     1      45.169   5.908  12.171  0.00  0.00    +0.000 A 
ATOM     19  C   UNL     1      46.094   5.741  13.208  0.00  0.00    +0.000 A 
BRANCH   8   9
ATOM      9  C   UNL     1      43.594   4.975  10.421  0.00  0.00    +0.000 C 
BRANCH   9  10
ATOM     10  N   UNL     1      43.935   4.135   9.276  0.00  0.00    +0.000 NA
ATOM     31  H   UNL     1      43.184   4.181   8.589  0.00  0.00    +0.000 HD
BRANCH  10  11
ATOM     11  C   UNL     1      45.184   4.562   8.650  0.00  0.00    +0.000 C 
BRANCH  11  12
ATOM     12  C   UNL     1      45.908   3.389   8.032  0.00  0.00    +0.000 A 
ATOM     13  C   UNL     1      46.793   3.570   6.960  0.00  0.00    +0.000 A 
ATOM     14  C   UNL     1      47.475   2.481   6.412  0.00  0.00    +0.000 A 
ATOM     15  C   UNL     1      47.279   1.202   6.929  0.00  0.00    +0.000 A 
ATOM     16  C   UNL     1      46.396   1.006   7.990  0.00  0.00    +0.000 A 
ATOM     17  C   UNL     1      45.715   2.093   8.538  0.00  0.00    +0.000 A 
ENDBRANCH  11  12
ENDBRANCH  10  11
ENDBRANCH   9  10
ENDBRANCH   8   9
ENDBRANCH   4   5
BRANCH   4   3
ATOM      1  O   UNL     1      49.575   5.065  16.420  0.00  0.00    +0.000 OA
ATOM      2  C   UNL     1      48.566   5.761  16.371  0.00  0.00    +0.000 C 
ATOM      3  N   UNL     1      47.453   5.410  15.652  0.00  0.00    +0.000 N 
ATOM     30  H   UNL     1      46.735   6.105  15.488  0.00  0.00    +0.000 HD
BRANCH   2  20
ATOM     20  C   UNL     1      48.457   7.006  17.142  0.00  0.00    +0.000 A 
ATOM     21  C   UNL     1      48.650   8.230  16.518  0.00  0.00    +0.000 A 
ATOM     22  S   UNL     1      48.500   9.563  17.575  0.00  0.00    +0.000 S 
ATOM     23  C   UNL     1      48.134   8.547  18.892  0.00  0.00    +0.000 A 
ATOM     24  N   UNL     1      47.867   9.061  20.121  0.00  0.00    +0.000 NA
ATOM     25  C   UNL     1      47.565   8.176  21.016  0.00  0.00    +0.000 A 
ATOM     26  N   UNL     1      47.518   6.826  20.791  0.00  0.00    +0.000 N 
ATOM     27  C   UNL     1      47.856   6.258  19.587  0.00  0.00    +0.000 A 
ATOM     28  O   UNL     1      47.944   5.040  19.474  0.00  0.00    +0.000 OA
ATOM     29  C   UNL     1      48.153   7.211  18.536  0.00  0.00    +0.000 A 
ATOM     32  H   UNL     1      47.311   6.185  21.543  0.00  0.00    +0.000 HD
ENDBRANCH   2  20
ENDBRANCH   4   3
TORSDOF 7
ENDMDL
MODEL 8
REMARK VINA RESULT:    -7.472      2.172      2.784
REMARK INTER + INTRA:         -11.674
REMARK INTER:                 -10.472
REMARK INTRA:                  -1.202
REMARK UNBOUND:                -1.144
REMARK  Name = 
REMARK  7 active torsions:
REMARK  status: ('A' for Active; 'I' for Inactive)
REMARK    1  A    between atoms: C_2  and  C_20
REMARK    2  A    between atoms: N_3  and  C_4
REMARK    3  A    between atoms: C_4  and  C_5
REMARK    4  A    between atoms: C_8  and  C_9
REMARK    5  A    between atoms: C_9  and  N_10
REMARK    6  A    between atoms: N_10  and  C_11
REMARK    7  A    between atoms: C_11  and  C_12
REMARK                            x       y       z     vdW  Elec       q    Type
REMARK                         _______ _______ _______ _____ _____    ______ ____
ROOT
ATOM      4  C   UNL     1      46.925   8.027  12.801  0.00  0.00    +0.000 C 
ENDROOT
BRANCH   4   5
ATOM      5  C   UNL     1      46.177   6.780  12.407  0.00  0.00    +0.000 A 
ATOM      6  C   UNL     1      45.194   6.835  11.412  0.00  0.00    +0.000 A 
ATOM      7  C   UNL     1      44.505   5.684  11.029  0.00  0.00    +0.000 A 
ATOM      8  C   UNL     1      44.778   4.450  11.635  0.00  0.00    +0.000 A 
ATOM     18  C   UNL     1      45.743   4.400  12.651  0.00  0.00    +0.000 A 
ATOM     19  C   UNL     1      46.430   5.555  13.039  0.00  0.00    +0.000 A 
BRANCH   8   9
ATOM      9  C   UNL     1      44.029   3.204  11.220  0.00  0.00    +0.000 C 
BRANCH   9  10
ATOM     10  N   UNL     1      43.912   3.117   9.767  0.00  0.00    +0.000 NA
ATOM     31  H   UNL     1      44.400   3.905   9.342  0.00  0.00    +0.000 HD
BRANCH  10  11
ATOM     11  C   UNL     1      44.481   1.872   9.256  0.00  0.00    +0.000 C 
BRANCH  11  12
ATOM     12  C   UNL     1      45.640   2.147   8.327  0.00  0.00    +0.000 A 
ATOM     13  C   UNL     1      46.517   1.123   7.943  0.00  0.00    +0.000 A 
ATOM     14  C   UNL     1      47.572   1.386   7.066  0.00  0.00    +0.000 A 
ATOM     15  C   UNL     1      47.761   2.672   6.564  0.00  0.00    +0.000 A 
ATOM     16  C   UNL     1      46.901   3.701   6.944  0.00  0.00    +0.000 A 
ATOM     17  C   UNL     1      45.848   3.440   7.820  0.00  0.00    +0.000 A 
ENDBRANCH  11  12
ENDBRANCH  10  11
ENDBRANCH   9  10
ENDBRANCH   8   9
ENDBRANCH   4   5
BRANCH   4   3
ATOM      1  O   UNL     1      48.815   9.875  13.792  0.00  0.00    +0.000 OA
ATOM      2  C   UNL     1      49.036   8.673  13.898  0.00  0.00    +0.000 C 
ATOM      3  N   UNL     1      48.202   7.714  13.386  0.00  0.00    +0.000 N 
ATOM     30  H   UNL     1      48.327   6.750  13.671  0.00  0.00    +0.000 HD
BRANCH   2  20
ATOM     20  C   UNL     1      50.261   8.174  14.536  0.00  0.00    +0.000 A 
ATOM     21  C   UNL     1      51.491   8.727  14.211  0.00  0.00    +0.000 A 
ATOM     22  S   UNL     1      52.800   8.007  15.038  0.00  0.00    +0.000 S 
ATOM     23  C   UNL     1      51.759   6.961  15.888  0.00  0.00    +0.000 A 
ATOM     24  N   UNL     1      52.244   6.078  16.799  0.00  0.00    +0.000 NA
ATOM     25  C   UNL     1      51.336   5.375  17.397  0.00  0.00    +0.000 A 
ATOM     26  N   UNL     1      49.992   5.471  17.155  0.00  0.00    +0.000 N 
ATOM     27  C   UNL     1      49.465   6.292  16.189  0.00  0.00    +0.000 A 
ATOM     28  O   UNL     1      48.273   6.237  15.903  0.00  0.00    +0.000 OA
ATOM     29  C   UNL     1      50.437   7.138  15.525  0.00  0.00    +0.000 A 
ATOM     32  H   UNL     1      49.337   4.867  17.630  0.00  0.00    +0.000 HD
ENDBRANCH   2  20
ENDBRANCH   4   3
TORSDOF 7
ENDMDL
MODEL 9
REMARK VINA RESULT:    -7.436      2.222      3.849
REMARK INTER + INTRA:         -11.623
REMARK INTER:                 -10.619
REMARK INTRA:                  -1.004
REMARK UNBOUND:                -1.144
REMARK  Name = 
REMARK  7 active torsions:
REMARK  status: ('A' for Active; 'I' for Inactive)
REMARK    1  A    between atoms: C_2  and  C_20
REMARK    2  A    between atoms: N_3  and  C_4
REMARK    3  A    between atoms: C_4  and  C_5
REMARK    4  A    between atoms: C_8  and  C_9
REMARK    5  A    between atoms: C_9  and  N_10
REMARK    6  A    between atoms: N_10  and  C_11
REMARK    7  A    between atoms: C_11  and  C_12
REMARK                            x       y       z     vdW  Elec       q    Type
REMARK                         _______ _______ _______ _____ _____    ______ ____
ROOT
ATOM      4  C   UNL     1      47.371   4.822  14.963  0.00  0.00    +0.000 C 
ENDROOT
BRANCH   4   5
ATOM      5  C   UNL     1      46.431   4.795  13.786  0.00  0.00    +0.000 A 
ATOM      6  C   UNL     1      46.016   3.572  13.248  0.00  0.00    +0.000 A 
ATOM      7  C   UNL     1      45.134   3.533  12.166  0.00  0.00    +0.000 A 
ATOM      8  C   UNL     1      44.652   4.719  11.593  0.00  0.00    +0.000 A 
ATOM     18  C   UNL     1      45.090   5.944  12.114  0.00  0.00    +0.000 A 
ATOM     19  C   UNL     1      45.978   5.981  13.195  0.00  0.00    +0.000 A 
BRANCH   8   9
ATOM      9  C   UNL     1      43.698   4.676  10.420  0.00  0.00    +0.000 C 
BRANCH   9  10
ATOM     10  N   UNL     1      44.406   4.403   9.172  0.00  0.00    +0.000 NA
ATOM     31  H   UNL     1      45.367   4.734   9.251  0.00  0.00    +0.000 HD
BRANCH  10  11
ATOM     11  C   UNL     1      44.417   2.976   8.862  0.00  0.00    +0.000 C 
BRANCH  11  12
ATOM     12  C   UNL     1      45.574   2.627   7.955  0.00  0.00    +0.000 A 
ATOM     13  C   UNL     1      45.985   3.500   6.939  0.00  0.00    +0.000 A 
ATOM     14  C   UNL     1      47.070   3.176   6.122  0.00  0.00    +0.000 A 
ATOM     15  C   UNL     1      47.756   1.978   6.312  0.00  0.00    +0.000 A 
ATOM     16  C   UNL     1      47.353   1.096   7.314  0.00  0.00    +0.000 A 
ATOM     17  C   UNL     1      46.269   1.419   8.130  0.00  0.00    +0.000 A 
ENDBRANCH  11  12
ENDBRANCH  10  11
ENDBRANCH   9  10
ENDBRANCH   8   9
ENDBRANCH   4   5
BRANCH   4   3
ATOM      1  O   UNL     1      49.643   5.441  16.521  0.00  0.00    +0.000 OA
ATOM      2  C   UNL     1      49.103   6.327  15.867  0.00  0.00    +0.000 C 
ATOM      3  N   UNL     1      47.959   6.123  15.138  0.00  0.00    +0.000 N 
ATOM     30  H   UNL     1      47.673   6.826  14.467  0.00  0.00    +0.000 HD
BRANCH   2  20
ATOM     20  C   UNL     1      49.616   7.703  15.870  0.00  0.00    +0.000 A 
ATOM     21  C   UNL     1      49.847   8.356  17.072  0.00  0.00    +0.000 A 
ATOM     22  S   UNL     1      50.426   9.951  16.877  0.00  0.00    +0.000 S 
ATOM     23  C   UNL     1      50.423   9.804  15.181  0.00  0.00    +0.000 A 
ATOM     24  N   UNL     1      50.837  10.827  14.388  0.00  0.00    +0.000 NA
ATOM     25  C   UNL     1      50.819  10.561  13.122  0.00  0.00    +0.000 A 
ATOM     26  N   UNL     1      50.415   9.370  12.581  0.00  0.00    +0.000 N 
ATOM     27  C   UNL     1      49.915   8.338  13.338  0.00  0.00    +0.000 A 
ATOM     28  O   UNL     1      49.426   7.350  12.803  0.00  0.00    +0.000 OA
ATOM     29  C   UNL     1      49.961   8.568  14.769  0.00  0.00    +0.000 A 
ATOM     32  H   UNL     1      50.390   9.239  11.581  0.00  0.00    +0.000 HD
ENDBRANCH   2  20
ENDBRANCH   4   3
TORSDOF 7
ENDMDL
