MODEL 1
REMARK VINA RESULT:    -7.364      0.000      0.000
REMARK INTER + INTRA:          -9.139
REMARK INTER:                  -9.087
REMARK INTRA:                  -0.053
REMARK UNBOUND:                -0.053
REMARK  Name = 
REMARK  5 active torsions:
REMARK  status: ('A' for Active; 'I' for Inactive)
REMARK    1  A    between atoms: C_1  and  N_2
REMARK    2  A    between atoms: N_2  and  C_18
REMARK    3  A    between atoms: C_3  and  C_5
REMARK    4  A    between atoms: C_5  and  N_6
REMARK    5  A    between atoms: C_11  and  C_12
REMARK                            x       y       z     vdW  Elec       q    Type
REMARK                         _______ _______ _______ _____ _____    ______ ____
ROOT
ATOM      6  N   UNL     1      44.184   4.164  10.441  0.00  0.00    +0.000 N 
ATOM      7  C   UNL     1      43.645   3.005  10.947  0.00  0.00    +0.000 A 
ATOM      8  C   UNL     1      44.203   1.941  10.272  0.00  0.00    +0.000 A 
ATOM      9  C   UNL     1      45.054   2.471   9.269  0.00  0.00    +0.000 A 
ATOM     10  C   UNL     1      45.857   1.917   8.258  0.00  0.00    +0.000 A 
ATOM     11  C   UNL     1      46.546   2.793   7.415  0.00  0.00    +0.000 A 
ATOM     15  C   UNL     1      46.401   4.164   7.628  0.00  0.00    +0.000 A 
ATOM     16  N   UNL     1      45.654   4.751   8.600  0.00  0.00    +0.000 NA
ATOM     17  C   UNL     1      45.012   3.857   9.382  0.00  0.00    +0.000 A 
ENDROOT
BRANCH  11  12
ATOM     12  C   UNL     1      47.414   2.338   6.301  0.00  0.00    +0.000 C 
ATOM     13  N   UNL     1      47.355   3.002   5.108  0.00  0.00    +0.000 N 
ATOM     14  O   UNL     1      48.174   1.384   6.438  0.00  0.00    +0.000 OA
ATOM     24  H   UNL     1      46.757   3.786   4.902  0.00  0.00    +0.000 HD
ATOM     25  H   UNL     1      47.956   2.666   4.366  0.00  0.00    +0.000 HD
ENDBRANCH  11  12
BRANCH   6   5
ATOM      5  C   UNL     1      43.858   5.521  10.871  0.00  0.00    +0.000 C 
BRANCH   5   3
ATOM      1  C   UNL     1      46.552   6.758  10.854  0.00  0.00    +0.000 C 
ATOM      2  N   UNL     1      45.835   6.509  12.102  0.00  0.00    +0.000 N 
ATOM      3  C   UNL     1      44.547   5.949  12.167  0.00  0.00    +0.000 C 
ATOM      4  O   UNL     1      43.958   5.867  13.250  0.00  0.00    +0.000 OA
BRANCH   2  18
ATOM     18  C   UNL     1      46.420   7.005  13.381  0.00  0.00    +0.000 C 
ATOM     19  C   UNL     1      46.537   8.539  13.426  0.00  0.00    +0.000 C 
ATOM     20  C   UNL     1      47.808   9.053  12.760  0.00  0.00    +0.000 C 
ATOM     21  N   UNL     1      49.010   8.438  13.322  0.00  0.00    +0.000 NA
ATOM     22  C   UNL     1      48.985   6.981  13.204  0.00  0.00    +0.000 C 
ATOM     23  C   UNL     1      47.738   6.352  13.824  0.00  0.00    +0.000 C 
ATOM     26  H   UNL     1      49.089   8.696  14.306  0.00  0.00    +0.000 HD
ENDBRANCH   2  18
ENDBRANCH   5   3
ENDBRANCH   6   5
TORSDOF 4
ENDMDL
MODEL 2
REMARK VINA RESULT:    -6.447      3.815      8.472
REMARK INTER + INTRA:          -8.007
REMARK INTER:                  -7.841
REMARK INTRA:                  -0.166
REMARK UNBOUND:                -0.053
REMARK  Name = 
REMARK  5 active torsions:
REMARK  status: ('A' for Active; 'I' for Inactive)
REMARK    1  A    between atoms: C_1  and  N_2
REMARK    2  A    between atoms: N_2  and  C_18
REMARK    3  A    between atoms: C_3  and  C_5
REMARK    4  A    between atoms: C_5  and  N_6
REMARK    5  A    between atoms: C_11  and  C_12
REMARK                            x       y       z     vdW  Elec       q    Type
REMARK                         _______ _______ _______ _____ _____    ______ ____
ROOT
ATOM      6  N   UNL     1      48.423   6.902  14.645  0.00  0.00    +0.000 N 
ATOM      7  C   UNL     1      48.588   8.228  14.965  0.00  0.00    +0.000 A 
ATOM      8  C   UNL     1      48.852   8.315  16.314  0.00  0.00    +0.000 A 
ATOM      9  C   UNL     1      48.770   7.004  16.850  0.00  0.00    +0.000 A 
ATOM     10  C   UNL     1      48.899   6.450  18.135  0.00  0.00    +0.000 A 
ATOM     11  C   UNL     1      48.711   5.073  18.277  0.00  0.00    +0.000 A 
ATOM     15  C   UNL     1      48.411   4.327  17.136  0.00  0.00    +0.000 A 
ATOM     16  N   UNL     1      48.293   4.809  15.870  0.00  0.00    +0.000 NA
ATOM     17  C   UNL     1      48.485   6.143  15.795  0.00  0.00    +0.000 A 
ENDROOT
BRANCH  11  12
ATOM     12  C   UNL     1      48.804   4.367  19.578  0.00  0.00    +0.000 C 
ATOM     13  N   UNL     1      48.393   3.066  19.651  0.00  0.00    +0.000 N 
ATOM     14  O   UNL     1      49.241   4.933  20.576  0.00  0.00    +0.000 OA
ATOM     24  H   UNL     1      48.014   2.527  18.890  0.00  0.00    +0.000 HD
ATOM     25  H   UNL     1      48.465   2.612  20.554  0.00  0.00    +0.000 HD
ENDBRANCH  11  12
BRANCH   6   5
ATOM      5  C   UNL     1      48.120   6.370  13.319  0.00  0.00    +0.000 C 
BRANCH   5   3
ATOM      1  C   UNL     1      46.411   3.950  13.207  0.00  0.00    +0.000 C 
ATOM      2  N   UNL     1      45.885   5.271  12.873  0.00  0.00    +0.000 N 
ATOM      3  C   UNL     1      46.643   6.454  12.933  0.00  0.00    +0.000 C 
ATOM      4  O   UNL     1      46.104   7.549  12.740  0.00  0.00    +0.000 OA
BRANCH   2  18
ATOM     18  C   UNL     1      44.427   5.418  12.593  0.00  0.00    +0.000 C 
ATOM     19  C   UNL     1      43.576   4.348  13.299  0.00  0.00    +0.000 C 
ATOM     20  C   UNL     1      43.495   3.044  12.513  0.00  0.00    +0.000 C 
ATOM     21  N   UNL     1      43.013   3.255  11.149  0.00  0.00    +0.000 NA
ATOM     22  C   UNL     1      43.858   4.189  10.408  0.00  0.00    +0.000 C 
ATOM     23  C   UNL     1      44.028   5.533  11.114  0.00  0.00    +0.000 C 
ATOM     26  H   UNL     1      42.059   3.618  11.184  0.00  0.00    +0.000 HD
ENDBRANCH   2  18
ENDBRANCH   5   3
ENDBRANCH   6   5
TORSDOF 4
ENDMDL
MODEL 3
REMARK VINA RESULT:    -6.263      4.198      6.077
REMARK INTER + INTRA:          -7.780
REMARK INTER:                  -7.632
REMARK INTRA:                  -0.148
REMARK UNBOUND:                -0.053
REMARK  Name = 
REMARK  5 active torsions:
REMARK  status: ('A' for Active; 'I' for Inactive)
REMARK    1  A    between atoms: C_1  and  N_2
REMARK    2  A    between atoms: N_2  and  C_18
REMARK    3  A    between atoms: C_3  and  C_5
REMARK    4  A    between atoms: C_5  and  N_6
REMARK    5  A    between atoms: C_11  and  C_12
REMARK                            x       y       z     vdW  Elec       q    Type
REMARK                         _______ _______ _______ _____ _____    ______ ____
ROOT
ATOM      6  N   UNL     1      47.460   4.604  14.580  0.00  0.00    +0.000 N 
ATOM      7  C   UNL     1      47.913   5.901  14.544  0.00  0.00    +0.000 A 
ATOM      8  C   UNL     1      47.250   6.560  13.532  0.00  0.00    +0.000 A 
ATOM      9  C   UNL     1      46.419   5.613  12.880  0.00  0.00    +0.000 A 
ATOM     10  C   UNL     1      45.544   5.654  11.780  0.00  0.00    +0.000 A 
ATOM     11  C   UNL     1      44.909   4.468  11.404  0.00  0.00    +0.000 A 
ATOM     15  C   UNL     1      45.174   3.314  12.143  0.00  0.00    +0.000 A 
ATOM     16  N   UNL     1      45.995   3.224  13.223  0.00  0.00    +0.000 NA
ATOM     17  C   UNL     1      46.580   4.398  13.539  0.00  0.00    +0.000 A 
ENDROOT
BRANCH  11  12
ATOM     12  C   UNL     1      43.975   4.372  10.255  0.00  0.00    +0.000 C 
ATOM     13  N   UNL     1      44.173   3.389   9.327  0.00  0.00    +0.000 N 
ATOM     14  O   UNL     1      43.039   5.157  10.132  0.00  0.00    +0.000 OA
ATOM     24  H   UNL     1      44.916   2.710   9.341  0.00  0.00    +0.000 HD
ATOM     25  H   UNL     1      43.522   3.352   8.553  0.00  0.00    +0.000 HD
ENDBRANCH  11  12
BRANCH   6   5
ATOM      5  C   UNL     1      47.910   3.564  15.501  0.00  0.00    +0.000 C 
BRANCH   5   3
ATOM      1  C   UNL     1      49.778   4.930  17.355  0.00  0.00    +0.000 C 
ATOM      2  N   UNL     1      48.474   4.448  17.803  0.00  0.00    +0.000 N 
ATOM      3  C   UNL     1      47.540   3.817  16.963  0.00  0.00    +0.000 C 
ATOM      4  O   UNL     1      46.415   3.533  17.385  0.00  0.00    +0.000 OA
BRANCH   2  18
ATOM     18  C   UNL     1      48.026   4.766  19.190  0.00  0.00    +0.000 C 
ATOM     19  C   UNL     1      47.200   6.061  19.266  0.00  0.00    +0.000 C 
ATOM     20  C   UNL     1      48.068   7.310  19.366  0.00  0.00    +0.000 C 
ATOM     21  N   UNL     1      49.003   7.240  20.489  0.00  0.00    +0.000 NA
ATOM     22  C   UNL     1      49.880   6.075  20.398  0.00  0.00    +0.000 C 
ATOM     23  C   UNL     1      49.116   4.758  20.274  0.00  0.00    +0.000 C 
ATOM     26  H   UNL     1      48.475   7.199  21.361  0.00  0.00    +0.000 HD
ENDBRANCH   2  18
ENDBRANCH   5   3
ENDBRANCH   6   5
TORSDOF 4
ENDMDL
MODEL 4
REMARK VINA RESULT:    -6.230      3.827      6.363
REMARK INTER + INTRA:          -7.740
REMARK INTER:                  -7.459
REMARK INTRA:                  -0.281
REMARK UNBOUND:                -0.053
REMARK  Name = 
REMARK  5 active torsions:
REMARK  status: ('A' for Active; 'I' for Inactive)
REMARK    1  A    between atoms: C_1  and  N_2
REMARK    2  A    between atoms: N_2  and  C_18
REMARK    3  A    between atoms: C_3  and  C_5
REMARK    4  A    between atoms: C_5  and  N_6
REMARK    5  A    between atoms: C_11  and  C_12
REMARK                            x       y       z     vdW  Elec       q    Type
REMARK                         _______ _______ _______ _____ _____    ______ ____
ROOT
ATOM      6  N   UNL     1      47.494   7.181  13.707  0.00  0.00    +0.000 N 
ATOM      7  C   UNL     1      46.930   8.397  13.405  0.00  0.00    +0.000 A 
ATOM      8  C   UNL     1      45.672   8.171  12.890  0.00  0.00    +0.000 A 
ATOM      9  C   UNL     1      45.492   6.767  12.806  0.00  0.00    +0.000 A 
ATOM     10  C   UNL     1      44.465   5.926  12.344  0.00  0.00    +0.000 A 
ATOM     11  C   UNL     1      44.676   4.546  12.393  0.00  0.00    +0.000 A 
ATOM     15  C   UNL     1      45.890   4.082  12.901  0.00  0.00    +0.000 A 
ATOM     16  N   UNL     1      46.907   4.849  13.376  0.00  0.00    +0.000 NA
ATOM     17  C   UNL     1      46.647   6.171  13.303  0.00  0.00    +0.000 A 
ENDROOT
BRANCH  11  12
ATOM     12  C   UNL     1      43.680   3.551  11.925  0.00  0.00    +0.000 C 
ATOM     13  N   UNL     1      43.690   2.300  12.475  0.00  0.00    +0.000 N 
ATOM     14  O   UNL     1      42.858   3.837  11.059  0.00  0.00    +0.000 OA
ATOM     24  H   UNL     1      44.331   1.975  13.181  0.00  0.00    +0.000 HD
ATOM     25  H   UNL     1      43.001   1.643  12.132  0.00  0.00    +0.000 HD
ENDBRANCH  11  12
BRANCH   6   5
ATOM      5  C   UNL     1      48.827   6.970  14.267  0.00  0.00    +0.000 C 
BRANCH   5   3
ATOM      1  C   UNL     1      48.388   5.050  16.483  0.00  0.00    +0.000 C 
ATOM      2  N   UNL     1      48.724   6.448  16.740  0.00  0.00    +0.000 N 
ATOM      3  C   UNL     1      48.967   7.395  15.729  0.00  0.00    +0.000 C 
ATOM      4  O   UNL     1      49.351   8.532  16.020  0.00  0.00    +0.000 OA
BRANCH   2  18
ATOM     18  C   UNL     1      48.974   6.883  18.145  0.00  0.00    +0.000 C 
ATOM     19  C   UNL     1      49.898   5.920  18.909  0.00  0.00    +0.000 C 
ATOM     20  C   UNL     1      49.149   4.738  19.514  0.00  0.00    +0.000 C 
ATOM     21  N   UNL     1      48.046   5.168  20.372  0.00  0.00    +0.000 NA
ATOM     22  C   UNL     1      47.086   6.004  19.652  0.00  0.00    +0.000 C 
ATOM     23  C   UNL     1      47.731   7.217  18.984  0.00  0.00    +0.000 C 
ATOM     26  H   UNL     1      48.423   5.692  21.163  0.00  0.00    +0.000 HD
ENDBRANCH   2  18
ENDBRANCH   5   3
ENDBRANCH   6   5
TORSDOF 4
ENDMDL
MODEL 5
REMARK VINA RESULT:    -6.049      2.311      6.863
REMARK INTER + INTRA:          -7.516
REMARK INTER:                  -7.726
REMARK INTRA:                   0.209
REMARK UNBOUND:                -0.053
REMARK  Name = 
REMARK  5 active torsions:
REMARK  status: ('A' for Active; 'I' for Inactive)
REMARK    1  A    between atoms: C_1  and  N_2
REMARK    2  A    between atoms: N_2  and  C_18
REMARK    3  A    between atoms: C_3  and  C_5
REMARK    4  A    between atoms: C_5  and  N_6
REMARK    5  A    between atoms: C_11  and  C_12
REMARK                            x       y       z     vdW  Elec       q    Type
REMARK                         _______ _______ _______ _____ _____    ______ ____
ROOT
ATOM      6  N   UNL     1      45.407   5.740  13.130  0.00  0.00    +0.000 N 
ATOM      7  C   UNL     1      46.463   5.032  13.654  0.00  0.00    +0.000 A 
ATOM      8  C   UNL     1      47.536   5.888  13.774  0.00  0.00    +0.000 A 
ATOM      9  C   UNL     1      47.145   7.140  13.236  0.00  0.00    +0.000 A 
ATOM     10  C   UNL     1      47.784   8.377  13.041  0.00  0.00    +0.000 A 
ATOM     11  C   UNL     1      47.057   9.400  12.426  0.00  0.00    +0.000 A 
ATOM     15  C   UNL     1      45.741   9.138  12.046  0.00  0.00    +0.000 A 
ATOM     16  N   UNL     1      45.071   7.968  12.227  0.00  0.00    +0.000 NA
ATOM     17  C   UNL     1      45.822   7.019  12.825  0.00  0.00    +0.000 A 
ENDROOT
BRANCH  11  12
ATOM     12  C   UNL     1      47.618  10.745  12.149  0.00  0.00    +0.000 C 
ATOM     13  N   UNL     1      48.029  11.516  13.199  0.00  0.00    +0.000 N 
ATOM     14  O   UNL     1      47.714  11.167  10.999  0.00  0.00    +0.000 OA
ATOM     24  H   UNL     1      47.979  11.257  14.171  0.00  0.00    +0.000 HD
ATOM     25  H   UNL     1      48.403  12.430  12.978  0.00  0.00    +0.000 HD
ENDBRANCH  11  12
BRANCH   6   5
ATOM      5  C   UNL     1      44.080   5.207  12.834  0.00  0.00    +0.000 C 
BRANCH   5   3
ATOM      1  C   UNL     1      45.218   2.749  11.628  0.00  0.00    +0.000 C 
ATOM      2  N   UNL     1      44.440   3.698  10.836  0.00  0.00    +0.000 N 
ATOM      3  C   UNL     1      43.856   4.864  11.361  0.00  0.00    +0.000 C 
ATOM      4  O   UNL     1      43.122   5.565  10.657  0.00  0.00    +0.000 OA
BRANCH   2  18
ATOM     18  C   UNL     1      44.107   3.355   9.423  0.00  0.00    +0.000 C 
ATOM     19  C   UNL     1      44.445   1.896   9.070  0.00  0.00    +0.000 C 
ATOM     20  C   UNL     1      45.903   1.708   8.668  0.00  0.00    +0.000 C 
ATOM     21  N   UNL     1      46.289   2.596   7.572  0.00  0.00    +0.000 NA
ATOM     22  C   UNL     1      46.080   4.003   7.908  0.00  0.00    +0.000 C 
ATOM     23  C   UNL     1      44.649   4.308   8.347  0.00  0.00    +0.000 C 
ATOM     26  H   UNL     1      45.740   2.362   6.743  0.00  0.00    +0.000 HD
ENDBRANCH   2  18
ENDBRANCH   5   3
ENDBRANCH   6   5
TORSDOF 4
ENDMDL
MODEL 6
REMARK VINA RESULT:    -6.046      3.888      6.569
REMARK INTER + INTRA:          -7.513
REMARK INTER:                  -7.626
REMARK INTRA:                   0.113
REMARK UNBOUND:                -0.053
REMARK  Name = 
REMARK  5 active torsions:
REMARK  status: ('A' for Active; 'I' for Inactive)
REMARK    1  A    between atoms: C_1  and  N_2
REMARK    2  A    between atoms: N_2  and  C_18
REMARK    3  A    between atoms: C_3  and  C_5
REMARK    4  A    between atoms: C_5  and  N_6
REMARK    5  A    between atoms: C_11  and  C_12
REMARK                            x       y       z     vdW  Elec       q    Type
REMARK                         _______ _______ _______ _____ _____    ______ ____
ROOT
ATOM      6  N   UNL     1      46.446   5.905  12.456  0.00  0.00    +0.000 N 
ATOM      7  C   UNL     1      45.741   5.007  11.690  0.00  0.00    +0.000 A 
ATOM      8  C   UNL     1      44.793   5.705  10.974  0.00  0.00    +0.000 A 
ATOM      9  C   UNL     1      44.871   7.063  11.374  0.00  0.00    +0.000 A 
ATOM     10  C   UNL     1      44.166   8.234  11.046  0.00  0.00    +0.000 A 
ATOM     11  C   UNL     1      44.523   9.418  11.697  0.00  0.00    +0.000 A 
ATOM     15  C   UNL     1      45.559   9.371  12.629  0.00  0.00    +0.000 A 
ATOM     16  N   UNL     1      46.284   8.272  12.970  0.00  0.00    +0.000 NA
ATOM     17  C   UNL     1      45.895   7.161  12.311  0.00  0.00    +0.000 A 
ENDROOT
BRANCH  11  12
ATOM     12  C   UNL     1      43.850  10.717  11.453  0.00  0.00    +0.000 C 
ATOM     13  N   UNL     1      42.739  11.030  12.184  0.00  0.00    +0.000 N 
ATOM     14  O   UNL     1      44.276  11.504  10.612  0.00  0.00    +0.000 OA
ATOM     24  H   UNL     1      42.315  10.445  12.885  0.00  0.00    +0.000 HD
ATOM     25  H   UNL     1      42.300  11.922  11.992  0.00  0.00    +0.000 HD
ENDBRANCH  11  12
BRANCH   6   5
ATOM      5  C   UNL     1      47.538   5.581  13.371  0.00  0.00    +0.000 C 
BRANCH   5   3
ATOM      1  C   UNL     1      48.753   6.069  16.031  0.00  0.00    +0.000 C 
ATOM      2  N   UNL     1      47.735   5.041  15.835  0.00  0.00    +0.000 N 
ATOM      3  C   UNL     1      47.107   4.784  14.603  0.00  0.00    +0.000 C 
ATOM      4  O   UNL     1      46.178   3.973  14.535  0.00  0.00    +0.000 OA
BRANCH   2  18
ATOM     18  C   UNL     1      47.208   4.312  17.025  0.00  0.00    +0.000 C 
ATOM     19  C   UNL     1      47.216   5.172  18.300  0.00  0.00    +0.000 C 
ATOM     20  C   UNL     1      48.564   5.159  19.012  0.00  0.00    +0.000 C 
ATOM     21  N   UNL     1      49.011   3.800  19.315  0.00  0.00    +0.000 NA
ATOM     22  C   UNL     1      49.117   2.977  18.112  0.00  0.00    +0.000 C 
ATOM     23  C   UNL     1      47.823   2.931  17.302  0.00  0.00    +0.000 C 
ATOM     26  H   UNL     1      48.351   3.367  19.963  0.00  0.00    +0.000 HD
ENDBRANCH   2  18
ENDBRANCH   5   3
ENDBRANCH   6   5
TORSDOF 4
ENDMDL
MODEL 7
REMARK VINA RESULT:    -6.015      2.216      7.005
REMARK INTER + INTRA:          -7.474
REMARK INTER:                  -7.229
REMARK INTRA:                  -0.245
REMARK UNBOUND:                -0.053
REMARK  Name = 
REMARK  5 active torsions:
REMARK  status: ('A' for Active; 'I' for Inactive)
REMARK    1  A    between atoms: C_1  and  N_2
REMARK    2  A    between atoms: N_2  and  C_18
REMARK    3  A    between atoms: C_3  and  C_5
REMARK    4  A    between atoms: C_5  and  N_6
REMARK    5  A    between atoms: C_11  and  C_12
REMARK                            x       y       z     vdW  Elec       q    Type
REMARK                         _______ _______ _______ _____ _____    ______ ____
ROOT
ATOM      6  N   UNL     1      45.088   6.628  12.482  0.00  0.00    +0.000 N 
ATOM      7  C   UNL     1      44.917   7.885  11.954  0.00  0.00    +0.000 A 
ATOM      8  C   UNL     1      46.051   8.621  12.220  0.00  0.00    +0.000 A 
ATOM      9  C   UNL     1      46.912   7.809  13.003  0.00  0.00    +0.000 A 
ATOM     10  C   UNL     1      48.169   7.992  13.605  0.00  0.00    +0.000 A 
ATOM     11  C   UNL     1      48.698   6.935  14.350  0.00  0.00    +0.000 A 
ATOM     15  C   UNL     1      47.953   5.760  14.449  0.00  0.00    +0.000 A 
ATOM     16  N   UNL     1      46.744   5.524  13.873  0.00  0.00    +0.000 NA
ATOM     17  C   UNL     1      46.284   6.579  13.167  0.00  0.00    +0.000 A 
ENDROOT
BRANCH  11  12
ATOM     12  C   UNL     1      50.006   7.004  15.048  0.00  0.00    +0.000 C 
ATOM     13  N   UNL     1      51.012   7.738  14.488  0.00  0.00    +0.000 N 
ATOM     14  O   UNL     1      50.189   6.414  16.110  0.00  0.00    +0.000 OA
ATOM     24  H   UNL     1      50.955   8.245  13.620  0.00  0.00    +0.000 HD
ATOM     25  H   UNL     1      51.893   7.762  14.986  0.00  0.00    +0.000 HD
ENDBRANCH  11  12
BRANCH   6   5
ATOM      5  C   UNL     1      44.119   5.536  12.429  0.00  0.00    +0.000 C 
BRANCH   5   3
ATOM      1  C   UNL     1      45.559   3.166  11.380  0.00  0.00    +0.000 C 
ATOM      2  N   UNL     1      44.584   3.888  10.567  0.00  0.00    +0.000 N 
ATOM      3  C   UNL     1      43.855   5.001  11.022  0.00  0.00    +0.000 C 
ATOM      4  O   UNL     1      42.969   5.495  10.317  0.00  0.00    +0.000 OA
BRANCH   2  18
ATOM     18  C   UNL     1      44.216   3.342   9.229  0.00  0.00    +0.000 C 
ATOM     19  C   UNL     1      44.508   1.836   9.101  0.00  0.00    +0.000 C 
ATOM     20  C   UNL     1      45.953   1.546   8.713  0.00  0.00    +0.000 C 
ATOM     21  N   UNL     1      46.342   2.242   7.487  0.00  0.00    +0.000 NA
ATOM     22  C   UNL     1      46.178   3.690   7.605  0.00  0.00    +0.000 C 
ATOM     23  C   UNL     1      44.764   4.101   8.011  0.00  0.00    +0.000 C 
ATOM     26  H   UNL     1      45.773   1.899   6.712  0.00  0.00    +0.000 HD
ENDBRANCH   2  18
ENDBRANCH   5   3
ENDBRANCH   6   5
TORSDOF 4
ENDMDL
MODEL 8
REMARK VINA RESULT:    -5.934      3.832      6.161
REMARK INTER + INTRA:          -7.374
REMARK INTER:                  -7.144
REMARK INTRA:                  -0.230
REMARK UNBOUND:                -0.053
REMARK  Name = 
REMARK  5 active torsions:
REMARK  status: ('A' for Active; 'I' for Inactive)
REMARK    1  A    between atoms: C_1  and  N_2
REMARK    2  A    between atoms: N_2  and  C_18
REMARK    3  A    between atoms: C_3  and  C_5
REMARK    4  A    between atoms: C_5  and  N_6
REMARK    5  A    between atoms: C_11  and  C_12
REMARK                            x       y       z     vdW  Elec       q    Type
REMARK                         _______ _______ _______ _____ _____    ______ ____
ROOT
ATOM      6  N   UNL     1      47.466   7.240  13.676  0.00  0.00    +0.000 N 
ATOM      7  C   UNL     1      46.860   8.447  13.424  0.00  0.00    +0.000 A 
ATOM      8  C   UNL     1      45.590   8.201  12.951  0.00  0.00    +0.000 A 
ATOM      9  C   UNL     1      45.442   6.795  12.839  0.00  0.00    +0.000 A 
ATOM     10  C   UNL     1      44.420   5.938  12.395  0.00  0.00    +0.000 A 
ATOM     11  C   UNL     1      44.667   4.563  12.402  0.00  0.00    +0.000 A 
ATOM     15  C   UNL     1      45.911   4.119  12.854  0.00  0.00    +0.000 A 
ATOM     16  N   UNL     1      46.925   4.901  13.310  0.00  0.00    +0.000 NA
ATOM     17  C   UNL     1      46.630   6.218  13.279  0.00  0.00    +0.000 A 
ENDROOT
BRANCH  11  12
ATOM     12  C   UNL     1      43.680   3.554  11.947  0.00  0.00    +0.000 C 
ATOM     13  N   UNL     1      43.709   2.307  12.503  0.00  0.00    +0.000 N 
ATOM     14  O   UNL     1      42.848   3.826  11.085  0.00  0.00    +0.000 OA
ATOM     24  H   UNL     1      44.358   1.994  13.206  0.00  0.00    +0.000 HD
ATOM     25  H   UNL     1      43.025   1.640  12.169  0.00  0.00    +0.000 HD
ENDBRANCH  11  12
BRANCH   6   5
ATOM      5  C   UNL     1      48.823   7.050  14.181  0.00  0.00    +0.000 C 
BRANCH   5   3
ATOM      1  C   UNL     1      49.052   9.050  16.358  0.00  0.00    +0.000 C 
ATOM      2  N   UNL     1      49.024   7.617  16.638  0.00  0.00    +0.000 N 
ATOM      3  C   UNL     1      48.892   6.627  15.649  0.00  0.00    +0.000 C 
ATOM      4  O   UNL     1      48.767   5.440  15.968  0.00  0.00    +0.000 OA
BRANCH   2  18
ATOM     18  C   UNL     1      48.982   7.161  18.058  0.00  0.00    +0.000 C 
ATOM     19  C   UNL     1      47.626   7.435  18.730  0.00  0.00    +0.000 C 
ATOM     20  C   UNL     1      47.518   8.851  19.285  0.00  0.00    +0.000 C 
ATOM     21  N   UNL     1      48.611   9.165  20.205  0.00  0.00    +0.000 NA
ATOM     22  C   UNL     1      49.919   9.016  19.570  0.00  0.00    +0.000 C 
ATOM     23  C   UNL     1      50.135   7.634  18.958  0.00  0.00    +0.000 C 
ATOM     26  H   UNL     1      48.556   8.545  21.014  0.00  0.00    +0.000 HD
ENDBRANCH   2  18
ENDBRANCH   5   3
ENDBRANCH   6   5
TORSDOF 4
ENDMDL
MODEL 9
REMARK VINA RESULT:    -5.916      3.048      6.950
REMARK INTER + INTRA:          -7.351
REMARK INTER:                  -7.250
REMARK INTRA:                  -0.101
REMARK UNBOUND:                -0.053
REMARK  Name = 
REMARK  5 active torsions:
REMARK  status: ('A' for Active; 'I' for Inactive)
REMARK    1  A    between atoms: C_1  and  N_2
REMARK    2  A    between atoms: N_2  and  C_18
REMARK    3  A    between atoms: C_3  and  C_5
REMARK    4  A    between atoms: C_5  and  N_6
REMARK    5  A    between atoms: C_11  and  C_12
REMARK                            x       y       z     vdW  Elec       q    Type
REMARK                         _______ _______ _______ _____ _____    ______ ____
ROOT
ATOM      6  N   UNL     1      47.064   8.822  12.318  0.00  0.00    +0.000 N 
ATOM      7  C   UNL     1      46.692  10.137  12.175  0.00  0.00    +0.000 A 
ATOM      8  C   UNL     1      47.750  10.825  11.621  0.00  0.00    +0.000 A 
ATOM      9  C   UNL     1      48.829   9.914  11.491  0.00  0.00    +0.000 A 
ATOM     10  C   UNL     1      50.157  10.009  11.040  0.00  0.00    +0.000 A 
ATOM     11  C   UNL     1      50.953   8.863  11.099  0.00  0.00    +0.000 A 
ATOM     15  C   UNL     1      50.385   7.690  11.596  0.00  0.00    +0.000 A 
ATOM     16  N   UNL     1      49.105   7.538  12.029  0.00  0.00    +0.000 NA
ATOM     17  C   UNL     1      48.384   8.677  11.949  0.00  0.00    +0.000 A 
ENDROOT
BRANCH  11  12
ATOM     12  C   UNL     1      52.372   8.832  10.668  0.00  0.00    +0.000 C 
ATOM     13  N   UNL     1      53.330   8.494  11.581  0.00  0.00    +0.000 N 
ATOM     14  O   UNL     1      52.690   9.105   9.513  0.00  0.00    +0.000 OA
ATOM     24  H   UNL     1      53.164   8.265  12.547  0.00  0.00    +0.000 HD
ATOM     25  H   UNL     1      54.289   8.486  11.258  0.00  0.00    +0.000 HD
ENDBRANCH  11  12
BRANCH   6   5
ATOM      5  C   UNL     1      46.239   7.753  12.876  0.00  0.00    +0.000 C 
BRANCH   5   3
ATOM      1  C   UNL     1      45.849   4.819  12.695  0.00  0.00    +0.000 C 
ATOM      2  N   UNL     1      45.125   5.741  11.822  0.00  0.00    +0.000 N 
ATOM      3  C   UNL     1      45.252   7.140  11.882  0.00  0.00    +0.000 C 
ATOM      4  O   UNL     1      44.529   7.861  11.187  0.00  0.00    +0.000 OA
BRANCH   2  18
ATOM     18  C   UNL     1      44.077   5.197  10.911  0.00  0.00    +0.000 C 
ATOM     19  C   UNL     1      42.999   4.393  11.659  0.00  0.00    +0.000 C 
ATOM     20  C   UNL     1      43.403   2.943  11.897  0.00  0.00    +0.000 C 
ATOM     21  N   UNL     1      43.770   2.264  10.655  0.00  0.00    +0.000 NA
ATOM     22  C   UNL     1      44.866   2.941   9.965  0.00  0.00    +0.000 C 
ATOM     23  C   UNL     1      44.579   4.415   9.687  0.00  0.00    +0.000 C 
ATOM     26  H   UNL     1      42.956   2.227  10.041  0.00  0.00    +0.000 HD
ENDBRANCH   2  18
ENDBRANCH   5   3
ENDBRANCH   6   5
TORSDOF 4
ENDMDL
