MODEL 1
REMARK VINA RESULT:    -7.728      0.000      0.000
REMARK INTER + INTRA:         -10.400
REMARK INTER:                  -9.987
REMARK INTRA:                  -0.413
REMARK UNBOUND:                -0.413
REMARK  Name = 
REMARK  6 active torsions:
REMARK  status: ('A' for Active; 'I' for Inactive)
REMARK    1  A    between atoms: C_1  and  N_2
REMARK    2  A    between atoms: N_2  and  C_21
REMARK    3  A    between atoms: C_3  and  C_5
REMARK    4  A    between atoms: C_5  and  N_6
REMARK    5  A    between atoms: C_7  and  C_8
REMARK    6  A    between atoms: C_14  and  C_15
REMARK                            x       y       z     vdW  Elec       q    Type
REMARK                         _______ _______ _______ _____ _____    ______ ____
ROOT
ATOM      6  N   UNL     1      44.612   4.876  10.243  0.00  0.00    +0.000 N 
ATOM      7  C   UNL     1      43.941   3.853  10.915  0.00  0.00    +0.000 A 
ATOM     11  C   UNL     1      44.279   2.676  10.302  0.00  0.00    +0.000 A 
ATOM     12  C   UNL     1      45.136   2.942   9.229  0.00  0.00    +0.000 A 
ATOM     13  C   UNL     1      45.752   2.172   8.240  0.00  0.00    +0.000 A 
ATOM     14  C   UNL     1      46.578   2.812   7.315  0.00  0.00    +0.000 A 
ATOM     18  C   UNL     1      46.769   4.187   7.449  0.00  0.00    +0.000 A 
ATOM     19  N   UNL     1      46.217   4.988   8.404  0.00  0.00    +0.000 NA
ATOM     20  C   UNL     1      45.386   4.317   9.232  0.00  0.00    +0.000 A 
ENDROOT
BRANCH  14  15
ATOM     15  C   UNL     1      47.260   2.086   6.218  0.00  0.00    +0.000 C 
ATOM     16  N   UNL     1      47.910   2.812   5.252  0.00  0.00    +0.000 N 
ATOM     17  O   UNL     1      47.248   0.862   6.159  0.00  0.00    +0.000 OA
ATOM     29  H   UNL     1      47.993   3.816   5.225  0.00  0.00    +0.000 HD
ATOM     30  H   UNL     1      48.367   2.289   4.516  0.00  0.00    +0.000 HD
ENDBRANCH  14  15
BRANCH   7   8
ATOM      8  C   UNL     1      43.001   3.900  12.122  0.00  0.00    +0.000 C 
ATOM      9  C   UNL     1      42.654   5.273  12.652  0.00  0.00    +0.000 C 
ATOM     10  C   UNL     1      43.427   4.334  13.524  0.00  0.00    +0.000 C 
ENDBRANCH   7   8
BRANCH   6   5
ATOM      5  C   UNL     1      44.683   6.274  10.629  0.00  0.00    +0.000 C 
BRANCH   5   3
ATOM      1  C   UNL     1      44.889   9.030  11.504  0.00  0.00    +0.000 C 
ATOM      2  N   UNL     1      45.922   8.048  11.838  0.00  0.00    +0.000 N 
ATOM      3  C   UNL     1      45.884   6.690  11.458  0.00  0.00    +0.000 C 
ATOM      4  O   UNL     1      46.788   5.914  11.775  0.00  0.00    +0.000 OA
BRANCH   2  21
ATOM     21  C   UNL     1      47.168   8.538  12.465  0.00  0.00    +0.000 C 
ATOM     22  C   UNL     1      47.163   8.518  14.011  0.00  0.00    +0.000 C 
ATOM     23  C   UNL     1      48.344   9.293  14.614  0.00  0.00    +0.000 C 
ATOM     24  C   UNL     1      49.693   8.823  14.082  0.00  0.00    +0.000 C 
ATOM     25  C   UNL     1      49.925   9.666  12.826  0.00  0.00    +0.000 C 
ATOM     26  C   UNL     1      48.696  10.571  12.735  0.00  0.00    +0.000 C 
ATOM     27  C   UNL     1      47.546   9.940  11.935  0.00  0.00    +0.000 C 
ATOM     28  N   UNL     1      48.293  10.683  14.142  0.00  0.00    +0.000 NA
ATOM     31  H   UNL     1      47.354  11.069  14.222  0.00  0.00    +0.000 HD
ENDBRANCH   2  21
ENDBRANCH   5   3
ENDBRANCH   6   5
TORSDOF 5
ENDMDL
MODEL 2
REMARK VINA RESULT:    -6.749      3.682      8.224
REMARK INTER + INTRA:          -9.135
REMARK INTER:                  -8.203
REMARK INTRA:                  -0.931
REMARK UNBOUND:                -0.413
REMARK  Name = 
REMARK  6 active torsions:
REMARK  status: ('A' for Active; 'I' for Inactive)
REMARK    1  A    between atoms: C_1  and  N_2
REMARK    2  A    between atoms: N_2  and  C_21
REMARK    3  A    between atoms: C_3  and  C_5
REMARK    4  A    between atoms: C_5  and  N_6
REMARK    5  A    between atoms: C_7  and  C_8
REMARK    6  A    between atoms: C_14  and  C_15
REMARK                            x       y       z     vdW  Elec       q    Type
REMARK                         _______ _______ _______ _____ _____    ______ ____
ROOT
ATOM      6  N   UNL     1      49.237   6.955  15.145  0.00  0.00    +0.000 N 
ATOM      7  C   UNL     1      49.292   6.223  16.332  0.00  0.00    +0.000 A 
ATOM     11  C   UNL     1      50.592   6.243  16.761  0.00  0.00    +0.000 A 
ATOM     12  C   UNL     1      51.371   6.957  15.845  0.00  0.00    +0.000 A 
ATOM     13  C   UNL     1      52.729   7.262  15.727  0.00  0.00    +0.000 A 
ATOM     14  C   UNL     1      53.145   8.037  14.643  0.00  0.00    +0.000 A 
ATOM     18  C   UNL     1      52.174   8.493  13.751  0.00  0.00    +0.000 A 
ATOM     19  N   UNL     1      50.835   8.250  13.825  0.00  0.00    +0.000 NA
ATOM     20  C   UNL     1      50.506   7.449  14.864  0.00  0.00    +0.000 A 
ENDROOT
BRANCH  14  15
ATOM     15  C   UNL     1      54.565   8.397  14.419  0.00  0.00    +0.000 C 
ATOM     16  N   UNL     1      55.058   8.369  13.139  0.00  0.00    +0.000 N 
ATOM     17  O   UNL     1      55.297   8.713  15.350  0.00  0.00    +0.000 OA
ATOM     29  H   UNL     1      54.532   8.142  12.310  0.00  0.00    +0.000 HD
ATOM     30  H   UNL     1      56.031   8.620  13.017  0.00  0.00    +0.000 HD
ENDBRANCH  14  15
BRANCH   7   8
ATOM      8  C   UNL     1      48.188   5.505  17.115  0.00  0.00    +0.000 C 
ATOM      9  C   UNL     1      48.577   4.210  17.792  0.00  0.00    +0.000 C 
ATOM     10  C   UNL     1      47.563   4.176  16.691  0.00  0.00    +0.000 C 
ENDBRANCH   7   8
BRANCH   6   5
ATOM      5  C   UNL     1      48.045   7.337  14.409  0.00  0.00    +0.000 C 
BRANCH   5   3
ATOM      1  C   UNL     1      45.657   7.996  12.904  0.00  0.00    +0.000 C 
ATOM      2  N   UNL     1      46.244   6.656  12.848  0.00  0.00    +0.000 N 
ATOM      3  C   UNL     1      47.409   6.266  13.542  0.00  0.00    +0.000 C 
ATOM      4  O   UNL     1      47.853   5.120  13.449  0.00  0.00    +0.000 OA
BRANCH   2  21
ATOM     21  C   UNL     1      45.482   5.592  12.160  0.00  0.00    +0.000 C 
ATOM     22  C   UNL     1      45.696   5.532  10.630  0.00  0.00    +0.000 C 
ATOM     23  C   UNL     1      44.681   4.617   9.929  0.00  0.00    +0.000 C 
ATOM     24  C   UNL     1      44.649   3.210  10.515  0.00  0.00    +0.000 C 
ATOM     25  C   UNL     1      43.626   3.291  11.650  0.00  0.00    +0.000 C 
ATOM     26  C   UNL     1      43.132   4.738  11.624  0.00  0.00    +0.000 C 
ATOM     27  C   UNL     1      43.977   5.674  12.502  0.00  0.00    +0.000 C 
ATOM     28  N   UNL     1      43.324   5.101  10.215  0.00  0.00    +0.000 NA
ATOM     31  H   UNL     1      43.254   6.109  10.087  0.00  0.00    +0.000 HD
ENDBRANCH   2  21
ENDBRANCH   5   3
ENDBRANCH   6   5
TORSDOF 5
ENDMDL
MODEL 3
REMARK VINA RESULT:    -6.691      3.239      8.518
REMARK INTER + INTRA:          -9.060
REMARK INTER:                  -7.961
REMARK INTRA:                  -1.099
REMARK UNBOUND:                -0.413
REMARK  Name = 
REMARK  6 active torsions:
REMARK  status: ('A' for Active; 'I' for Inactive)
REMARK    1  A    between atoms: C_1  and  N_2
REMARK    2  A    between atoms: N_2  and  C_21
REMARK    3  A    between atoms: C_3  and  C_5
REMARK    4  A    between atoms: C_5  and  N_6
REMARK    5  A    between atoms: C_7  and  C_8
REMARK    6  A    between atoms: C_14  and  C_15
REMARK                            x       y       z     vdW  Elec       q    Type
REMARK                         _______ _______ _______ _____ _____    ______ ____
ROOT
ATOM      6  N   UNL     1      48.966   7.814  13.962  0.00  0.00    +0.000 N 
ATOM      7  C   UNL     1      49.556   8.567  12.946  0.00  0.00    +0.000 A 
ATOM     11  C   UNL     1      50.904   8.590  13.189  0.00  0.00    +0.000 A 
ATOM     12  C   UNL     1      51.174   7.882  14.364  0.00  0.00    +0.000 A 
ATOM     13  C   UNL     1      52.321   7.612  15.115  0.00  0.00    +0.000 A 
ATOM     14  C   UNL     1      52.195   6.830  16.265  0.00  0.00    +0.000 A 
ATOM     18  C   UNL     1      50.932   6.333  16.585  0.00  0.00    +0.000 A 
ATOM     19  N   UNL     1      49.782   6.541  15.881  0.00  0.00    +0.000 NA
ATOM     20  C   UNL     1      49.963   7.350  14.813  0.00  0.00    +0.000 A 
ENDROOT
BRANCH  14  15
ATOM     15  C   UNL     1      53.348   6.505  17.138  0.00  0.00    +0.000 C 
ATOM     16  N   UNL     1      53.531   5.202  17.527  0.00  0.00    +0.000 N 
ATOM     17  O   UNL     1      54.127   7.372  17.514  0.00  0.00    +0.000 OA
ATOM     29  H   UNL     1      52.959   4.419  17.255  0.00  0.00    +0.000 HD
ATOM     30  H   UNL     1      54.327   5.010  18.122  0.00  0.00    +0.000 HD
ENDBRANCH  14  15
BRANCH   7   8
ATOM      8  C   UNL     1      48.937   9.268  11.733  0.00  0.00    +0.000 C 
ATOM      9  C   UNL     1      49.525  10.610  11.358  0.00  0.00    +0.000 C 
ATOM     10  C   UNL     1      48.101  10.545  11.816  0.00  0.00    +0.000 C 
ENDBRANCH   7   8
BRANCH   6   5
ATOM      5  C   UNL     1      47.581   7.387  14.040  0.00  0.00    +0.000 C 
BRANCH   5   3
ATOM      1  C   UNL     1      45.477   7.842  12.097  0.00  0.00    +0.000 C 
ATOM      2  N   UNL     1      46.132   6.538  12.216  0.00  0.00    +0.000 N 
ATOM      3  C   UNL     1      47.169   6.246  13.128  0.00  0.00    +0.000 C 
ATOM      4  O   UNL     1      47.679   5.125  13.175  0.00  0.00    +0.000 OA
BRANCH   2  21
ATOM     21  C   UNL     1      45.563   5.403  11.457  0.00  0.00    +0.000 C 
ATOM     22  C   UNL     1      45.832   5.445   9.936  0.00  0.00    +0.000 C 
ATOM     23  C   UNL     1      44.991   4.421   9.161  0.00  0.00    +0.000 C 
ATOM     24  C   UNL     1      45.155   3.000   9.688  0.00  0.00    +0.000 C 
ATOM     25  C   UNL     1      44.096   2.874  10.786  0.00  0.00    +0.000 C 
ATOM     26  C   UNL     1      43.388   4.230  10.798  0.00  0.00    +0.000 C 
ATOM     27  C   UNL     1      44.053   5.241  11.744  0.00  0.00    +0.000 C 
ATOM     28  N   UNL     1      43.568   4.681   9.413  0.00  0.00    +0.000 NA
ATOM     31  H   UNL     1      43.349   5.672   9.323  0.00  0.00    +0.000 HD
ENDBRANCH   2  21
ENDBRANCH   5   3
ENDBRANCH   6   5
TORSDOF 5
ENDMDL
MODEL 4
REMARK VINA RESULT:    -6.681      3.935      8.996
REMARK INTER + INTRA:          -9.047
REMARK INTER:                  -8.217
REMARK INTRA:                  -0.830
REMARK UNBOUND:                -0.413
REMARK  Name = 
REMARK  6 active torsions:
REMARK  status: ('A' for Active; 'I' for Inactive)
REMARK    1  A    between atoms: C_1  and  N_2
REMARK    2  A    between atoms: N_2  and  C_21
REMARK    3  A    between atoms: C_3  and  C_5
REMARK    4  A    between atoms: C_5  and  N_6
REMARK    5  A    between atoms: C_7  and  C_8
REMARK    6  A    between atoms: C_14  and  C_15
REMARK                            x       y       z     vdW  Elec       q    Type
REMARK                         _______ _______ _______ _____ _____    ______ ____
ROOT
ATOM      6  N   UNL     1      49.170   7.394  15.165  0.00  0.00    +0.000 N 
ATOM      7  C   UNL     1      50.514   7.578  14.836  0.00  0.00    +0.000 A 
ATOM     11  C   UNL     1      51.257   6.981  15.820  0.00  0.00    +0.000 A 
ATOM     12  C   UNL     1      50.400   6.444  16.786  0.00  0.00    +0.000 A 
ATOM     13  C   UNL     1      50.572   5.781  18.003  0.00  0.00    +0.000 A 
ATOM     14  C   UNL     1      49.438   5.369  18.705  0.00  0.00    +0.000 A 
ATOM     18  C   UNL     1      48.189   5.615  18.133  0.00  0.00    +0.000 A 
ATOM     19  N   UNL     1      47.956   6.233  16.940  0.00  0.00    +0.000 NA
ATOM     20  C   UNL     1      49.092   6.655  16.341  0.00  0.00    +0.000 A 
ENDROOT
BRANCH  14  15
ATOM     15  C   UNL     1      49.516   4.678  20.013  0.00  0.00    +0.000 C 
ATOM     16  N   UNL     1      48.570   3.731  20.314  0.00  0.00    +0.000 N 
ATOM     17  O   UNL     1      50.400   4.938  20.819  0.00  0.00    +0.000 OA
ATOM     29  H   UNL     1      47.819   3.434  19.711  0.00  0.00    +0.000 HD
ATOM     30  H   UNL     1      48.649   3.275  21.214  0.00  0.00    +0.000 HD
ENDBRANCH  14  15
BRANCH   7   8
ATOM      8  C   UNL     1      51.163   8.273  13.636  0.00  0.00    +0.000 C 
ATOM      9  C   UNL     1      52.566   8.801  13.842  0.00  0.00    +0.000 C 
ATOM     10  C   UNL     1      51.458   9.771  13.570  0.00  0.00    +0.000 C 
ENDBRANCH   7   8
BRANCH   6   5
ATOM      5  C   UNL     1      48.018   7.717  14.342  0.00  0.00    +0.000 C 
BRANCH   5   3
ATOM      1  C   UNL     1      45.621   8.216  12.790  0.00  0.00    +0.000 C 
ATOM      2  N   UNL     1      46.263   6.901  12.794  0.00  0.00    +0.000 N 
ATOM      3  C   UNL     1      47.435   6.587  13.514  0.00  0.00    +0.000 C 
ATOM      4  O   UNL     1      47.926   5.457  13.472  0.00  0.00    +0.000 OA
BRANCH   2  21
ATOM     21  C   UNL     1      45.552   5.779  12.144  0.00  0.00    +0.000 C 
ATOM     22  C   UNL     1      45.701   5.726  10.606  0.00  0.00    +0.000 C 
ATOM     23  C   UNL     1      44.726   4.735   9.954  0.00  0.00    +0.000 C 
ATOM     24  C   UNL     1      44.824   3.332  10.545  0.00  0.00    +0.000 C 
ATOM     25  C   UNL     1      43.849   3.345  11.724  0.00  0.00    +0.000 C 
ATOM     26  C   UNL     1      43.249   4.751  11.716  0.00  0.00    +0.000 C 
ATOM     27  C   UNL     1      44.061   5.752  12.553  0.00  0.00    +0.000 C 
ATOM     28  N   UNL     1      43.351   5.119  10.299  0.00  0.00    +0.000 NA
ATOM     31  H   UNL     1      43.201   6.119  10.172  0.00  0.00    +0.000 HD
ENDBRANCH   2  21
ENDBRANCH   5   3
ENDBRANCH   6   5
TORSDOF 5
ENDMDL
MODEL 5
REMARK VINA RESULT:    -6.648      3.372      4.987
REMARK INTER + INTRA:          -9.004
REMARK INTER:                  -8.059
REMARK INTRA:                  -0.945
REMARK UNBOUND:                -0.413
REMARK  Name = 
REMARK  6 active torsions:
REMARK  status: ('A' for Active; 'I' for Inactive)
REMARK    1  A    between atoms: C_1  and  N_2
REMARK    2  A    between atoms: N_2  and  C_21
REMARK    3  A    between atoms: C_3  and  C_5
REMARK    4  A    between atoms: C_5  and  N_6
REMARK    5  A    between atoms: C_7  and  C_8
REMARK    6  A    between atoms: C_14  and  C_15
REMARK                            x       y       z     vdW  Elec       q    Type
REMARK                         _______ _______ _______ _____ _____    ______ ____
ROOT
ATOM      6  N   UNL     1      47.240   6.126  14.090  0.00  0.00    +0.000 N 
ATOM      7  C   UNL     1      47.446   5.066  14.975  0.00  0.00    +0.000 A 
ATOM     11  C   UNL     1      46.852   3.960  14.428  0.00  0.00    +0.000 A 
ATOM     12  C   UNL     1      46.245   4.311  13.218  0.00  0.00    +0.000 A 
ATOM     13  C   UNL     1      45.475   3.639  12.266  0.00  0.00    +0.000 A 
ATOM     14  C   UNL     1      45.044   4.343  11.140  0.00  0.00    +0.000 A 
ATOM     18  C   UNL     1      45.436   5.676  11.012  0.00  0.00    +0.000 A 
ATOM     19  N   UNL     1      46.205   6.379  11.891  0.00  0.00    +0.000 NA
ATOM     20  C   UNL     1      46.541   5.656  12.983  0.00  0.00    +0.000 A 
ENDROOT
BRANCH  14  15
ATOM     15  C   UNL     1      44.207   3.726  10.086  0.00  0.00    +0.000 C 
ATOM     16  N   UNL     1      44.021   4.407   8.909  0.00  0.00    +0.000 N 
ATOM     17  O   UNL     1      43.682   2.631  10.248  0.00  0.00    +0.000 OA
ATOM     29  H   UNL     1      44.426   5.299   8.675  0.00  0.00    +0.000 HD
ATOM     30  H   UNL     1      43.445   3.960   8.207  0.00  0.00    +0.000 HD
ENDBRANCH  14  15
BRANCH   7   8
ATOM      8  C   UNL     1      48.187   5.013  16.314  0.00  0.00    +0.000 C 
ATOM      9  C   UNL     1      48.100   3.711  17.080  0.00  0.00    +0.000 C 
ATOM     10  C   UNL     1      47.494   4.945  17.675  0.00  0.00    +0.000 C 
ENDBRANCH   7   8
BRANCH   6   5
ATOM      5  C   UNL     1      47.817   7.455  14.171  0.00  0.00    +0.000 C 
BRANCH   5   3
ATOM      1  C   UNL     1      48.489   9.110  11.887  0.00  0.00    +0.000 C 
ATOM      2  N   UNL     1      49.524   8.401  12.641  0.00  0.00    +0.000 N 
ATOM      3  C   UNL     1      49.275   7.589  13.768  0.00  0.00    +0.000 C 
ATOM      4  O   UNL     1      50.195   7.021  14.360  0.00  0.00    +0.000 OA
BRANCH   2  21
ATOM     21  C   UNL     1      50.898   8.391  12.095  0.00  0.00    +0.000 C 
ATOM     22  C   UNL     1      51.523   9.791  11.897  0.00  0.00    +0.000 C 
ATOM     23  C   UNL     1      52.816   9.747  11.070  0.00  0.00    +0.000 C 
ATOM     24  C   UNL     1      53.849   8.780  11.638  0.00  0.00    +0.000 C 
ATOM     25  C   UNL     1      53.517   7.437  10.986  0.00  0.00    +0.000 C 
ATOM     26  C   UNL     1      52.323   7.733  10.076  0.00  0.00    +0.000 C 
ATOM     27  C   UNL     1      50.973   7.566  10.789  0.00  0.00    +0.000 C 
ATOM     28  N   UNL     1      52.525   9.152   9.759  0.00  0.00    +0.000 NA
ATOM     31  H   UNL     1      51.685   9.554   9.346  0.00  0.00    +0.000 HD
ENDBRANCH   2  21
ENDBRANCH   5   3
ENDBRANCH   6   5
TORSDOF 5
ENDMDL
MODEL 6
REMARK VINA RESULT:    -6.441      3.296      5.375
REMARK INTER + INTRA:          -8.737
REMARK INTER:                  -7.680
REMARK INTRA:                  -1.057
REMARK UNBOUND:                -0.413
REMARK  Name = 
REMARK  6 active torsions:
REMARK  status: ('A' for Active; 'I' for Inactive)
REMARK    1  A    between atoms: C_1  and  N_2
REMARK    2  A    between atoms: N_2  and  C_21
REMARK    3  A    between atoms: C_3  and  C_5
REMARK    4  A    between atoms: C_5  and  N_6
REMARK    5  A    between atoms: C_7  and  C_8
REMARK    6  A    between atoms: C_14  and  C_15
REMARK                            x       y       z     vdW  Elec       q    Type
REMARK                         _______ _______ _______ _____ _____    ______ ____
ROOT
ATOM      6  N   UNL     1      45.874   8.382  12.346  0.00  0.00    +0.000 N 
ATOM      7  C   UNL     1      44.882   9.167  11.755  0.00  0.00    +0.000 A 
ATOM     11  C   UNL     1      43.921   8.316  11.280  0.00  0.00    +0.000 A 
ATOM     12  C   UNL     1      44.303   6.995  11.536  0.00  0.00    +0.000 A 
ATOM     13  C   UNL     1      43.768   5.737  11.252  0.00  0.00    +0.000 A 
ATOM     14  C   UNL     1      44.453   4.605  11.697  0.00  0.00    +0.000 A 
ATOM     18  C   UNL     1      45.622   4.795  12.434  0.00  0.00    +0.000 A 
ATOM     19  N   UNL     1      46.181   5.994  12.764  0.00  0.00    +0.000 NA
ATOM     20  C   UNL     1      45.500   7.045  12.256  0.00  0.00    +0.000 A 
ENDROOT
BRANCH  14  15
ATOM     15  C   UNL     1      43.977   3.228  11.429  0.00  0.00    +0.000 C 
ATOM     16  N   UNL     1      43.769   2.385  12.490  0.00  0.00    +0.000 N 
ATOM     17  O   UNL     1      43.773   2.836  10.286  0.00  0.00    +0.000 OA
ATOM     29  H   UNL     1      43.889   2.620  13.463  0.00  0.00    +0.000 HD
ATOM     30  H   UNL     1      43.443   1.450  12.276  0.00  0.00    +0.000 HD
ENDBRANCH  14  15
BRANCH   7   8
ATOM      8  C   UNL     1      44.763  10.688  11.616  0.00  0.00    +0.000 C 
ATOM      9  C   UNL     1      44.076  11.198  10.370  0.00  0.00    +0.000 C 
ATOM     10  C   UNL     1      45.523  11.515  10.581  0.00  0.00    +0.000 C 
ENDBRANCH   7   8
BRANCH   6   5
ATOM      5  C   UNL     1      47.012   8.847  13.118  0.00  0.00    +0.000 C 
BRANCH   5   3
ATOM      1  C   UNL     1      49.323   7.252  13.838  0.00  0.00    +0.000 C 
ATOM      2  N   UNL     1      49.393   8.252  12.771  0.00  0.00    +0.000 N 
ATOM      3  C   UNL     1      48.309   9.056  12.358  0.00  0.00    +0.000 C 
ATOM      4  O   UNL     1      48.436   9.879  11.450  0.00  0.00    +0.000 OA
BRANCH   2  21
ATOM     21  C   UNL     1      50.720   8.567  12.201  0.00  0.00    +0.000 C 
ATOM     22  C   UNL     1      51.129   7.690  10.995  0.00  0.00    +0.000 C 
ATOM     23  C   UNL     1      52.610   7.853  10.623  0.00  0.00    +0.000 C 
ATOM     24  C   UNL     1      53.003   9.306  10.379  0.00  0.00    +0.000 C 
ATOM     25  C   UNL     1      53.406   9.830  11.759  0.00  0.00    +0.000 C 
ATOM     26  C   UNL     1      53.229   8.633  12.695  0.00  0.00    +0.000 C 
ATOM     27  C   UNL     1      51.816   8.545  13.291  0.00  0.00    +0.000 C 
ATOM     28  N   UNL     1      53.435   7.500  11.785  0.00  0.00    +0.000 NA
ATOM     31  H   UNL     1      53.124   6.630  12.213  0.00  0.00    +0.000 HD
ENDBRANCH   2  21
ENDBRANCH   5   3
ENDBRANCH   6   5
TORSDOF 5
ENDMDL
MODEL 7
REMARK VINA RESULT:    -6.421      4.432      6.942
REMARK INTER + INTRA:          -8.711
REMARK INTER:                  -7.615
REMARK INTRA:                  -1.096
REMARK UNBOUND:                -0.413
REMARK  Name = 
REMARK  6 active torsions:
REMARK  status: ('A' for Active; 'I' for Inactive)
REMARK    1  A    between atoms: C_1  and  N_2
REMARK    2  A    between atoms: N_2  and  C_21
REMARK    3  A    between atoms: C_3  and  C_5
REMARK    4  A    between atoms: C_5  and  N_6
REMARK    5  A    between atoms: C_7  and  C_8
REMARK    6  A    between atoms: C_14  and  C_15
REMARK                            x       y       z     vdW  Elec       q    Type
REMARK                         _______ _______ _______ _____ _____    ______ ____
ROOT
ATOM      6  N   UNL     1      47.947   7.275  13.910  0.00  0.00    +0.000 N 
ATOM      7  C   UNL     1      48.122   8.152  12.838  0.00  0.00    +0.000 A 
ATOM     11  C   UNL     1      47.404   7.653  11.785  0.00  0.00    +0.000 A 
ATOM     12  C   UNL     1      46.797   6.452  12.165  0.00  0.00    +0.000 A 
ATOM     13  C   UNL     1      46.007   5.496  11.524  0.00  0.00    +0.000 A 
ATOM     14  C   UNL     1      45.560   4.397  12.261  0.00  0.00    +0.000 A 
ATOM     18  C   UNL     1      45.903   4.332  13.611  0.00  0.00    +0.000 A 
ATOM     19  N   UNL     1      46.648   5.243  14.299  0.00  0.00    +0.000 NA
ATOM     20  C   UNL     1      47.094   6.250  13.516  0.00  0.00    +0.000 A 
ENDROOT
BRANCH  14  15
ATOM     15  C   UNL     1      44.735   3.320  11.666  0.00  0.00    +0.000 C 
ATOM     16  N   UNL     1      43.934   2.572  12.491  0.00  0.00    +0.000 N 
ATOM     17  O   UNL     1      44.760   3.089  10.463  0.00  0.00    +0.000 OA
ATOM     29  H   UNL     1      43.830   2.699  13.485  0.00  0.00    +0.000 HD
ATOM     30  H   UNL     1      43.381   1.845  12.056  0.00  0.00    +0.000 HD
ENDBRANCH  14  15
BRANCH   7   8
ATOM      8  C   UNL     1      48.917   9.457  12.735  0.00  0.00    +0.000 C 
ATOM      9  C   UNL     1      49.618   9.716  11.420  0.00  0.00    +0.000 C 
ATOM     10  C   UNL     1      50.442   9.528  12.655  0.00  0.00    +0.000 C 
ENDBRANCH   7   8
BRANCH   6   5
ATOM      5  C   UNL     1      48.390   7.470  15.279  0.00  0.00    +0.000 C 
BRANCH   5   3
ATOM      1  C   UNL     1      48.320   5.567  17.464  0.00  0.00    +0.000 C 
ATOM      2  N   UNL     1      49.568   5.869  16.761  0.00  0.00    +0.000 N 
ATOM      3  C   UNL     1      49.677   6.773  15.682  0.00  0.00    +0.000 C 
ATOM      4  O   UNL     1      50.760   6.980  15.132  0.00  0.00    +0.000 OA
BRANCH   2  21
ATOM     21  C   UNL     1      50.827   5.328  17.316  0.00  0.00    +0.000 C 
ATOM     22  C   UNL     1      50.830   3.798  17.536  0.00  0.00    +0.000 C 
ATOM     23  C   UNL     1      52.029   3.326  18.371  0.00  0.00    +0.000 C 
ATOM     24  C   UNL     1      53.367   3.782  17.797  0.00  0.00    +0.000 C 
ATOM     25  C   UNL     1      53.607   5.155  18.430  0.00  0.00    +0.000 C 
ATOM     26  C   UNL     1      52.395   5.381  19.335  0.00  0.00    +0.000 C 
ATOM     27  C   UNL     1      51.229   6.070  18.611  0.00  0.00    +0.000 C 
ATOM     28  N   UNL     1      52.004   4.007  19.672  0.00  0.00    +0.000 NA
ATOM     31  H   UNL     1      51.073   3.985  20.084  0.00  0.00    +0.000 HD
ENDBRANCH   2  21
ENDBRANCH   5   3
ENDBRANCH   6   5
TORSDOF 5
ENDMDL
MODEL 8
REMARK VINA RESULT:    -6.417      3.026      7.723
REMARK INTER + INTRA:          -8.706
REMARK INTER:                  -7.733
REMARK INTRA:                  -0.974
REMARK UNBOUND:                -0.413
REMARK  Name = 
REMARK  6 active torsions:
REMARK  status: ('A' for Active; 'I' for Inactive)
REMARK    1  A    between atoms: C_1  and  N_2
REMARK    2  A    between atoms: N_2  and  C_21
REMARK    3  A    between atoms: C_3  and  C_5
REMARK    4  A    between atoms: C_5  and  N_6
REMARK    5  A    between atoms: C_7  and  C_8
REMARK    6  A    between atoms: C_14  and  C_15
REMARK                            x       y       z     vdW  Elec       q    Type
REMARK                         _______ _______ _______ _____ _____    ______ ____
ROOT
ATOM      6  N   UNL     1      49.438   7.550  14.449  0.00  0.00    +0.000 N 
ATOM      7  C   UNL     1      50.366   7.299  15.461  0.00  0.00    +0.000 A 
ATOM     11  C   UNL     1      51.581   7.748  15.017  0.00  0.00    +0.000 A 
ATOM     12  C   UNL     1      51.442   8.257  13.722  0.00  0.00    +0.000 A 
ATOM     13  C   UNL     1      52.312   8.792  12.770  0.00  0.00    +0.000 A 
ATOM     14  C   UNL     1      51.785   9.220  11.550  0.00  0.00    +0.000 A 
ATOM     18  C   UNL     1      50.407   9.119  11.361  0.00  0.00    +0.000 A 
ATOM     19  N   UNL     1      49.504   8.630  12.258  0.00  0.00    +0.000 NA
ATOM     20  C   UNL     1      50.086   8.183  13.393  0.00  0.00    +0.000 A 
ENDROOT
BRANCH  14  15
ATOM     15  C   UNL     1      52.629   9.783  10.470  0.00  0.00    +0.000 C 
ATOM     16  N   UNL     1      53.921   9.339  10.345  0.00  0.00    +0.000 N 
ATOM     17  O   UNL     1      52.196  10.631   9.699  0.00  0.00    +0.000 OA
ATOM     29  H   UNL     1      54.359   8.633  10.915  0.00  0.00    +0.000 HD
ATOM     30  H   UNL     1      54.473   9.740   9.597  0.00  0.00    +0.000 HD
ENDBRANCH  14  15
BRANCH   7   8
ATOM      8  C   UNL     1      50.188   6.670  16.846  0.00  0.00    +0.000 C 
ATOM      9  C   UNL     1      51.077   5.490  17.168  0.00  0.00    +0.000 C 
ATOM     10  C   UNL     1      49.597   5.282  17.087  0.00  0.00    +0.000 C 
ENDBRANCH   7   8
BRANCH   6   5
ATOM      5  C   UNL     1      47.997   7.387  14.525  0.00  0.00    +0.000 C 
BRANCH   5   3
ATOM      1  C   UNL     1      45.746   8.056  12.825  0.00  0.00    +0.000 C 
ATOM      2  N   UNL     1      46.290   6.697  12.866  0.00  0.00    +0.000 N 
ATOM      3  C   UNL     1      47.389   6.301  13.658  0.00  0.00    +0.000 C 
ATOM      4  O   UNL     1      47.799   5.139  13.642  0.00  0.00    +0.000 OA
BRANCH   2  21
ATOM     21  C   UNL     1      45.544   5.629  12.167  0.00  0.00    +0.000 C 
ATOM     22  C   UNL     1      45.743   5.599  10.634  0.00  0.00    +0.000 C 
ATOM     23  C   UNL     1      44.740   4.675   9.928  0.00  0.00    +0.000 C 
ATOM     24  C   UNL     1      44.744   3.258  10.490  0.00  0.00    +0.000 C 
ATOM     25  C   UNL     1      43.731   3.298  11.636  0.00  0.00    +0.000 C 
ATOM     26  C   UNL     1      43.207   4.735  11.639  0.00  0.00    +0.000 C 
ATOM     27  C   UNL     1      44.040   5.673  12.525  0.00  0.00    +0.000 C 
ATOM     28  N   UNL     1      43.377   5.126  10.235  0.00  0.00    +0.000 NA
ATOM     31  H   UNL     1      43.285   6.134  10.125  0.00  0.00    +0.000 HD
ENDBRANCH   2  21
ENDBRANCH   5   3
ENDBRANCH   6   5
TORSDOF 5
ENDMDL
MODEL 9
REMARK VINA RESULT:    -6.395      4.009      6.533
REMARK INTER + INTRA:          -8.677
REMARK INTER:                  -8.088
REMARK INTRA:                  -0.589
REMARK UNBOUND:                -0.413
REMARK  Name = 
REMARK  6 active torsions:
REMARK  status: ('A' for Active; 'I' for Inactive)
REMARK    1  A    between atoms: C_1  and  N_2
REMARK    2  A    between atoms: N_2  and  C_21
REMARK    3  A    between atoms: C_3  and  C_5
REMARK    4  A    between atoms: C_5  and  N_6
REMARK    5  A    between atoms: C_7  and  C_8
REMARK    6  A    between atoms: C_14  and  C_15
REMARK                            x       y       z     vdW  Elec       q    Type
REMARK                         _______ _______ _______ _____ _____    ______ ____
ROOT
ATOM      6  N   UNL     1      47.759   6.975  13.564  0.00  0.00    +0.000 N 
ATOM      7  C   UNL     1      47.274   8.200  13.103  0.00  0.00    +0.000 A 
ATOM     11  C   UNL     1      46.066   7.959  12.506  0.00  0.00    +0.000 A 
ATOM     12  C   UNL     1      45.789   6.589  12.556  0.00  0.00    +0.000 A 
ATOM     13  C   UNL     1      44.762   5.769  12.084  0.00  0.00    +0.000 A 
ATOM     14  C   UNL     1      44.827   4.400  12.349  0.00  0.00    +0.000 A 
ATOM     18  C   UNL     1      45.902   3.929  13.102  0.00  0.00    +0.000 A 
ATOM     19  N   UNL     1      46.920   4.680  13.611  0.00  0.00    +0.000 NA
ATOM     20  C   UNL     1      46.827   5.985  13.271  0.00  0.00    +0.000 A 
ENDROOT
BRANCH  14  15
ATOM     15  C   UNL     1      43.798   3.446  11.874  0.00  0.00    +0.000 C 
ATOM     16  N   UNL     1      43.732   2.205  12.455  0.00  0.00    +0.000 N 
ATOM     17  O   UNL     1      43.016   3.745  10.979  0.00  0.00    +0.000 OA
ATOM     29  H   UNL     1      44.315   1.875  13.208  0.00  0.00    +0.000 HD
ATOM     30  H   UNL     1      43.019   1.575  12.111  0.00  0.00    +0.000 HD
ENDBRANCH  14  15
BRANCH   7   8
ATOM      8  C   UNL     1      47.868   9.609  13.199  0.00  0.00    +0.000 C 
ATOM      9  C   UNL     1      47.627  10.522  12.018  0.00  0.00    +0.000 C 
ATOM     10  C   UNL     1      49.029  10.109  12.341  0.00  0.00    +0.000 C 
ENDBRANCH   7   8
BRANCH   6   5
ATOM      5  C   UNL     1      48.929   6.756  14.395  0.00  0.00    +0.000 C 
BRANCH   5   3
ATOM      1  C   UNL     1      48.766   8.740  16.503  0.00  0.00    +0.000 C 
ATOM      2  N   UNL     1      48.619   7.312  16.791  0.00  0.00    +0.000 N 
ATOM      3  C   UNL     1      48.675   6.291  15.817  0.00  0.00    +0.000 C 
ATOM      4  O   UNL     1      48.540   5.106  16.128  0.00  0.00    +0.000 OA
BRANCH   2  21
ATOM     21  C   UNL     1      48.580   6.889  18.208  0.00  0.00    +0.000 C 
ATOM     22  C   UNL     1      47.561   7.656  19.081  0.00  0.00    +0.000 C 
ATOM     23  C   UNL     1      47.755   7.392  20.581  0.00  0.00    +0.000 C 
ATOM     24  C   UNL     1      47.740   5.907  20.928  0.00  0.00    +0.000 C 
ATOM     25  C   UNL     1      49.196   5.463  20.774  0.00  0.00    +0.000 C 
ATOM     26  C   UNL     1      49.946   6.731  20.364  0.00  0.00    +0.000 C 
ATOM     27  C   UNL     1      49.990   6.933  18.842  0.00  0.00    +0.000 C 
ATOM     28  N   UNL     1      49.118   7.784  20.963  0.00  0.00    +0.000 NA
ATOM     31  H   UNL     1      49.362   8.697  20.584  0.00  0.00    +0.000 HD
ENDBRANCH   2  21
ENDBRANCH   5   3
ENDBRANCH   6   5
TORSDOF 5
ENDMDL
