MODEL 1
REMARK VINA RESULT:    -7.087      0.000      0.000
REMARK INTER + INTRA:         -13.541
REMARK INTER:                 -12.059
REMARK INTRA:                  -1.483
REMARK UNBOUND:                -1.483
REMARK  Name = 
REMARK  13 active torsions:
REMARK  status: ('A' for Active; 'I' for Inactive)
REMARK    1  A    between atoms: C_1  and  C_2
REMARK    2  A    between atoms: C_2  and  C_3
REMARK    3  A    between atoms: C_3  and  C_4
REMARK    4  A    between atoms: C_4  and  C_5
REMARK    5  A    between atoms: C_5  and  C_6
REMARK    6  A    between atoms: C_6  and  C_7
REMARK    7  A    between atoms: C_7  and  C_8
REMARK    8  A    between atoms: C_8  and  N_9
REMARK    9  A    between atoms: N_9  and  C_10
REMARK   10  A    between atoms: C_10  and  C_11
REMARK   11  A    between atoms: C_14  and  C_15
REMARK   12  A    between atoms: C_15  and  N_16
REMARK   13  A    between atoms: C_17  and  C_19
REMARK                            x       y       z     vdW  Elec       q    Type
REMARK                         _______ _______ _______ _____ _____    ______ ____
ROOT
ATOM     11  C   UNL     1      44.572   5.568  11.707  0.00  0.00    +0.000 A 
ATOM     12  C   UNL     1      45.507   6.438  11.130  0.00  0.00    +0.000 A 
ATOM     13  C   UNL     1      46.700   6.737  11.785  0.00  0.00    +0.000 A 
ATOM     14  C   UNL     1      46.986   6.174  13.035  0.00  0.00    +0.000 A 
ATOM     29  C   UNL     1      46.030   5.339  13.632  0.00  0.00    +0.000 A 
ATOM     30  C   UNL     1      44.852   5.005  12.956  0.00  0.00    +0.000 A 
ENDROOT
BRANCH  11  10
ATOM     10  C   UNL     1      43.259   5.310  11.014  0.00  0.00    +0.000 C 
BRANCH  10   9
ATOM      9  N   UNL     1      43.461   4.715   9.699  0.00  0.00    +0.000 NA
ATOM     31  H   UNL     1      42.567   4.632   9.221  0.00  0.00    +0.000 HD
BRANCH   9   8
ATOM      8  C   UNL     1      44.061   3.397   9.828  0.00  0.00    +0.000 C 
BRANCH   8   7
ATOM      7  C   UNL     1      44.901   3.117   8.591  0.00  0.00    +0.000 C 
BRANCH   7   6
ATOM      6  C   UNL     1      45.720   4.349   8.243  0.00  0.00    +0.000 C 
BRANCH   6   5
ATOM      5  C   UNL     1      46.892   3.974   7.352  0.00  0.00    +0.000 C 
BRANCH   5   4
ATOM      4  C   UNL     1      46.391   3.249   6.111  0.00  0.00    +0.000 C 
BRANCH   4   3
ATOM      3  C   UNL     1      47.214   1.994   5.870  0.00  0.00    +0.000 C 
BRANCH   3   2
ATOM      1  C   UNL     1      46.773   0.228   7.580  0.00  0.00    +0.000 C 
ATOM      2  C   UNL     1      47.669   1.389   7.192  0.00  0.00    +0.000 C 
ENDBRANCH   3   2
ENDBRANCH   4   3
ENDBRANCH   5   4
ENDBRANCH   6   5
ENDBRANCH   7   6
ENDBRANCH   8   7
ENDBRANCH   9   8
ENDBRANCH  10   9
ENDBRANCH  11  10
BRANCH  14  15
ATOM     15  C   UNL     1      48.319   6.419  13.698  0.00  0.00    +0.000 C 
BRANCH  15  16
ATOM     16  N   UNL     1      48.197   6.902  15.049  0.00  0.00    +0.000 N 
ATOM     17  C   UNL     1      49.286   6.982  15.889  0.00  0.00    +0.000 C 
ATOM     18  O   UNL     1      50.421   6.678  15.527  0.00  0.00    +0.000 OA
ATOM     32  H   UNL     1      47.261   7.002  15.423  0.00  0.00    +0.000 HD
BRANCH  17  19
ATOM     19  C   UNL     1      49.015   7.497  17.237  0.00  0.00    +0.000 A 
ATOM     20  C   UNL     1      49.464   8.756  17.607  0.00  0.00    +0.000 A 
ATOM     21  S   UNL     1      49.045   9.190  19.204  0.00  0.00    +0.000 S 
ATOM     22  C   UNL     1      48.279   7.693  19.470  0.00  0.00    +0.000 A 
ATOM     23  N   UNL     1      47.710   7.397  20.671  0.00  0.00    +0.000 NA
ATOM     24  C   UNL     1      47.159   6.232  20.721  0.00  0.00    +0.000 A 
ATOM     25  N   UNL     1      47.120   5.336  19.689  0.00  0.00    +0.000 N 
ATOM     26  C   UNL     1      47.687   5.587  18.459  0.00  0.00    +0.000 A 
ATOM     27  O   UNL     1      47.618   4.771  17.550  0.00  0.00    +0.000 OA
ATOM     28  C   UNL     1      48.319   6.886  18.345  0.00  0.00    +0.000 A 
ATOM     33  H   UNL     1      46.657   4.445  19.780  0.00  0.00    +0.000 HD
ENDBRANCH  17  19
ENDBRANCH  15  16
ENDBRANCH  14  15
TORSDOF 12
ENDMDL
MODEL 2
REMARK VINA RESULT:    -6.980      2.215      2.664
REMARK INTER + INTRA:         -13.360
REMARK INTER:                 -11.386
REMARK INTRA:                  -1.974
REMARK UNBOUND:                -1.483
REMARK  Name = 
REMARK  13 active torsions:
REMARK  status: ('A' for Active; 'I' for Inactive)
REMARK    1  A    between atoms: C_1  and  C_2
REMARK    2  A    between atoms: C_2  and  C_3
REMARK    3  A    between atoms: C_3  and  C_4
REMARK    4  A    between atoms: C_4  and  C_5
REMARK    5  A    between atoms: C_5  and  C_6
REMARK    6  A    between atoms: C_6  and  C_7
REMARK    7  A    between atoms: C_7  and  C_8
REMARK    8  A    between atoms: C_8  and  N_9
REMARK    9  A    between atoms: N_9  and  C_10
REMARK   10  A    between atoms: C_10  and  C_11
REMARK   11  A    between atoms: C_14  and  C_15
REMARK   12  A    between atoms: C_15  and  N_16
REMARK   13  A    between atoms: C_17  and  C_19
REMARK                            x       y       z     vdW  Elec       q    Type
REMARK                         _______ _______ _______ _____ _____    ______ ____
ROOT
ATOM     11  C   UNL     1      44.601   5.605  12.740  0.00  0.00    +0.000 A 
ATOM     12  C   UNL     1      45.715   5.038  13.373  0.00  0.00    +0.000 A 
ATOM     13  C   UNL     1      46.982   5.598  13.219  0.00  0.00    +0.000 A 
ATOM     14  C   UNL     1      47.165   6.739  12.429  0.00  0.00    +0.000 A 
ATOM     29  C   UNL     1      46.056   7.280  11.761  0.00  0.00    +0.000 A 
ATOM     30  C   UNL     1      44.778   6.744  11.948  0.00  0.00    +0.000 A 
ENDROOT
BRANCH  11  10
ATOM     10  C   UNL     1      43.251   4.946  12.863  0.00  0.00    +0.000 C 
BRANCH  10   9
ATOM      9  N   UNL     1      42.847   4.327  11.606  0.00  0.00    +0.000 NA
ATOM     31  H   UNL     1      41.831   4.299  11.551  0.00  0.00    +0.000 HD
BRANCH   9   8
ATOM      8  C   UNL     1      43.368   2.972  11.520  0.00  0.00    +0.000 C 
BRANCH   8   7
ATOM      7  C   UNL     1      44.384   2.909  10.389  0.00  0.00    +0.000 C 
BRANCH   7   6
ATOM      6  C   UNL     1      44.157   4.071   9.436  0.00  0.00    +0.000 C 
BRANCH   6   5
ATOM      5  C   UNL     1      45.435   4.400   8.684  0.00  0.00    +0.000 C 
BRANCH   5   4
ATOM      4  C   UNL     1      45.584   3.477   7.483  0.00  0.00    +0.000 C 
BRANCH   4   3
ATOM      3  C   UNL     1      47.055   3.280   7.154  0.00  0.00    +0.000 C 
BRANCH   3   2
ATOM      1  C   UNL     1      46.474   0.989   7.961  0.00  0.00    +0.000 C 
ATOM      2  C   UNL     1      47.389   1.797   7.060  0.00  0.00    +0.000 C 
ENDBRANCH   3   2
ENDBRANCH   4   3
ENDBRANCH   5   4
ENDBRANCH   6   5
ENDBRANCH   7   6
ENDBRANCH   8   7
ENDBRANCH   9   8
ENDBRANCH  10   9
ENDBRANCH  11  10
BRANCH  14  15
ATOM     15  C   UNL     1      48.517   7.403  12.344  0.00  0.00    +0.000 C 
BRANCH  15  16
ATOM     16  N   UNL     1      49.424   6.972  13.377  0.00  0.00    +0.000 N 
ATOM     17  C   UNL     1      49.841   7.824  14.375  0.00  0.00    +0.000 C 
ATOM     18  O   UNL     1      49.442   8.984  14.460  0.00  0.00    +0.000 OA
ATOM     32  H   UNL     1      49.892   6.084  13.241  0.00  0.00    +0.000 HD
BRANCH  17  19
ATOM     19  C   UNL     1      50.762   7.248  15.362  0.00  0.00    +0.000 A 
ATOM     20  C   UNL     1      52.103   7.603  15.356  0.00  0.00    +0.000 A 
ATOM     21  S   UNL     1      53.017   6.844  16.582  0.00  0.00    +0.000 S 
ATOM     22  C   UNL     1      51.658   5.986  17.143  0.00  0.00    +0.000 A 
ATOM     23  N   UNL     1      51.754   5.118  18.187  0.00  0.00    +0.000 NA
ATOM     24  C   UNL     1      50.641   4.549  18.506  0.00  0.00    +0.000 A 
ATOM     25  N   UNL     1      49.443   4.765  17.885  0.00  0.00    +0.000 N 
ATOM     26  C   UNL     1      49.297   5.627  16.820  0.00  0.00    +0.000 A 
ATOM     27  O   UNL     1      48.205   5.811  16.299  0.00  0.00    +0.000 OA
ATOM     28  C   UNL     1      50.518   6.297  16.420  0.00  0.00    +0.000 A 
ATOM     33  H   UNL     1      48.599   4.305  18.191  0.00  0.00    +0.000 HD
ENDBRANCH  17  19
ENDBRANCH  15  16
ENDBRANCH  14  15
TORSDOF 12
ENDMDL
MODEL 3
REMARK VINA RESULT:    -6.823      2.181      3.017
REMARK INTER + INTRA:         -13.092
REMARK INTER:                 -11.073
REMARK INTRA:                  -2.019
REMARK UNBOUND:                -1.483
REMARK  Name = 
REMARK  13 active torsions:
REMARK  status: ('A' for Active; 'I' for Inactive)
REMARK    1  A    between atoms: C_1  and  C_2
REMARK    2  A    between atoms: C_2  and  C_3
REMARK    3  A    between atoms: C_3  and  C_4
REMARK    4  A    between atoms: C_4  and  C_5
REMARK    5  A    between atoms: C_5  and  C_6
REMARK    6  A    between atoms: C_6  and  C_7
REMARK    7  A    between atoms: C_7  and  C_8
REMARK    8  A    between atoms: C_8  and  N_9
REMARK    9  A    between atoms: N_9  and  C_10
REMARK   10  A    between atoms: C_10  and  C_11
REMARK   11  A    between atoms: C_14  and  C_15
REMARK   12  A    between atoms: C_15  and  N_16
REMARK   13  A    between atoms: C_17  and  C_19
REMARK                            x       y       z     vdW  Elec       q    Type
REMARK                         _______ _______ _______ _____ _____    ______ ____
ROOT
ATOM     11  C   UNL     1      44.867   7.485  11.576  0.00  0.00    +0.000 A 
ATOM     12  C   UNL     1      45.802   6.493  11.252  0.00  0.00    +0.000 A 
ATOM     13  C   UNL     1      47.127   6.598  11.671  0.00  0.00    +0.000 A 
ATOM     14  C   UNL     1      47.548   7.699  12.426  0.00  0.00    +0.000 A 
ATOM     29  C   UNL     1      46.622   8.713  12.713  0.00  0.00    +0.000 A 
ATOM     30  C   UNL     1      45.284   8.588  12.329  0.00  0.00    +0.000 A 
ENDROOT
BRANCH  11  10
ATOM     10  C   UNL     1      43.456   7.386  11.057  0.00  0.00    +0.000 C 
BRANCH  10   9
ATOM      9  N   UNL     1      43.057   5.997  10.864  0.00  0.00    +0.000 NA
ATOM     31  H   UNL     1      42.319   5.948  10.165  0.00  0.00    +0.000 HD
BRANCH   9   8
ATOM      8  C   UNL     1      42.572   5.434  12.114  0.00  0.00    +0.000 C 
BRANCH   8   7
ATOM      7  C   UNL     1      43.300   4.124  12.377  0.00  0.00    +0.000 C 
BRANCH   7   6
ATOM      6  C   UNL     1      43.412   3.335  11.083  0.00  0.00    +0.000 C 
BRANCH   6   5
ATOM      5  C   UNL     1      44.867   3.036  10.767  0.00  0.00    +0.000 C 
BRANCH   5   4
ATOM      4  C   UNL     1      45.005   2.600   9.315  0.00  0.00    +0.000 C 
BRANCH   4   3
ATOM      3  C   UNL     1      44.864   3.799   8.393  0.00  0.00    +0.000 C 
BRANCH   3   2
ATOM      1  C   UNL     1      46.612   3.153   6.731  0.00  0.00    +0.000 C 
ATOM      2  C   UNL     1      46.210   4.169   7.784  0.00  0.00    +0.000 C 
ENDBRANCH   3   2
ENDBRANCH   4   3
ENDBRANCH   5   4
ENDBRANCH   6   5
ENDBRANCH   7   6
ENDBRANCH   8   7
ENDBRANCH   9   8
ENDBRANCH  10   9
ENDBRANCH  11  10
BRANCH  14  15
ATOM     15  C   UNL     1      48.956   7.764  12.964  0.00  0.00    +0.000 C 
BRANCH  15  16
ATOM     16  N   UNL     1      49.158   6.929  14.121  0.00  0.00    +0.000 N 
ATOM     17  C   UNL     1      48.949   7.401  15.398  0.00  0.00    +0.000 C 
ATOM     18  O   UNL     1      48.550   8.543  15.622  0.00  0.00    +0.000 OA
ATOM     32  H   UNL     1      49.637   6.049  13.979  0.00  0.00    +0.000 HD
BRANCH  17  19
ATOM     19  C   UNL     1      49.189   6.439  16.480  0.00  0.00    +0.000 A 
ATOM     20  C   UNL     1      50.163   6.691  17.435  0.00  0.00    +0.000 A 
ATOM     21  S   UNL     1      50.292   5.469  18.621  0.00  0.00    +0.000 S 
ATOM     22  C   UNL     1      49.071   4.543  17.879  0.00  0.00    +0.000 A 
ATOM     23  N   UNL     1      48.695   3.337  18.388  0.00  0.00    +0.000 NA
ATOM     24  C   UNL     1      47.753   2.755  17.726  0.00  0.00    +0.000 A 
ATOM     25  N   UNL     1      47.151   3.260  16.607  0.00  0.00    +0.000 N 
ATOM     26  C   UNL     1      47.502   4.471  16.052  0.00  0.00    +0.000 A 
ATOM     27  O   UNL     1      46.929   4.903  15.060  0.00  0.00    +0.000 OA
ATOM     28  C   UNL     1      48.556   5.171  16.758  0.00  0.00    +0.000 A 
ATOM     33  H   UNL     1      46.405   2.768  16.141  0.00  0.00    +0.000 HD
ENDBRANCH  17  19
ENDBRANCH  15  16
ENDBRANCH  14  15
TORSDOF 12
ENDMDL
MODEL 4
REMARK VINA RESULT:    -6.673      1.537      2.013
REMARK INTER + INTRA:         -12.837
REMARK INTER:                 -11.464
REMARK INTRA:                  -1.373
REMARK UNBOUND:                -1.483
REMARK  Name = 
REMARK  13 active torsions:
REMARK  status: ('A' for Active; 'I' for Inactive)
REMARK    1  A    between atoms: C_1  and  C_2
REMARK    2  A    between atoms: C_2  and  C_3
REMARK    3  A    between atoms: C_3  and  C_4
REMARK    4  A    between atoms: C_4  and  C_5
REMARK    5  A    between atoms: C_5  and  C_6
REMARK    6  A    between atoms: C_6  and  C_7
REMARK    7  A    between atoms: C_7  and  C_8
REMARK    8  A    between atoms: C_8  and  N_9
REMARK    9  A    between atoms: N_9  and  C_10
REMARK   10  A    between atoms: C_10  and  C_11
REMARK   11  A    between atoms: C_14  and  C_15
REMARK   12  A    between atoms: C_15  and  N_16
REMARK   13  A    between atoms: C_17  and  C_19
REMARK                            x       y       z     vdW  Elec       q    Type
REMARK                         _______ _______ _______ _____ _____    ______ ____
ROOT
ATOM     11  C   UNL     1      45.053   5.541  13.080  0.00  0.00    +0.000 A 
ATOM     12  C   UNL     1      46.030   4.719  13.659  0.00  0.00    +0.000 A 
ATOM     13  C   UNL     1      47.304   5.213  13.932  0.00  0.00    +0.000 A 
ATOM     14  C   UNL     1      47.632   6.541  13.633  0.00  0.00    +0.000 A 
ATOM     29  C   UNL     1      46.667   7.349  13.013  0.00  0.00    +0.000 A 
ATOM     30  C   UNL     1      45.376   6.868  12.778  0.00  0.00    +0.000 A 
ENDROOT
BRANCH  11  10
ATOM     10  C   UNL     1      43.703   4.971  12.730  0.00  0.00    +0.000 C 
BRANCH  10   9
ATOM      9  N   UNL     1      43.627   3.551  13.052  0.00  0.00    +0.000 NA
ATOM     31  H   UNL     1      44.474   3.266  13.540  0.00  0.00    +0.000 HD
BRANCH   9   8
ATOM      8  C   UNL     1      43.485   2.764  11.838  0.00  0.00    +0.000 C 
BRANCH   8   7
ATOM      7  C   UNL     1      43.720   3.669  10.638  0.00  0.00    +0.000 C 
BRANCH   7   6
ATOM      6  C   UNL     1      44.536   2.926   9.592  0.00  0.00    +0.000 C 
BRANCH   6   5
ATOM      5  C   UNL     1      44.727   3.787   8.355  0.00  0.00    +0.000 C 
BRANCH   5   4
ATOM      4  C   UNL     1      46.040   3.434   7.674  0.00  0.00    +0.000 C 
BRANCH   4   3
ATOM      3  C   UNL     1      46.392   1.979   7.938  0.00  0.00    +0.000 C 
BRANCH   3   2
ATOM      1  C   UNL     1      47.525   2.446   5.762  0.00  0.00    +0.000 C 
ATOM      2  C   UNL     1      47.425   1.486   6.933  0.00  0.00    +0.000 C 
ENDBRANCH   3   2
ENDBRANCH   4   3
ENDBRANCH   5   4
ENDBRANCH   6   5
ENDBRANCH   7   6
ENDBRANCH   8   7
ENDBRANCH   9   8
ENDBRANCH  10   9
ENDBRANCH  11  10
BRANCH  14  15
ATOM     15  C   UNL     1      48.977   7.103  14.020  0.00  0.00    +0.000 C 
BRANCH  15  16
ATOM     16  N   UNL     1      49.294   6.903  15.411  0.00  0.00    +0.000 N 
ATOM     17  C   UNL     1      48.905   7.803  16.378  0.00  0.00    +0.000 C 
ATOM     18  O   UNL     1      48.243   8.806  16.116  0.00  0.00    +0.000 OA
ATOM     32  H   UNL     1      49.970   6.182  15.633  0.00  0.00    +0.000 HD
BRANCH  17  19
ATOM     19  C   UNL     1      49.293   7.470  17.753  0.00  0.00    +0.000 A 
ATOM     20  C   UNL     1      50.114   8.324  18.475  0.00  0.00    +0.000 A 
ATOM     21  S   UNL     1      50.448   7.779  20.058  0.00  0.00    +0.000 S 
ATOM     22  C   UNL     1      49.534   6.362  19.823  0.00  0.00    +0.000 A 
ATOM     23  N   UNL     1      49.421   5.426  20.805  0.00  0.00    +0.000 NA
ATOM     24  C   UNL     1      48.690   4.411  20.487  0.00  0.00    +0.000 A 
ATOM     25  N   UNL     1      48.062   4.242  19.284  0.00  0.00    +0.000 N 
ATOM     26  C   UNL     1      48.153   5.157  18.258  0.00  0.00    +0.000 A 
ATOM     27  O   UNL     1      47.562   4.984  17.201  0.00  0.00    +0.000 OA
ATOM     28  C   UNL     1      48.961   6.320  18.563  0.00  0.00    +0.000 A 
ATOM     33  H   UNL     1      47.486   3.436  19.098  0.00  0.00    +0.000 HD
ENDBRANCH  17  19
ENDBRANCH  15  16
ENDBRANCH  14  15
TORSDOF 12
ENDMDL
MODEL 5
REMARK VINA RESULT:    -6.607      3.914      4.670
REMARK INTER + INTRA:         -12.726
REMARK INTER:                 -11.355
REMARK INTRA:                  -1.371
REMARK UNBOUND:                -1.483
REMARK  Name = 
REMARK  13 active torsions:
REMARK  status: ('A' for Active; 'I' for Inactive)
REMARK    1  A    between atoms: C_1  and  C_2
REMARK    2  A    between atoms: C_2  and  C_3
REMARK    3  A    between atoms: C_3  and  C_4
REMARK    4  A    between atoms: C_4  and  C_5
REMARK    5  A    between atoms: C_5  and  C_6
REMARK    6  A    between atoms: C_6  and  C_7
REMARK    7  A    between atoms: C_7  and  C_8
REMARK    8  A    between atoms: C_8  and  N_9
REMARK    9  A    between atoms: N_9  and  C_10
REMARK   10  A    between atoms: C_10  and  C_11
REMARK   11  A    between atoms: C_14  and  C_15
REMARK   12  A    between atoms: C_15  and  N_16
REMARK   13  A    between atoms: C_17  and  C_19
REMARK                            x       y       z     vdW  Elec       q    Type
REMARK                         _______ _______ _______ _____ _____    ______ ____
ROOT
ATOM     11  C   UNL     1      47.164   5.073  14.045  0.00  0.00    +0.000 A 
ATOM     12  C   UNL     1      47.889   6.271  13.993  0.00  0.00    +0.000 A 
ATOM     13  C   UNL     1      48.582   6.733  15.111  0.00  0.00    +0.000 A 
ATOM     14  C   UNL     1      48.567   6.006  16.308  0.00  0.00    +0.000 A 
ATOM     29  C   UNL     1      47.805   4.831  16.372  0.00  0.00    +0.000 A 
ATOM     30  C   UNL     1      47.144   4.345  15.240  0.00  0.00    +0.000 A 
ENDROOT
BRANCH  11  10
ATOM     10  C   UNL     1      46.366   4.624  12.849  0.00  0.00    +0.000 C 
BRANCH  10   9
ATOM      9  N   UNL     1      45.311   3.694  13.232  0.00  0.00    +0.000 NA
ATOM     31  H   UNL     1      45.629   2.739  13.088  0.00  0.00    +0.000 HD
BRANCH   9   8
ATOM      8  C   UNL     1      44.118   3.927  12.435  0.00  0.00    +0.000 C 
BRANCH   8   7
ATOM      7  C   UNL     1      44.294   3.256  11.081  0.00  0.00    +0.000 C 
BRANCH   7   6
ATOM      6  C   UNL     1      44.068   4.274   9.975  0.00  0.00    +0.000 C 
BRANCH   6   5
ATOM      5  C   UNL     1      44.575   3.738   8.647  0.00  0.00    +0.000 C 
BRANCH   5   4
ATOM      4  C   UNL     1      45.039   2.298   8.811  0.00  0.00    +0.000 C 
BRANCH   4   3
ATOM      3  C   UNL     1      46.289   2.053   7.981  0.00  0.00    +0.000 C 
BRANCH   3   2
ATOM      1  C   UNL     1      46.873   2.828   5.680  0.00  0.00    +0.000 C 
ATOM      2  C   UNL     1      46.598   3.262   7.108  0.00  0.00    +0.000 C 
ENDBRANCH   3   2
ENDBRANCH   4   3
ENDBRANCH   5   4
ENDBRANCH   6   5
ENDBRANCH   7   6
ENDBRANCH   8   7
ENDBRANCH   9   8
ENDBRANCH  10   9
ENDBRANCH  11  10
BRANCH  14  15
ATOM     15  C   UNL     1      49.397   6.454  17.485  0.00  0.00    +0.000 C 
BRANCH  15  16
ATOM     16  N   UNL     1      50.377   5.478  17.889  0.00  0.00    +0.000 N 
ATOM     17  C   UNL     1      51.627   5.427  17.313  0.00  0.00    +0.000 C 
ATOM     18  O   UNL     1      51.988   6.226  16.451  0.00  0.00    +0.000 OA
ATOM     32  H   UNL     1      50.056   4.714  18.471  0.00  0.00    +0.000 HD
BRANCH  17  19
ATOM     19  C   UNL     1      52.523   4.384  17.825  0.00  0.00    +0.000 A 
ATOM     20  C   UNL     1      53.747   4.725  18.383  0.00  0.00    +0.000 A 
ATOM     21  S   UNL     1      54.646   3.383  18.935  0.00  0.00    +0.000 S 
ATOM     22  C   UNL     1      53.445   2.294  18.416  0.00  0.00    +0.000 A 
ATOM     23  N   UNL     1      53.598   0.950  18.573  0.00  0.00    +0.000 NA
ATOM     24  C   UNL     1      52.604   0.251  18.142  0.00  0.00    +0.000 A 
ATOM     25  N   UNL     1      51.472   0.764  17.572  0.00  0.00    +0.000 N 
ATOM     26  C   UNL     1      51.275   2.114  17.385  0.00  0.00    +0.000 A 
ATOM     27  O   UNL     1      50.241   2.541  16.888  0.00  0.00    +0.000 OA
ATOM     28  C   UNL     1      52.362   2.949  17.855  0.00  0.00    +0.000 A 
ATOM     33  H   UNL     1      50.716   0.168  17.270  0.00  0.00    +0.000 HD
ENDBRANCH  17  19
ENDBRANCH  15  16
ENDBRANCH  14  15
TORSDOF 12
ENDMDL
MODEL 6
REMARK VINA RESULT:    -6.387      4.757      9.342
REMARK INTER + INTRA:         -12.350
REMARK INTER:                 -10.146
REMARK INTRA:                  -2.204
REMARK UNBOUND:                -1.483
REMARK  Name = 
REMARK  13 active torsions:
REMARK  status: ('A' for Active; 'I' for Inactive)
REMARK    1  A    between atoms: C_1  and  C_2
REMARK    2  A    between atoms: C_2  and  C_3
REMARK    3  A    between atoms: C_3  and  C_4
REMARK    4  A    between atoms: C_4  and  C_5
REMARK    5  A    between atoms: C_5  and  C_6
REMARK    6  A    between atoms: C_6  and  C_7
REMARK    7  A    between atoms: C_7  and  C_8
REMARK    8  A    between atoms: C_8  and  N_9
REMARK    9  A    between atoms: N_9  and  C_10
REMARK   10  A    between atoms: C_10  and  C_11
REMARK   11  A    between atoms: C_14  and  C_15
REMARK   12  A    between atoms: C_15  and  N_16
REMARK   13  A    between atoms: C_17  and  C_19
REMARK                            x       y       z     vdW  Elec       q    Type
REMARK                         _______ _______ _______ _____ _____    ______ ____
ROOT
ATOM     11  C   UNL     1      51.073   2.267  17.389  0.00  0.00    +0.000 A 
ATOM     12  C   UNL     1      49.695   2.244  17.135  0.00  0.00    +0.000 A 
ATOM     13  C   UNL     1      48.961   3.429  17.078  0.00  0.00    +0.000 A 
ATOM     14  C   UNL     1      49.590   4.664  17.274  0.00  0.00    +0.000 A 
ATOM     29  C   UNL     1      50.960   4.683  17.572  0.00  0.00    +0.000 A 
ATOM     30  C   UNL     1      51.704   3.500  17.588  0.00  0.00    +0.000 A 
ENDROOT
BRANCH  11  10
ATOM     10  C   UNL     1      51.835   0.974  17.513  0.00  0.00    +0.000 C 
BRANCH  10   9
ATOM      9  N   UNL     1      52.875   1.066  18.532  0.00  0.00    +0.000 NA
ATOM     31  H   UNL     1      52.988   2.037  18.816  0.00  0.00    +0.000 HD
BRANCH   9   8
ATOM      8  C   UNL     1      54.137   0.568  18.011  0.00  0.00    +0.000 C 
BRANCH   8   7
ATOM      7  C   UNL     1      55.164   1.690  18.058  0.00  0.00    +0.000 C 
BRANCH   7   6
ATOM      6  C   UNL     1      55.515   2.117  16.642  0.00  0.00    +0.000 C 
BRANCH   6   5
ATOM      5  C   UNL     1      55.755   3.616  16.584  0.00  0.00    +0.000 C 
BRANCH   5   4
ATOM      4  C   UNL     1      55.212   4.279  17.841  0.00  0.00    +0.000 C 
BRANCH   4   3
ATOM      3  C   UNL     1      54.839   5.724  17.552  0.00  0.00    +0.000 C 
BRANCH   3   2
ATOM      1  C   UNL     1      53.417   7.120  16.047  0.00  0.00    +0.000 C 
ATOM      2  C   UNL     1      54.248   5.856  16.154  0.00  0.00    +0.000 C 
ENDBRANCH   3   2
ENDBRANCH   4   3
ENDBRANCH   5   4
ENDBRANCH   6   5
ENDBRANCH   7   6
ENDBRANCH   8   7
ENDBRANCH   9   8
ENDBRANCH  10   9
ENDBRANCH  11  10
BRANCH  14  15
ATOM     15  C   UNL     1      48.816   5.950  17.114  0.00  0.00    +0.000 C 
BRANCH  15  16
ATOM     16  N   UNL     1      47.910   5.928  15.994  0.00  0.00    +0.000 N 
ATOM     17  C   UNL     1      48.313   6.298  14.730  0.00  0.00    +0.000 C 
ATOM     18  O   UNL     1      49.470   6.635  14.480  0.00  0.00    +0.000 OA
ATOM     32  H   UNL     1      46.924   5.815  16.198  0.00  0.00    +0.000 HD
BRANCH  17  19
ATOM     19  C   UNL     1      47.286   6.223  13.686  0.00  0.00    +0.000 A 
ATOM     20  C   UNL     1      46.851   7.377  13.050  0.00  0.00    +0.000 A 
ATOM     21  S   UNL     1      45.663   7.094  11.856  0.00  0.00    +0.000 S 
ATOM     22  C   UNL     1      45.664   5.421  12.172  0.00  0.00    +0.000 A 
ATOM     23  N   UNL     1      44.839   4.576  11.493  0.00  0.00    +0.000 NA
ATOM     24  C   UNL     1      44.957   3.337  11.833  0.00  0.00    +0.000 A 
ATOM     25  N   UNL     1      45.818   2.861  12.782  0.00  0.00    +0.000 N 
ATOM     26  C   UNL     1      46.666   3.677  13.499  0.00  0.00    +0.000 A 
ATOM     27  O   UNL     1      47.438   3.216  14.328  0.00  0.00    +0.000 OA
ATOM     28  C   UNL     1      46.577   5.082  13.156  0.00  0.00    +0.000 A 
ATOM     33  H   UNL     1      45.881   1.877  12.992  0.00  0.00    +0.000 HD
ENDBRANCH  17  19
ENDBRANCH  15  16
ENDBRANCH  14  15
TORSDOF 12
ENDMDL
MODEL 7
REMARK VINA RESULT:    -6.223      3.495      8.954
REMARK INTER + INTRA:         -12.071
REMARK INTER:                  -9.347
REMARK INTRA:                  -2.724
REMARK UNBOUND:                -1.483
REMARK  Name = 
REMARK  13 active torsions:
REMARK  status: ('A' for Active; 'I' for Inactive)
REMARK    1  A    between atoms: C_1  and  C_2
REMARK    2  A    between atoms: C_2  and  C_3
REMARK    3  A    between atoms: C_3  and  C_4
REMARK    4  A    between atoms: C_4  and  C_5
REMARK    5  A    between atoms: C_5  and  C_6
REMARK    6  A    between atoms: C_6  and  C_7
REMARK    7  A    between atoms: C_7  and  C_8
REMARK    8  A    between atoms: C_8  and  N_9
REMARK    9  A    between atoms: N_9  and  C_10
REMARK   10  A    between atoms: C_10  and  C_11
REMARK   11  A    between atoms: C_14  and  C_15
REMARK   12  A    between atoms: C_15  and  N_16
REMARK   13  A    between atoms: C_17  and  C_19
REMARK                            x       y       z     vdW  Elec       q    Type
REMARK                         _______ _______ _______ _____ _____    ______ ____
ROOT
ATOM     11  C   UNL     1      49.468   8.058  15.589  0.00  0.00    +0.000 A 
ATOM     12  C   UNL     1      48.257   8.734  15.394  0.00  0.00    +0.000 A 
ATOM     13  C   UNL     1      47.626   8.723  14.151  0.00  0.00    +0.000 A 
ATOM     14  C   UNL     1      48.193   8.034  13.072  0.00  0.00    +0.000 A 
ATOM     29  C   UNL     1      49.428   7.394  13.256  0.00  0.00    +0.000 A 
ATOM     30  C   UNL     1      50.040   7.370  14.513  0.00  0.00    +0.000 A 
ENDROOT
BRANCH  11  10
ATOM     10  C   UNL     1      50.168   8.138  16.920  0.00  0.00    +0.000 C 
BRANCH  10   9
ATOM      9  N   UNL     1      50.953   6.937  17.180  0.00  0.00    +0.000 NA
ATOM     31  H   UNL     1      50.686   6.206  16.525  0.00  0.00    +0.000 HD
BRANCH   9   8
ATOM      8  C   UNL     1      50.726   6.470  18.538  0.00  0.00    +0.000 C 
BRANCH   8   7
ATOM      7  C   UNL     1      49.230   6.477  18.815  0.00  0.00    +0.000 C 
BRANCH   7   6
ATOM      6  C   UNL     1      48.701   5.053  18.784  0.00  0.00    +0.000 C 
BRANCH   6   5
ATOM      5  C   UNL     1      47.254   5.033  18.322  0.00  0.00    +0.000 C 
BRANCH   5   4
ATOM      4  C   UNL     1      47.115   4.160  17.084  0.00  0.00    +0.000 C 
BRANCH   4   3
ATOM      3  C   UNL     1      47.846   4.793  15.912  0.00  0.00    +0.000 C 
BRANCH   3   2
ATOM      1  C   UNL     1      47.072   3.574  13.874  0.00  0.00    +0.000 C 
ATOM      2  C   UNL     1      46.945   4.850  14.685  0.00  0.00    +0.000 C 
ENDBRANCH   3   2
ENDBRANCH   4   3
ENDBRANCH   5   4
ENDBRANCH   6   5
ENDBRANCH   7   6
ENDBRANCH   8   7
ENDBRANCH   9   8
ENDBRANCH  10   9
ENDBRANCH  11  10
BRANCH  14  15
ATOM     15  C   UNL     1      47.462   7.938  11.756  0.00  0.00    +0.000 C 
BRANCH  15  16
ATOM     16  N   UNL     1      46.754   6.694  11.593  0.00  0.00    +0.000 N 
ATOM     17  C   UNL     1      45.377   6.641  11.585  0.00  0.00    +0.000 C 
ATOM     18  O   UNL     1      44.679   7.649  11.685  0.00  0.00    +0.000 OA
ATOM     32  H   UNL     1      47.292   5.840  11.673  0.00  0.00    +0.000 HD
BRANCH  17  19
ATOM     19  C   UNL     1      44.791   5.308  11.407  0.00  0.00    +0.000 A 
ATOM     20  C   UNL     1      44.022   4.743  12.413  0.00  0.00    +0.000 A 
ATOM     21  S   UNL     1      43.413   3.196  12.023  0.00  0.00    +0.000 S 
ATOM     22  C   UNL     1      44.187   3.212  10.506  0.00  0.00    +0.000 A 
ATOM     23  N   UNL     1      44.090   2.155   9.655  0.00  0.00    +0.000 NA
ATOM     24  C   UNL     1      44.720   2.314   8.541  0.00  0.00    +0.000 A 
ATOM     25  N   UNL     1      45.435   3.427   8.195  0.00  0.00    +0.000 N 
ATOM     26  C   UNL     1      45.568   4.518   9.025  0.00  0.00    +0.000 A 
ATOM     27  O   UNL     1      46.200   5.506   8.676  0.00  0.00    +0.000 OA
ATOM     28  C   UNL     1      44.877   4.394  10.292  0.00  0.00    +0.000 A 
ATOM     33  H   UNL     1      45.893   3.503   7.299  0.00  0.00    +0.000 HD
ENDBRANCH  17  19
ENDBRANCH  15  16
ENDBRANCH  14  15
TORSDOF 12
ENDMDL
MODEL 8
REMARK VINA RESULT:    -6.216      4.028      9.115
REMARK INTER + INTRA:         -12.060
REMARK INTER:                  -9.011
REMARK INTRA:                  -3.049
REMARK UNBOUND:                -1.483
REMARK  Name = 
REMARK  13 active torsions:
REMARK  status: ('A' for Active; 'I' for Inactive)
REMARK    1  A    between atoms: C_1  and  C_2
REMARK    2  A    between atoms: C_2  and  C_3
REMARK    3  A    between atoms: C_3  and  C_4
REMARK    4  A    between atoms: C_4  and  C_5
REMARK    5  A    between atoms: C_5  and  C_6
REMARK    6  A    between atoms: C_6  and  C_7
REMARK    7  A    between atoms: C_7  and  C_8
REMARK    8  A    between atoms: C_8  and  N_9
REMARK    9  A    between atoms: N_9  and  C_10
REMARK   10  A    between atoms: C_10  and  C_11
REMARK   11  A    between atoms: C_14  and  C_15
REMARK   12  A    between atoms: C_15  and  N_16
REMARK   13  A    between atoms: C_17  and  C_19
REMARK                            x       y       z     vdW  Elec       q    Type
REMARK                         _______ _______ _______ _____ _____    ______ ____
ROOT
ATOM     11  C   UNL     1      51.032   4.181  18.708  0.00  0.00    +0.000 A 
ATOM     12  C   UNL     1      50.863   3.253  17.672  0.00  0.00    +0.000 A 
ATOM     13  C   UNL     1      49.597   2.994  17.148  0.00  0.00    +0.000 A 
ATOM     14  C   UNL     1      48.470   3.657  17.648  0.00  0.00    +0.000 A 
ATOM     29  C   UNL     1      48.635   4.552  18.715  0.00  0.00    +0.000 A 
ATOM     30  C   UNL     1      49.908   4.845  19.213  0.00  0.00    +0.000 A 
ENDROOT
BRANCH  11  10
ATOM     10  C   UNL     1      52.397   4.398  19.307  0.00  0.00    +0.000 C 
BRANCH  10   9
ATOM      9  N   UNL     1      52.702   5.819  19.430  0.00  0.00    +0.000 NA
ATOM     31  H   UNL     1      51.855   6.364  19.287  0.00  0.00    +0.000 HD
BRANCH   9   8
ATOM      8  C   UNL     1      53.696   6.209  18.443  0.00  0.00    +0.000 C 
BRANCH   8   7
ATOM      7  C   UNL     1      53.101   7.284  17.547  0.00  0.00    +0.000 C 
BRANCH   7   6
ATOM      6  C   UNL     1      52.435   6.634  16.345  0.00  0.00    +0.000 C 
BRANCH   6   5
ATOM      5  C   UNL     1      51.252   7.466  15.878  0.00  0.00    +0.000 C 
BRANCH   5   4
ATOM      4  C   UNL     1      49.975   6.643  15.952  0.00  0.00    +0.000 C 
BRANCH   4   3
ATOM      3  C   UNL     1      48.852   7.471  16.555  0.00  0.00    +0.000 C 
BRANCH   3   2
ATOM      1  C   UNL     1      48.705   8.349  18.888  0.00  0.00    +0.000 C 
ATOM      2  C   UNL     1      49.407   8.482  17.550  0.00  0.00    +0.000 C 
ENDBRANCH   3   2
ENDBRANCH   4   3
ENDBRANCH   5   4
ENDBRANCH   6   5
ENDBRANCH   7   6
ENDBRANCH   8   7
ENDBRANCH   9   8
ENDBRANCH  10   9
ENDBRANCH  11  10
BRANCH  14  15
ATOM     15  C   UNL     1      47.117   3.450  17.014  0.00  0.00    +0.000 C 
BRANCH  15  16
ATOM     16  N   UNL     1      46.822   4.414  15.985  0.00  0.00    +0.000 N 
ATOM     17  C   UNL     1      46.977   4.115  14.649  0.00  0.00    +0.000 C 
ATOM     18  O   UNL     1      47.342   3.007  14.260  0.00  0.00    +0.000 OA
ATOM     32  H   UNL     1      46.680   5.374  16.276  0.00  0.00    +0.000 HD
BRANCH  17  19
ATOM     19  C   UNL     1      46.636   5.191  13.711  0.00  0.00    +0.000 A 
ATOM     20  C   UNL     1      47.569   6.170  13.402  0.00  0.00    +0.000 A 
ATOM     21  S   UNL     1      47.000   7.330  12.286  0.00  0.00    +0.000 S 
ATOM     22  C   UNL     1      45.472   6.583  12.203  0.00  0.00    +0.000 A 
ATOM     23  N   UNL     1      44.480   7.095  11.424  0.00  0.00    +0.000 NA
ATOM     24  C   UNL     1      43.382   6.418  11.454  0.00  0.00    +0.000 A 
ATOM     25  N   UNL     1      43.181   5.280  12.186  0.00  0.00    +0.000 N 
ATOM     26  C   UNL     1      44.151   4.730  12.994  0.00  0.00    +0.000 A 
ATOM     27  O   UNL     1      43.944   3.700  13.621  0.00  0.00    +0.000 OA
ATOM     28  C   UNL     1      45.408   5.450  12.996  0.00  0.00    +0.000 A 
ATOM     33  H   UNL     1      42.305   4.781  12.155  0.00  0.00    +0.000 HD
ENDBRANCH  17  19
ENDBRANCH  15  16
ENDBRANCH  14  15
TORSDOF 12
ENDMDL
MODEL 9
REMARK VINA RESULT:    -6.185      4.148     10.135
REMARK INTER + INTRA:         -12.007
REMARK INTER:                 -10.170
REMARK INTRA:                  -1.837
REMARK UNBOUND:                -1.483
REMARK  Name = 
REMARK  13 active torsions:
REMARK  status: ('A' for Active; 'I' for Inactive)
REMARK    1  A    between atoms: C_1  and  C_2
REMARK    2  A    between atoms: C_2  and  C_3
REMARK    3  A    between atoms: C_3  and  C_4
REMARK    4  A    between atoms: C_4  and  C_5
REMARK    5  A    between atoms: C_5  and  C_6
REMARK    6  A    between atoms: C_6  and  C_7
REMARK    7  A    between atoms: C_7  and  C_8
REMARK    8  A    between atoms: C_8  and  N_9
REMARK    9  A    between atoms: N_9  and  C_10
REMARK   10  A    between atoms: C_10  and  C_11
REMARK   11  A    between atoms: C_14  and  C_15
REMARK   12  A    between atoms: C_15  and  N_16
REMARK   13  A    between atoms: C_17  and  C_19
REMARK                            x       y       z     vdW  Elec       q    Type
REMARK                         _______ _______ _______ _____ _____    ______ ____
ROOT
ATOM     11  C   UNL     1      51.417   3.380  17.713  0.00  0.00    +0.000 A 
ATOM     12  C   UNL     1      50.694   4.581  17.724  0.00  0.00    +0.000 A 
ATOM     13  C   UNL     1      49.336   4.597  17.408  0.00  0.00    +0.000 A 
ATOM     14  C   UNL     1      48.669   3.412  17.074  0.00  0.00    +0.000 A 
ATOM     29  C   UNL     1      49.404   2.219  17.020  0.00  0.00    +0.000 A 
ATOM     30  C   UNL     1      50.755   2.194  17.377  0.00  0.00    +0.000 A 
ENDROOT
BRANCH  11  10
ATOM     10  C   UNL     1      52.898   3.392  17.991  0.00  0.00    +0.000 C 
BRANCH  10   9
ATOM      9  N   UNL     1      53.244   2.467  19.063  0.00  0.00    +0.000 NA
ATOM     31  H   UNL     1      52.396   2.052  19.443  0.00  0.00    +0.000 HD
BRANCH   9   8
ATOM      8  C   UNL     1      53.952   3.167  20.124  0.00  0.00    +0.000 C 
BRANCH   8   7
ATOM      7  C   UNL     1      52.969   4.066  20.859  0.00  0.00    +0.000 C 
BRANCH   7   6
ATOM      6  C   UNL     1      53.509   5.486  20.897  0.00  0.00    +0.000 C 
BRANCH   6   5
ATOM      5  C   UNL     1      52.367   6.488  20.926  0.00  0.00    +0.000 C 
BRANCH   5   4
ATOM      4  C   UNL     1      51.042   5.761  21.100  0.00  0.00    +0.000 C 
BRANCH   4   3
ATOM      3  C   UNL     1      49.912   6.582  20.499  0.00  0.00    +0.000 C 
BRANCH   3   2
ATOM      1  C   UNL     1      47.433   6.540  20.203  0.00  0.00    +0.000 C 
ATOM      2  C   UNL     1      48.581   6.211  21.139  0.00  0.00    +0.000 C 
ENDBRANCH   3   2
ENDBRANCH   4   3
ENDBRANCH   5   4
ENDBRANCH   6   5
ENDBRANCH   7   6
ENDBRANCH   8   7
ENDBRANCH   9   8
ENDBRANCH  10   9
ENDBRANCH  11  10
BRANCH  14  15
ATOM     15  C   UNL     1      47.180   3.415  16.831  0.00  0.00    +0.000 C 
BRANCH  15  16
ATOM     16  N   UNL     1      46.769   4.394  15.857  0.00  0.00    +0.000 N 
ATOM     17  C   UNL     1      46.848   4.145  14.504  0.00  0.00    +0.000 C 
ATOM     18  O   UNL     1      47.240   3.070  14.054  0.00  0.00    +0.000 OA
ATOM     32  H   UNL     1      46.600   5.335  16.189  0.00  0.00    +0.000 HD
BRANCH  17  19
ATOM     19  C   UNL     1      46.391   5.230  13.629  0.00  0.00    +0.000 A 
ATOM     20  C   UNL     1      47.201   6.334  13.403  0.00  0.00    +0.000 A 
ATOM     21  S   UNL     1      46.510   7.487  12.350  0.00  0.00    +0.000 S 
ATOM     22  C   UNL     1      45.087   6.566  12.185  0.00  0.00    +0.000 A 
ATOM     23  N   UNL     1      44.051   7.003  11.417  0.00  0.00    +0.000 NA
ATOM     24  C   UNL     1      43.045   6.197  11.380  0.00  0.00    +0.000 A 
ATOM     25  N   UNL     1      42.974   4.998  12.033  0.00  0.00    +0.000 N 
ATOM     26  C   UNL     1      43.992   4.518  12.827  0.00  0.00    +0.000 A 
ATOM     27  O   UNL     1      43.904   3.431  13.383  0.00  0.00    +0.000 OA
ATOM     28  C   UNL     1      45.152   5.384  12.903  0.00  0.00    +0.000 A 
ATOM     33  H   UNL     1      42.167   4.399  11.951  0.00  0.00    +0.000 HD
ENDBRANCH  17  19
ENDBRANCH  15  16
ENDBRANCH  14  15
TORSDOF 12
ENDMDL
