MODEL 1
REMARK VINA RESULT:    -8.376      0.000      0.000
REMARK INTER + INTRA:         -11.217
REMARK INTER:                 -10.335
REMARK INTRA:                  -0.882
REMARK UNBOUND:                -0.882
REMARK  Name = 
REMARK  4 active torsions:
REMARK  status: ('A' for Active; 'I' for Inactive)
REMARK    1  A    between atoms: C_2  and  C_4
REMARK    2  A    between atoms: N_8  and  C_9
REMARK    3  A    between atoms: C_9  and  C_10
REMARK    4  A    between atoms: C_14  and  N_15
REMARK                            x       y       z     vdW  Elec       q    Type
REMARK                         _______ _______ _______ _____ _____    ______ ____
ROOT
ATOM      9  C   UNL     1      44.054   4.715  11.442  0.00  0.00    +0.000 C 
ATOM     22  C   UNL     1      42.685   4.794  12.107  0.00  0.00    +0.000 C 
ATOM     23  C   UNL     1      43.023   5.733  10.996  0.00  0.00    +0.000 C 
ENDROOT
BRANCH   9   8
ATOM      4  C   UNL     1      46.608   2.720   7.343  0.00  0.00    +0.000 A 
ATOM      5  C   UNL     1      46.389   4.049   7.690  0.00  0.00    +0.000 A 
ATOM      6  C   UNL     1      45.607   4.337   8.814  0.00  0.00    +0.000 A 
ATOM      7  C   UNL     1      45.098   3.298   9.583  0.00  0.00    +0.000 A 
ATOM      8  N   UNL     1      44.290   3.479  10.700  0.00  0.00    +0.000 N 
ATOM     24  N   UNL     1      45.309   2.007   9.248  0.00  0.00    +0.000 NA
ATOM     25  C   UNL     1      46.033   1.742   8.132  0.00  0.00    +0.000 A 
ATOM     28  H   UNL     1      44.191   2.587  11.173  0.00  0.00    +0.000 HD
BRANCH   4   2
ATOM      1  N   UNL     1      47.242   3.060   5.024  0.00  0.00    +0.000 N 
ATOM      2  C   UNL     1      47.392   2.312   6.155  0.00  0.00    +0.000 C 
ATOM      3  O   UNL     1      48.165   1.362   6.196  0.00  0.00    +0.000 OA
ATOM     26  H   UNL     1      47.869   2.839   4.260  0.00  0.00    +0.000 HD
ATOM     27  H   UNL     1      46.838   3.985   5.039  0.00  0.00    +0.000 HD
ENDBRANCH   4   2
ENDBRANCH   9   8
BRANCH   9  10
ATOM     10  C   UNL     1      45.276   5.202  12.218  0.00  0.00    +0.000 A 
ATOM     11  C   UNL     1      45.828   4.452  13.266  0.00  0.00    +0.000 A 
ATOM     12  C   UNL     1      47.019   4.840  13.874  0.00  0.00    +0.000 A 
ATOM     13  C   UNL     1      47.691   5.977  13.424  0.00  0.00    +0.000 A 
ATOM     14  C   UNL     1      47.182   6.775  12.391  0.00  0.00    +0.000 A 
ATOM     21  C   UNL     1      45.956   6.380  11.837  0.00  0.00    +0.000 A 
BRANCH  14  15
ATOM     15  N   UNL     1      47.881   7.889  11.954  0.00  0.00    +0.000 N 
ATOM     16  C   UNL     1      49.300   7.832  11.576  0.00  0.00    +0.000 C 
ATOM     17  C   UNL     1      50.191   8.613  12.570  0.00  0.00    +0.000 C 
ATOM     18  N   UNL     1      49.745  10.003  12.791  0.00  0.00    +0.000 NA
ATOM     19  C   UNL     1      48.343   9.967  13.265  0.00  0.00    +0.000 C 
ATOM     20  C   UNL     1      47.372   9.227  12.315  0.00  0.00    +0.000 C 
ATOM     29  H   UNL     1      49.756  10.480  11.889  0.00  0.00    +0.000 HD
ENDBRANCH  14  15
ENDBRANCH   9  10
TORSDOF 4
ENDMDL
MODEL 2
REMARK VINA RESULT:    -8.315      1.964      3.052
REMARK INTER + INTRA:         -11.141
REMARK INTER:                 -10.305
REMARK INTRA:                  -0.836
REMARK UNBOUND:                -0.882
REMARK  Name = 
REMARK  4 active torsions:
REMARK  status: ('A' for Active; 'I' for Inactive)
REMARK    1  A    between atoms: C_2  and  C_4
REMARK    2  A    between atoms: N_8  and  C_9
REMARK    3  A    between atoms: C_9  and  C_10
REMARK    4  A    between atoms: C_14  and  N_15
REMARK                            x       y       z     vdW  Elec       q    Type
REMARK                         _______ _______ _______ _____ _____    ______ ____
ROOT
ATOM      9  C   UNL     1      44.004   4.864  11.662  0.00  0.00    +0.000 C 
ATOM     22  C   UNL     1      42.782   4.838  12.573  0.00  0.00    +0.000 C 
ATOM     23  C   UNL     1      42.782   5.707  11.358  0.00  0.00    +0.000 C 
ENDROOT
BRANCH   9   8
ATOM      4  C   UNL     1      46.433   2.776   7.532  0.00  0.00    +0.000 A 
ATOM      5  C   UNL     1      46.165   4.110   7.823  0.00  0.00    +0.000 A 
ATOM      6  C   UNL     1      45.430   4.420   8.973  0.00  0.00    +0.000 A 
ATOM      7  C   UNL     1      45.018   3.401   9.822  0.00  0.00    +0.000 A 
ATOM      8  N   UNL     1      44.263   3.602  10.972  0.00  0.00    +0.000 N 
ATOM     24  N   UNL     1      45.277   2.105   9.542  0.00  0.00    +0.000 NA
ATOM     25  C   UNL     1      45.952   1.816   8.402  0.00  0.00    +0.000 A 
ATOM     28  H   UNL     1      44.235   2.733  11.495  0.00  0.00    +0.000 HD
BRANCH   4   2
ATOM      1  N   UNL     1      47.069   3.134   5.217  0.00  0.00    +0.000 N 
ATOM      2  C   UNL     1      47.171   2.343   6.324  0.00  0.00    +0.000 C 
ATOM      3  O   UNL     1      47.867   1.336   6.329  0.00  0.00    +0.000 OA
ATOM     26  H   UNL     1      47.670   2.887   4.440  0.00  0.00    +0.000 HD
ATOM     27  H   UNL     1      46.739   4.087   5.263  0.00  0.00    +0.000 HD
ENDBRANCH   4   2
ENDBRANCH   9   8
BRANCH   9  10
ATOM     10  C   UNL     1      45.271   5.561  12.152  0.00  0.00    +0.000 A 
ATOM     11  C   UNL     1      45.644   6.826  11.676  0.00  0.00    +0.000 A 
ATOM     12  C   UNL     1      46.726   7.508  12.227  0.00  0.00    +0.000 A 
ATOM     13  C   UNL     1      47.439   6.942  13.285  0.00  0.00    +0.000 A 
ATOM     14  C   UNL     1      47.123   5.674  13.793  0.00  0.00    +0.000 A 
ATOM     21  C   UNL     1      46.059   4.998  13.180  0.00  0.00    +0.000 A 
BRANCH  14  15
ATOM     15  N   UNL     1      47.838   5.145  14.856  0.00  0.00    +0.000 N 
ATOM     16  C   UNL     1      47.434   3.909  15.541  0.00  0.00    +0.000 C 
ATOM     17  C   UNL     1      46.965   4.183  16.989  0.00  0.00    +0.000 C 
ATOM     18  N   UNL     1      47.941   4.951  17.787  0.00  0.00    +0.000 NA
ATOM     19  C   UNL     1      48.216   6.222  17.080  0.00  0.00    +0.000 C 
ATOM     20  C   UNL     1      48.720   6.042  15.628  0.00  0.00    +0.000 C 
ATOM     29  H   UNL     1      48.810   4.416  17.815  0.00  0.00    +0.000 HD
ENDBRANCH  14  15
ENDBRANCH   9  10
TORSDOF 4
ENDMDL
MODEL 3
REMARK VINA RESULT:    -6.595      3.531      5.959
REMARK INTER + INTRA:          -9.019
REMARK INTER:                  -8.563
REMARK INTRA:                  -0.456
REMARK UNBOUND:                -0.882
REMARK  Name = 
REMARK  4 active torsions:
REMARK  status: ('A' for Active; 'I' for Inactive)
REMARK    1  A    between atoms: C_2  and  C_4
REMARK    2  A    between atoms: N_8  and  C_9
REMARK    3  A    between atoms: C_9  and  C_10
REMARK    4  A    between atoms: C_14  and  N_15
REMARK                            x       y       z     vdW  Elec       q    Type
REMARK                         _______ _______ _______ _____ _____    ______ ____
ROOT
ATOM      9  C   UNL     1      48.115   8.307  13.500  0.00  0.00    +0.000 C 
ATOM     22  C   UNL     1      48.061   9.825  13.381  0.00  0.00    +0.000 C 
ATOM     23  C   UNL     1      48.549   9.010  12.229  0.00  0.00    +0.000 C 
ENDROOT
BRANCH   9   8
ATOM      4  C   UNL     1      44.783   5.105  11.059  0.00  0.00    +0.000 A 
ATOM      5  C   UNL     1      45.920   5.742  10.572  0.00  0.00    +0.000 A 
ATOM      6  C   UNL     1      46.620   6.617  11.409  0.00  0.00    +0.000 A 
ATOM      7  C   UNL     1      46.196   6.803  12.719  0.00  0.00    +0.000 A 
ATOM      8  N   UNL     1      46.806   7.669  13.620  0.00  0.00    +0.000 N 
ATOM     24  N   UNL     1      45.092   6.186  13.195  0.00  0.00    +0.000 NA
ATOM     25  C   UNL     1      44.399   5.374  12.359  0.00  0.00    +0.000 A 
ATOM     28  H   UNL     1      46.416   7.501  14.542  0.00  0.00    +0.000 HD
BRANCH   4   2
ATOM      1  N   UNL     1      43.988   4.360   8.890  0.00  0.00    +0.000 N 
ATOM      2  C   UNL     1      43.955   4.189  10.243  0.00  0.00    +0.000 C 
ATOM      3  O   UNL     1      43.293   3.297  10.759  0.00  0.00    +0.000 OA
ATOM     26  H   UNL     1      43.510   3.656   8.342  0.00  0.00    +0.000 HD
ATOM     27  H   UNL     1      44.716   4.889   8.430  0.00  0.00    +0.000 HD
ENDBRANCH   4   2
ENDBRANCH   9   8
BRANCH   9  10
ATOM     10  C   UNL     1      49.183   7.677  14.391  0.00  0.00    +0.000 A 
ATOM     11  C   UNL     1      50.532   8.049  14.296  0.00  0.00    +0.000 A 
ATOM     12  C   UNL     1      51.473   7.568  15.203  0.00  0.00    +0.000 A 
ATOM     13  C   UNL     1      51.072   6.722  16.238  0.00  0.00    +0.000 A 
ATOM     14  C   UNL     1      49.741   6.304  16.376  0.00  0.00    +0.000 A 
ATOM     21  C   UNL     1      48.832   6.770  15.415  0.00  0.00    +0.000 A 
BRANCH  14  15
ATOM     15  N   UNL     1      49.369   5.477  17.424  0.00  0.00    +0.000 N 
ATOM     16  C   UNL     1      50.004   4.173  17.664  0.00  0.00    +0.000 C 
ATOM     17  C   UNL     1      49.027   3.003  17.404  0.00  0.00    +0.000 C 
ATOM     18  N   UNL     1      47.753   3.127  18.137  0.00  0.00    +0.000 NA
ATOM     19  C   UNL     1      47.130   4.417  17.763  0.00  0.00    +0.000 C 
ATOM     20  C   UNL     1      48.029   5.651  18.018  0.00  0.00    +0.000 C 
ATOM     29  H   UNL     1      47.969   3.164  19.134  0.00  0.00    +0.000 HD
ENDBRANCH  14  15
ENDBRANCH   9  10
TORSDOF 4
ENDMDL
MODEL 4
REMARK VINA RESULT:    -6.456      4.013      6.641
REMARK INTER + INTRA:          -8.848
REMARK INTER:                  -7.961
REMARK INTRA:                  -0.887
REMARK UNBOUND:                -0.882
REMARK  Name = 
REMARK  4 active torsions:
REMARK  status: ('A' for Active; 'I' for Inactive)
REMARK    1  A    between atoms: C_2  and  C_4
REMARK    2  A    between atoms: N_8  and  C_9
REMARK    3  A    between atoms: C_9  and  C_10
REMARK    4  A    between atoms: C_14  and  N_15
REMARK                            x       y       z     vdW  Elec       q    Type
REMARK                         _______ _______ _______ _____ _____    ______ ____
ROOT
ATOM      9  C   UNL     1      48.544   8.077  13.616  0.00  0.00    +0.000 C 
ATOM     22  C   UNL     1      49.414   9.111  12.912  0.00  0.00    +0.000 C 
ATOM     23  C   UNL     1      49.724   7.658  12.763  0.00  0.00    +0.000 C 
ENDROOT
BRANCH   9   8
ATOM      4  C   UNL     1      44.698   4.761  12.381  0.00  0.00    +0.000 A 
ATOM      5  C   UNL     1      46.043   4.507  12.630  0.00  0.00    +0.000 A 
ATOM      6  C   UNL     1      46.903   5.582  12.877  0.00  0.00    +0.000 A 
ATOM      7  C   UNL     1      46.397   6.875  12.910  0.00  0.00    +0.000 A 
ATOM      8  N   UNL     1      47.171   8.010  13.120  0.00  0.00    +0.000 N 
ATOM     24  N   UNL     1      45.091   7.125  12.668  0.00  0.00    +0.000 NA
ATOM     25  C   UNL     1      44.277   6.077  12.388  0.00  0.00    +0.000 A 
ATOM     28  H   UNL     1      46.551   8.802  13.261  0.00  0.00    +0.000 HD
BRANCH   4   2
ATOM      1  N   UNL     1      43.946   2.465  12.614  0.00  0.00    +0.000 N 
ATOM      2  C   UNL     1      43.715   3.697  12.076  0.00  0.00    +0.000 C 
ATOM      3  O   UNL     1      42.722   3.922  11.395  0.00  0.00    +0.000 OA
ATOM     26  H   UNL     1      43.207   1.782  12.492  0.00  0.00    +0.000 HD
ATOM     27  H   UNL     1      44.585   2.323  13.383  0.00  0.00    +0.000 HD
ENDBRANCH   4   2
ENDBRANCH   9   8
BRANCH   9  10
ATOM     10  C   UNL     1      48.650   7.938  15.133  0.00  0.00    +0.000 A 
ATOM     11  C   UNL     1      48.246   8.966  15.996  0.00  0.00    +0.000 A 
ATOM     12  C   UNL     1      48.221   8.776  17.375  0.00  0.00    +0.000 A 
ATOM     13  C   UNL     1      48.579   7.540  17.913  0.00  0.00    +0.000 A 
ATOM     14  C   UNL     1      49.006   6.478  17.103  0.00  0.00    +0.000 A 
ATOM     21  C   UNL     1      49.065   6.723  15.724  0.00  0.00    +0.000 A 
BRANCH  14  15
ATOM     15  N   UNL     1      49.339   5.256  17.665  0.00  0.00    +0.000 N 
ATOM     16  C   UNL     1      48.872   3.978  17.107  0.00  0.00    +0.000 C 
ATOM     17  C   UNL     1      47.869   3.273  18.050  0.00  0.00    +0.000 C 
ATOM     18  N   UNL     1      48.373   3.111  19.428  0.00  0.00    +0.000 NA
ATOM     19  C   UNL     1      48.724   4.450  19.950  0.00  0.00    +0.000 C 
ATOM     20  C   UNL     1      49.749   5.220  19.082  0.00  0.00    +0.000 C 
ATOM     29  H   UNL     1      49.230   2.559  19.383  0.00  0.00    +0.000 HD
ENDBRANCH  14  15
ENDBRANCH   9  10
TORSDOF 4
ENDMDL
MODEL 5
REMARK VINA RESULT:    -6.414      4.721      8.743
REMARK INTER + INTRA:          -8.796
REMARK INTER:                  -7.929
REMARK INTRA:                  -0.868
REMARK UNBOUND:                -0.882
REMARK  Name = 
REMARK  4 active torsions:
REMARK  status: ('A' for Active; 'I' for Inactive)
REMARK    1  A    between atoms: C_2  and  C_4
REMARK    2  A    between atoms: N_8  and  C_9
REMARK    3  A    between atoms: C_9  and  C_10
REMARK    4  A    between atoms: C_14  and  N_15
REMARK                            x       y       z     vdW  Elec       q    Type
REMARK                         _______ _______ _______ _____ _____    ______ ____
ROOT
ATOM      9  C   UNL     1      49.138   7.806  14.117  0.00  0.00    +0.000 C 
ATOM     22  C   UNL     1      50.225   8.319  13.180  0.00  0.00    +0.000 C 
ATOM     23  C   UNL     1      49.759   9.176  14.310  0.00  0.00    +0.000 C 
ENDROOT
BRANCH   9   8
ATOM      4  C   UNL     1      48.649   5.653  18.854  0.00  0.00    +0.000 A 
ATOM      5  C   UNL     1      48.317   6.934  18.423  0.00  0.00    +0.000 A 
ATOM      6  C   UNL     1      48.609   7.304  17.105  0.00  0.00    +0.000 A 
ATOM      7  C   UNL     1      49.186   6.380  16.242  0.00  0.00    +0.000 A 
ATOM      8  N   UNL     1      49.538   6.657  14.926  0.00  0.00    +0.000 N 
ATOM     24  N   UNL     1      49.509   5.136  16.659  0.00  0.00    +0.000 NA
ATOM     25  C   UNL     1      49.260   4.805  17.950  0.00  0.00    +0.000 A 
ATOM     28  H   UNL     1      49.781   5.785  14.468  0.00  0.00    +0.000 HD
BRANCH   4   2
ATOM      1  N   UNL     1      48.554   3.840  20.465  0.00  0.00    +0.000 N 
ATOM      2  C   UNL     1      48.413   5.177  20.235  0.00  0.00    +0.000 C 
ATOM      3  O   UNL     1      48.134   5.955  21.139  0.00  0.00    +0.000 OA
ATOM     26  H   UNL     1      48.503   3.549  21.433  0.00  0.00    +0.000 HD
ATOM     27  H   UNL     1      49.040   3.230  19.823  0.00  0.00    +0.000 HD
ENDBRANCH   4   2
ENDBRANCH   9   8
BRANCH   9  10
ATOM     10  C   UNL     1      47.704   7.718  13.600  0.00  0.00    +0.000 A 
ATOM     11  C   UNL     1      46.903   8.859  13.457  0.00  0.00    +0.000 A 
ATOM     12  C   UNL     1      45.648   8.782  12.859  0.00  0.00    +0.000 A 
ATOM     13  C   UNL     1      45.183   7.560  12.371  0.00  0.00    +0.000 A 
ATOM     14  C   UNL     1      45.932   6.382  12.499  0.00  0.00    +0.000 A 
ATOM     21  C   UNL     1      47.169   6.490  13.150  0.00  0.00    +0.000 A 
BRANCH  14  15
ATOM     15  N   UNL     1      45.452   5.186  11.990  0.00  0.00    +0.000 N 
ATOM     16  C   UNL     1      44.930   5.064  10.621  0.00  0.00    +0.000 C 
ATOM     17  C   UNL     1      43.407   4.796  10.609  0.00  0.00    +0.000 C 
ATOM     18  N   UNL     1      43.007   3.647  11.446  0.00  0.00    +0.000 NA
ATOM     19  C   UNL     1      43.481   3.895  12.826  0.00  0.00    +0.000 C 
ATOM     20  C   UNL     1      45.004   4.146  12.937  0.00  0.00    +0.000 C 
ATOM     29  H   UNL     1      43.492   2.821  11.094  0.00  0.00    +0.000 HD
ENDBRANCH  14  15
ENDBRANCH   9  10
TORSDOF 4
ENDMDL
MODEL 6
REMARK VINA RESULT:    -6.413      4.449      8.383
REMARK INTER + INTRA:          -8.794
REMARK INTER:                  -8.426
REMARK INTRA:                  -0.369
REMARK UNBOUND:                -0.882
REMARK  Name = 
REMARK  4 active torsions:
REMARK  status: ('A' for Active; 'I' for Inactive)
REMARK    1  A    between atoms: C_2  and  C_4
REMARK    2  A    between atoms: N_8  and  C_9
REMARK    3  A    between atoms: C_9  and  C_10
REMARK    4  A    between atoms: C_14  and  N_15
REMARK                            x       y       z     vdW  Elec       q    Type
REMARK                         _______ _______ _______ _____ _____    ______ ____
ROOT
ATOM      9  C   UNL     1      47.970   6.814  13.386  0.00  0.00    +0.000 C 
ATOM     22  C   UNL     1      49.235   6.994  12.556  0.00  0.00    +0.000 C 
ATOM     23  C   UNL     1      48.911   7.976  13.634  0.00  0.00    +0.000 C 
ENDROOT
BRANCH   9   8
ATOM      4  C   UNL     1      48.492   5.198  18.329  0.00  0.00    +0.000 A 
ATOM      5  C   UNL     1      48.772   6.440  17.768  0.00  0.00    +0.000 A 
ATOM      6  C   UNL     1      48.612   6.613  16.388  0.00  0.00    +0.000 A 
ATOM      7  C   UNL     1      48.142   5.561  15.612  0.00  0.00    +0.000 A 
ATOM      8  N   UNL     1      47.975   5.623  14.234  0.00  0.00    +0.000 N 
ATOM     24  N   UNL     1      47.870   4.354  16.156  0.00  0.00    +0.000 NA
ATOM     25  C   UNL     1      48.069   4.188  17.487  0.00  0.00    +0.000 A 
ATOM     28  H   UNL     1      47.470   4.796  13.933  0.00  0.00    +0.000 HD
BRANCH   4   2
ATOM      1  N   UNL     1      48.461   3.615  20.170  0.00  0.00    +0.000 N 
ATOM      2  C   UNL     1      48.661   4.904  19.770  0.00  0.00    +0.000 C 
ATOM      3  O   UNL     1      48.997   5.775  20.564  0.00  0.00    +0.000 OA
ATOM     26  H   UNL     1      48.693   3.409  21.134  0.00  0.00    +0.000 HD
ATOM     27  H   UNL     1      48.457   2.843  19.519  0.00  0.00    +0.000 HD
ENDBRANCH   4   2
ENDBRANCH   9   8
BRANCH   9  10
ATOM     10  C   UNL     1      46.617   7.092  12.736  0.00  0.00    +0.000 A 
ATOM     11  C   UNL     1      46.164   8.400  12.513  0.00  0.00    +0.000 A 
ATOM     12  C   UNL     1      44.994   8.641  11.799  0.00  0.00    +0.000 A 
ATOM     13  C   UNL     1      44.267   7.572  11.274  0.00  0.00    +0.000 A 
ATOM     14  C   UNL     1      44.661   6.242  11.476  0.00  0.00    +0.000 A 
ATOM     21  C   UNL     1      45.818   6.038  12.241  0.00  0.00    +0.000 A 
BRANCH  14  15
ATOM     15  N   UNL     1      43.929   5.201  10.927  0.00  0.00    +0.000 N 
ATOM     16  C   UNL     1      42.936   4.442  11.700  0.00  0.00    +0.000 C 
ATOM     17  C   UNL     1      43.387   2.982  11.939  0.00  0.00    +0.000 C 
ATOM     18  N   UNL     1      43.765   2.274  10.700  0.00  0.00    +0.000 NA
ATOM     19  C   UNL     1      44.838   3.049  10.036  0.00  0.00    +0.000 C 
ATOM     20  C   UNL     1      44.461   4.519   9.731  0.00  0.00    +0.000 C 
ATOM     29  H   UNL     1      42.953   2.274  10.081  0.00  0.00    +0.000 HD
ENDBRANCH  14  15
ENDBRANCH   9  10
TORSDOF 4
ENDMDL
MODEL 7
REMARK VINA RESULT:    -6.388      4.273      8.135
REMARK INTER + INTRA:          -8.764
REMARK INTER:                  -8.963
REMARK INTRA:                   0.199
REMARK UNBOUND:                -0.882
REMARK  Name = 
REMARK  4 active torsions:
REMARK  status: ('A' for Active; 'I' for Inactive)
REMARK    1  A    between atoms: C_2  and  C_4
REMARK    2  A    between atoms: N_8  and  C_9
REMARK    3  A    between atoms: C_9  and  C_10
REMARK    4  A    between atoms: C_14  and  N_15
REMARK                            x       y       z     vdW  Elec       q    Type
REMARK                         _______ _______ _______ _____ _____    ______ ____
ROOT
ATOM      9  C   UNL     1      46.564   5.362  13.286  0.00  0.00    +0.000 C 
ATOM     22  C   UNL     1      47.646   6.160  12.568  0.00  0.00    +0.000 C 
ATOM     23  C   UNL     1      46.804   6.823  13.609  0.00  0.00    +0.000 C 
ENDROOT
BRANCH   9   8
ATOM      4  C   UNL     1      48.622   4.371  17.986  0.00  0.00    +0.000 A 
ATOM      5  C   UNL     1      48.430   5.588  17.341  0.00  0.00    +0.000 A 
ATOM      6  C   UNL     1      47.915   5.593  16.040  0.00  0.00    +0.000 A 
ATOM      7  C   UNL     1      47.568   4.393  15.432  0.00  0.00    +0.000 A 
ATOM      8  N   UNL     1      47.076   4.289  14.136  0.00  0.00    +0.000 N 
ATOM     24  N   UNL     1      47.754   3.210  16.057  0.00  0.00    +0.000 NA
ATOM     25  C   UNL     1      48.294   3.217  17.301  0.00  0.00    +0.000 A 
ATOM     28  H   UNL     1      46.748   3.340  13.991  0.00  0.00    +0.000 HD
BRANCH   4   2
ATOM      1  N   UNL     1      48.459   3.575  20.274  0.00  0.00    +0.000 N 
ATOM      2  C   UNL     1      49.192   4.257  19.348  0.00  0.00    +0.000 C 
ATOM      3  O   UNL     1      50.289   4.729  19.622  0.00  0.00    +0.000 OA
ATOM     26  H   UNL     1      48.913   3.407  21.163  0.00  0.00    +0.000 HD
ATOM     27  H   UNL     1      47.705   2.955  20.015  0.00  0.00    +0.000 HD
ENDBRANCH   4   2
ENDBRANCH   9   8
BRANCH   9  10
ATOM     10  C   UNL     1      45.301   4.980  12.517  0.00  0.00    +0.000 A 
ATOM     11  C   UNL     1      44.034   5.425  12.919  0.00  0.00    +0.000 A 
ATOM     12  C   UNL     1      42.908   5.182  12.136  0.00  0.00    +0.000 A 
ATOM     13  C   UNL     1      43.038   4.509  10.921  0.00  0.00    +0.000 A 
ATOM     14  C   UNL     1      44.277   4.026  10.473  0.00  0.00    +0.000 A 
ATOM     21  C   UNL     1      45.378   4.247  11.312  0.00  0.00    +0.000 A 
BRANCH  14  15
ATOM     15  N   UNL     1      44.378   3.376   9.254  0.00  0.00    +0.000 N 
ATOM     16  C   UNL     1      44.506   1.915   9.147  0.00  0.00    +0.000 C 
ATOM     17  C   UNL     1      45.898   1.497   8.619  0.00  0.00    +0.000 C 
ATOM     18  N   UNL     1      46.272   2.167   7.358  0.00  0.00    +0.000 NA
ATOM     19  C   UNL     1      46.217   3.630   7.579  0.00  0.00    +0.000 C 
ATOM     20  C   UNL     1      44.847   4.143   8.083  0.00  0.00    +0.000 C 
ATOM     29  H   UNL     1      45.567   1.932   6.658  0.00  0.00    +0.000 HD
ENDBRANCH  14  15
ENDBRANCH   9  10
TORSDOF 4
ENDMDL
MODEL 8
REMARK VINA RESULT:    -6.351      5.550      8.482
REMARK INTER + INTRA:          -8.718
REMARK INTER:                  -8.198
REMARK INTRA:                  -0.520
REMARK UNBOUND:                -0.882
REMARK  Name = 
REMARK  4 active torsions:
REMARK  status: ('A' for Active; 'I' for Inactive)
REMARK    1  A    between atoms: C_2  and  C_4
REMARK    2  A    between atoms: N_8  and  C_9
REMARK    3  A    between atoms: C_9  and  C_10
REMARK    4  A    between atoms: C_14  and  N_15
REMARK                            x       y       z     vdW  Elec       q    Type
REMARK                         _______ _______ _______ _____ _____    ______ ____
ROOT
ATOM      9  C   UNL     1      48.231   4.823  17.111  0.00  0.00    +0.000 C 
ATOM     22  C   UNL     1      47.162   5.070  18.169  0.00  0.00    +0.000 C 
ATOM     23  C   UNL     1      47.200   3.764  17.446  0.00  0.00    +0.000 C 
ENDROOT
BRANCH   9   8
ATOM      4  C   UNL     1      52.369   1.682  17.680  0.00  0.00    +0.000 A 
ATOM      5  C   UNL     1      51.062   1.371  17.318  0.00  0.00    +0.000 A 
ATOM      6  C   UNL     1      50.102   2.389  17.299  0.00  0.00    +0.000 A 
ATOM      7  C   UNL     1      50.475   3.692  17.602  0.00  0.00    +0.000 A 
ATOM      8  N   UNL     1      49.593   4.767  17.638  0.00  0.00    +0.000 N 
ATOM     24  N   UNL     1      51.743   3.997  17.954  0.00  0.00    +0.000 NA
ATOM     25  C   UNL     1      52.654   2.994  18.010  0.00  0.00    +0.000 A 
ATOM     28  H   UNL     1      50.132   5.623  17.718  0.00  0.00    +0.000 HD
BRANCH   4   2
ATOM      1  N   UNL     1      53.149  -0.508  18.377  0.00  0.00    +0.000 N 
ATOM      2  C   UNL     1      53.449   0.673  17.764  0.00  0.00    +0.000 C 
ATOM      3  O   UNL     1      54.553   0.878  17.275  0.00  0.00    +0.000 OA
ATOM     26  H   UNL     1      53.859  -1.228  18.323  0.00  0.00    +0.000 HD
ATOM     27  H   UNL     1      52.198  -0.807  18.538  0.00  0.00    +0.000 HD
ENDBRANCH   4   2
ENDBRANCH   9   8
BRANCH   9  10
ATOM     10  C   UNL     1      48.124   5.553  15.775  0.00  0.00    +0.000 A 
ATOM     11  C   UNL     1      49.020   6.572  15.421  0.00  0.00    +0.000 A 
ATOM     12  C   UNL     1      48.996   7.136  14.148  0.00  0.00    +0.000 A 
ATOM     13  C   UNL     1      48.088   6.670  13.197  0.00  0.00    +0.000 A 
ATOM     14  C   UNL     1      47.157   5.664  13.497  0.00  0.00    +0.000 A 
ATOM     21  C   UNL     1      47.179   5.156  14.803  0.00  0.00    +0.000 A 
BRANCH  14  15
ATOM     15  N   UNL     1      46.278   5.209  12.527  0.00  0.00    +0.000 N 
ATOM     16  C   UNL     1      45.891   6.025  11.367  0.00  0.00    +0.000 C 
ATOM     17  C   UNL     1      44.404   6.443  11.429  0.00  0.00    +0.000 C 
ATOM     18  N   UNL     1      43.482   5.306  11.623  0.00  0.00    +0.000 NA
ATOM     19  C   UNL     1      43.877   4.599  12.862  0.00  0.00    +0.000 C 
ATOM     20  C   UNL     1      45.347   4.118  12.876  0.00  0.00    +0.000 C 
ATOM     29  H   UNL     1      43.614   4.662  10.842  0.00  0.00    +0.000 HD
ENDBRANCH  14  15
ENDBRANCH   9  10
TORSDOF 4
ENDMDL
MODEL 9
REMARK VINA RESULT:    -6.296      3.566      7.586
REMARK INTER + INTRA:          -8.650
REMARK INTER:                  -8.660
REMARK INTRA:                   0.010
REMARK UNBOUND:                -0.882
REMARK  Name = 
REMARK  4 active torsions:
REMARK  status: ('A' for Active; 'I' for Inactive)
REMARK    1  A    between atoms: C_2  and  C_4
REMARK    2  A    between atoms: N_8  and  C_9
REMARK    3  A    between atoms: C_9  and  C_10
REMARK    4  A    between atoms: C_14  and  N_15
REMARK                            x       y       z     vdW  Elec       q    Type
REMARK                         _______ _______ _______ _____ _____    ______ ____
ROOT
ATOM      9  C   UNL     1      48.609   8.124  12.703  0.00  0.00    +0.000 C 
ATOM     22  C   UNL     1      49.516   7.338  11.764  0.00  0.00    +0.000 C 
ATOM     23  C   UNL     1      49.642   8.824  11.844  0.00  0.00    +0.000 C 
ENDROOT
BRANCH   9   8
ATOM      4  C   UNL     1      47.847   4.580  16.468  0.00  0.00    +0.000 A 
ATOM      5  C   UNL     1      47.290   4.656  15.195  0.00  0.00    +0.000 A 
ATOM      6  C   UNL     1      47.601   5.751  14.382  0.00  0.00    +0.000 A 
ATOM      7  C   UNL     1      48.487   6.719  14.840  0.00  0.00    +0.000 A 
ATOM      8  N   UNL     1      48.839   7.856  14.121  0.00  0.00    +0.000 N 
ATOM     24  N   UNL     1      49.029   6.647  16.075  0.00  0.00    +0.000 NA
ATOM     25  C   UNL     1      48.686   5.602  16.869  0.00  0.00    +0.000 A 
ATOM     28  H   UNL     1      49.614   8.309  14.594  0.00  0.00    +0.000 HD
BRANCH   4   2
ATOM      1  N   UNL     1      48.528   3.161  18.316  0.00  0.00    +0.000 N 
ATOM      2  C   UNL     1      47.554   3.481  17.416  0.00  0.00    +0.000 C 
ATOM      3  O   UNL     1      46.473   2.906  17.411  0.00  0.00    +0.000 OA
ATOM     26  H   UNL     1      48.269   2.489  19.029  0.00  0.00    +0.000 HD
ATOM     27  H   UNL     1      49.298   3.781  18.522  0.00  0.00    +0.000 HD
ENDBRANCH   4   2
ENDBRANCH   9   8
BRANCH   9  10
ATOM     10  C   UNL     1      47.133   8.275  12.343  0.00  0.00    +0.000 A 
ATOM     11  C   UNL     1      46.521   9.534  12.264  0.00  0.00    +0.000 A 
ATOM     12  C   UNL     1      45.213   9.666  11.805  0.00  0.00    +0.000 A 
ATOM     13  C   UNL     1      44.503   8.539  11.393  0.00  0.00    +0.000 A 
ATOM     14  C   UNL     1      45.055   7.252  11.463  0.00  0.00    +0.000 A 
ATOM     21  C   UNL     1      46.356   7.153  11.977  0.00  0.00    +0.000 A 
BRANCH  14  15
ATOM     15  N   UNL     1      44.332   6.152  11.030  0.00  0.00    +0.000 N 
ATOM     16  C   UNL     1      42.921   5.945  11.388  0.00  0.00    +0.000 C 
ATOM     17  C   UNL     1      42.740   4.732  12.331  0.00  0.00    +0.000 C 
ATOM     18  N   UNL     1      43.356   3.493  11.818  0.00  0.00    +0.000 NA
ATOM     19  C   UNL     1      44.793   3.757  11.580  0.00  0.00    +0.000 C 
ATOM     20  C   UNL     1      45.069   4.940  10.622  0.00  0.00    +0.000 C 
ATOM     29  H   UNL     1      42.925   3.281  10.917  0.00  0.00    +0.000 HD
ENDBRANCH  14  15
ENDBRANCH   9  10
TORSDOF 4
ENDMDL
