MODEL 1
REMARK VINA RESULT:    -7.438      0.000      0.000
REMARK INTER + INTRA:          -9.162
REMARK INTER:                  -8.742
REMARK INTRA:                  -0.420
REMARK UNBOUND:                -0.420
REMARK  Name = 
REMARK  3 active torsions:
REMARK  status: ('A' for Active; 'I' for Inactive)
REMARK    1  A    between atoms: C_2  and  C_4
REMARK    2  A    between atoms: N_11  and  C_12
REMARK    3  A    between atoms: C_12  and  C_13
REMARK                            x       y       z     vdW  Elec       q    Type
REMARK                         _______ _______ _______ _____ _____    ______ ____
ROOT
ATOM      4  C   UNL     1      46.523   2.922   7.383  0.00  0.00    +0.000 A 
ATOM      5  C   UNL     1      46.629   4.289   7.624  0.00  0.00    +0.000 A 
ATOM      6  N   UNL     1      45.985   4.975   8.602  0.00  0.00    +0.000 NA
ATOM      7  C   UNL     1      45.214   4.186   9.382  0.00  0.00    +0.000 A 
ATOM      8  C   UNL     1      45.035   2.809   9.259  0.00  0.00    +0.000 A 
ATOM      9  C   UNL     1      44.135   2.414  10.284  0.00  0.00    +0.000 A 
ATOM     10  C   UNL     1      43.767   3.549  10.976  0.00  0.00    +0.000 A 
ATOM     11  N   UNL     1      44.446   4.618  10.438  0.00  0.00    +0.000 N 
ATOM     21  C   UNL     1      45.720   2.148   8.225  0.00  0.00    +0.000 A 
ENDROOT
BRANCH   4   2
ATOM      1  N   UNL     1      47.209   3.008   5.050  0.00  0.00    +0.000 N 
ATOM      2  C   UNL     1      47.271   2.346   6.244  0.00  0.00    +0.000 C 
ATOM      3  O   UNL     1      47.955   1.339   6.372  0.00  0.00    +0.000 OA
ATOM     22  H   UNL     1      47.806   2.660   4.310  0.00  0.00    +0.000 HD
ATOM     23  H   UNL     1      46.862   3.952   4.963  0.00  0.00    +0.000 HD
ENDBRANCH   4   2
BRANCH  11  12
ATOM     12  C   UNL     1      44.267   6.016  10.811  0.00  0.00    +0.000 C 
BRANCH  12  13
ATOM     13  C   UNL     1      45.330   6.573  11.744  0.00  0.00    +0.000 C 
ATOM     14  O   UNL     1      46.213   5.869  12.235  0.00  0.00    +0.000 OA
ATOM     15  N   UNL     1      45.247   7.934  12.040  0.00  0.00    +0.000 N 
ATOM     16  C   UNL     1      44.210   8.862  11.572  0.00  0.00    +0.000 C 
ATOM     17  C   UNL     1      44.822  10.185  11.067  0.00  0.00    +0.000 C 
ATOM     18  N   UNL     1      45.753  10.810  12.024  0.00  0.00    +0.000 NA
ATOM     19  C   UNL     1      46.795   9.835  12.408  0.00  0.00    +0.000 C 
ATOM     20  C   UNL     1      46.211   8.528  12.973  0.00  0.00    +0.000 C 
ATOM     24  H   UNL     1      45.235  11.073  12.863  0.00  0.00    +0.000 HD
ENDBRANCH  12  13
ENDBRANCH  11  12
TORSDOF 3
ENDMDL
MODEL 2
REMARK VINA RESULT:    -7.100      2.156      6.736
REMARK INTER + INTRA:          -8.765
REMARK INTER:                  -8.333
REMARK INTRA:                  -0.432
REMARK UNBOUND:                -0.420
REMARK  Name = 
REMARK  3 active torsions:
REMARK  status: ('A' for Active; 'I' for Inactive)
REMARK    1  A    between atoms: C_2  and  C_4
REMARK    2  A    between atoms: N_11  and  C_12
REMARK    3  A    between atoms: C_12  and  C_13
REMARK                            x       y       z     vdW  Elec       q    Type
REMARK                         _______ _______ _______ _____ _____    ______ ____
ROOT
ATOM      4  C   UNL     1      46.461   6.684  12.700  0.00  0.00    +0.000 A 
ATOM      5  C   UNL     1      46.628   6.631  11.319  0.00  0.00    +0.000 A 
ATOM      6  N   UNL     1      45.938   5.833  10.466  0.00  0.00    +0.000 NA
ATOM      7  C   UNL     1      45.008   5.073  11.087  0.00  0.00    +0.000 A 
ATOM      8  C   UNL     1      44.730   5.044  12.452  0.00  0.00    +0.000 A 
ATOM      9  C   UNL     1      43.691   4.095  12.644  0.00  0.00    +0.000 A 
ATOM     10  C   UNL     1      43.389   3.553  11.412  0.00  0.00    +0.000 A 
ATOM     11  N   UNL     1      44.175   4.171  10.468  0.00  0.00    +0.000 N 
ATOM     21  C   UNL     1      45.479   5.885  13.293  0.00  0.00    +0.000 A 
ENDROOT
BRANCH   4   2
ATOM      1  N   UNL     1      46.755   8.706  14.021  0.00  0.00    +0.000 N 
ATOM      2  C   UNL     1      47.331   7.589  13.482  0.00  0.00    +0.000 C 
ATOM      3  O   UNL     1      48.511   7.331  13.678  0.00  0.00    +0.000 OA
ATOM     22  H   UNL     1      47.336   9.260  14.637  0.00  0.00    +0.000 HD
ATOM     23  H   UNL     1      45.755   8.830  14.088  0.00  0.00    +0.000 HD
ENDBRANCH   4   2
BRANCH  11  12
ATOM     12  C   UNL     1      44.244   3.820   9.054  0.00  0.00    +0.000 C 
BRANCH  12  13
ATOM     13  C   UNL     1      44.978   2.524   8.749  0.00  0.00    +0.000 C 
ATOM     14  O   UNL     1      44.609   1.435   9.190  0.00  0.00    +0.000 OA
ATOM     15  N   UNL     1      46.120   2.628   7.953  0.00  0.00    +0.000 N 
ATOM     16  C   UNL     1      46.697   3.869   7.422  0.00  0.00    +0.000 C 
ATOM     17  C   UNL     1      47.073   3.726   5.933  0.00  0.00    +0.000 C 
ATOM     18  N   UNL     1      47.905   2.543   5.644  0.00  0.00    +0.000 NA
ATOM     19  C   UNL     1      47.237   1.331   6.161  0.00  0.00    +0.000 C 
ATOM     20  C   UNL     1      46.905   1.424   7.660  0.00  0.00    +0.000 C 
ATOM     24  H   UNL     1      48.800   2.646   6.124  0.00  0.00    +0.000 HD
ENDBRANCH  12  13
ENDBRANCH  11  12
TORSDOF 3
ENDMDL
MODEL 3
REMARK VINA RESULT:    -6.902      1.937      2.633
REMARK INTER + INTRA:          -8.532
REMARK INTER:                  -8.937
REMARK INTRA:                   0.405
REMARK UNBOUND:                -0.420
REMARK  Name = 
REMARK  3 active torsions:
REMARK  status: ('A' for Active; 'I' for Inactive)
REMARK    1  A    between atoms: C_2  and  C_4
REMARK    2  A    between atoms: N_11  and  C_12
REMARK    3  A    between atoms: C_12  and  C_13
REMARK                            x       y       z     vdW  Elec       q    Type
REMARK                         _______ _______ _______ _____ _____    ______ ____
ROOT
ATOM      4  C   UNL     1      46.400   3.240   7.458  0.00  0.00    +0.000 A 
ATOM      5  C   UNL     1      46.392   4.569   7.872  0.00  0.00    +0.000 A 
ATOM      6  N   UNL     1      45.709   5.066   8.934  0.00  0.00    +0.000 NA
ATOM      7  C   UNL     1      45.024   4.119   9.613  0.00  0.00    +0.000 A 
ATOM      8  C   UNL     1      44.962   2.759   9.316  0.00  0.00    +0.000 A 
ATOM      9  C   UNL     1      44.120   2.159  10.289  0.00  0.00    +0.000 A 
ATOM     10  C   UNL     1      43.668   3.161  11.123  0.00  0.00    +0.000 A 
ATOM     11  N   UNL     1      44.242   4.344  10.721  0.00  0.00    +0.000 N 
ATOM     21  C   UNL     1      45.683   2.297   8.201  0.00  0.00    +0.000 A 
ENDROOT
BRANCH   4   2
ATOM      1  N   UNL     1      48.482   2.522   6.424  0.00  0.00    +0.000 N 
ATOM      2  C   UNL     1      47.174   2.881   6.250  0.00  0.00    +0.000 C 
ATOM      3  O   UNL     1      46.657   2.863   5.141  0.00  0.00    +0.000 OA
ATOM     22  H   UNL     1      48.968   2.182   5.604  0.00  0.00    +0.000 HD
ATOM     23  H   UNL     1      48.874   2.294   7.326  0.00  0.00    +0.000 HD
ENDBRANCH   4   2
BRANCH  11  12
ATOM     12  C   UNL     1      43.949   5.663  11.271  0.00  0.00    +0.000 C 
BRANCH  12  13
ATOM     13  C   UNL     1      45.167   6.539  11.519  0.00  0.00    +0.000 C 
ATOM     14  O   UNL     1      45.297   7.650  11.004  0.00  0.00    +0.000 OA
ATOM     15  N   UNL     1      46.154   6.012  12.353  0.00  0.00    +0.000 N 
ATOM     16  C   UNL     1      46.145   4.681  12.972  0.00  0.00    +0.000 C 
ATOM     17  C   UNL     1      46.546   4.748  14.461  0.00  0.00    +0.000 C 
ATOM     18  N   UNL     1      47.804   5.480  14.702  0.00  0.00    +0.000 NA
ATOM     19  C   UNL     1      47.717   6.824  14.096  0.00  0.00    +0.000 C 
ATOM     20  C   UNL     1      47.378   6.783  12.596  0.00  0.00    +0.000 C 
ATOM     24  H   UNL     1      48.569   4.974  14.255  0.00  0.00    +0.000 HD
ENDBRANCH  12  13
ENDBRANCH  11  12
TORSDOF 3
ENDMDL
MODEL 4
REMARK VINA RESULT:    -6.795      2.264      7.061
REMARK INTER + INTRA:          -8.406
REMARK INTER:                  -8.363
REMARK INTRA:                  -0.043
REMARK UNBOUND:                -0.420
REMARK  Name = 
REMARK  3 active torsions:
REMARK  status: ('A' for Active; 'I' for Inactive)
REMARK    1  A    between atoms: C_2  and  C_4
REMARK    2  A    between atoms: N_11  and  C_12
REMARK    3  A    between atoms: C_12  and  C_13
REMARK                            x       y       z     vdW  Elec       q    Type
REMARK                         _______ _______ _______ _____ _____    ______ ____
ROOT
ATOM      4  C   UNL     1      46.981   7.490  13.186  0.00  0.00    +0.000 A 
ATOM      5  C   UNL     1      46.287   7.656  11.991  0.00  0.00    +0.000 A 
ATOM      6  N   UNL     1      45.677   6.671  11.283  0.00  0.00    +0.000 NA
ATOM      7  C   UNL     1      45.775   5.459  11.871  0.00  0.00    +0.000 A 
ATOM      8  C   UNL     1      46.423   5.161  13.068  0.00  0.00    +0.000 A 
ATOM      9  C   UNL     1      46.276   3.765  13.284  0.00  0.00    +0.000 A 
ATOM     10  C   UNL     1      45.581   3.248  12.211  0.00  0.00    +0.000 A 
ATOM     11  N   UNL     1      45.258   4.287  11.369  0.00  0.00    +0.000 N 
ATOM     21  C   UNL     1      47.045   6.216  13.759  0.00  0.00    +0.000 A 
ENDROOT
BRANCH   4   2
ATOM      1  N   UNL     1      47.507   8.814  15.158  0.00  0.00    +0.000 N 
ATOM      2  C   UNL     1      47.619   8.673  13.802  0.00  0.00    +0.000 C 
ATOM      3  O   UNL     1      48.258   9.476  13.136  0.00  0.00    +0.000 OA
ATOM     22  H   UNL     1      48.034   9.571  15.577  0.00  0.00    +0.000 HD
ATOM     23  H   UNL     1      47.203   8.066  15.764  0.00  0.00    +0.000 HD
ENDBRANCH   4   2
BRANCH  11  12
ATOM     12  C   UNL     1      44.613   4.160  10.067  0.00  0.00    +0.000 C 
BRANCH  12  13
ATOM     13  C   UNL     1      45.531   4.369   8.873  0.00  0.00    +0.000 C 
ATOM     14  O   UNL     1      46.006   5.469   8.590  0.00  0.00    +0.000 OA
ATOM     15  N   UNL     1      45.799   3.246   8.090  0.00  0.00    +0.000 N 
ATOM     16  C   UNL     1      45.245   1.901   8.285  0.00  0.00    +0.000 C 
ATOM     17  C   UNL     1      46.337   0.817   8.168  0.00  0.00    +0.000 C 
ATOM     18  N   UNL     1      47.148   0.926   6.941  0.00  0.00    +0.000 NA
ATOM     19  C   UNL     1      47.713   2.287   6.842  0.00  0.00    +0.000 C 
ATOM     20  C   UNL     1      46.637   3.386   6.894  0.00  0.00    +0.000 C 
ATOM     24  H   UNL     1      46.546   0.767   6.134  0.00  0.00    +0.000 HD
ENDBRANCH  12  13
ENDBRANCH  11  12
TORSDOF 3
ENDMDL
MODEL 5
REMARK VINA RESULT:    -6.746      3.026      7.270
REMARK INTER + INTRA:          -8.349
REMARK INTER:                  -8.096
REMARK INTRA:                  -0.253
REMARK UNBOUND:                -0.420
REMARK  Name = 
REMARK  3 active torsions:
REMARK  status: ('A' for Active; 'I' for Inactive)
REMARK    1  A    between atoms: C_2  and  C_4
REMARK    2  A    between atoms: N_11  and  C_12
REMARK    3  A    between atoms: C_12  and  C_13
REMARK                            x       y       z     vdW  Elec       q    Type
REMARK                         _______ _______ _______ _____ _____    ______ ____
ROOT
ATOM      4  C   UNL     1      46.994   4.346  14.761  0.00  0.00    +0.000 A 
ATOM      5  C   UNL     1      46.875   3.315  13.833  0.00  0.00    +0.000 A 
ATOM      6  N   UNL     1      46.307   3.413  12.604  0.00  0.00    +0.000 NA
ATOM      7  C   UNL     1      45.868   4.660  12.323  0.00  0.00    +0.000 A 
ATOM      8  C   UNL     1      45.942   5.778  13.152  0.00  0.00    +0.000 A 
ATOM      9  C   UNL     1      45.350   6.858  12.446  0.00  0.00    +0.000 A 
ATOM     10  C   UNL     1      44.905   6.371  11.234  0.00  0.00    +0.000 A 
ATOM     11  N   UNL     1      45.247   5.041  11.157  0.00  0.00    +0.000 N 
ATOM     21  C   UNL     1      46.533   5.620  14.417  0.00  0.00    +0.000 A 
ENDROOT
BRANCH   4   2
ATOM      1  N   UNL     1      47.192   4.785  17.146  0.00  0.00    +0.000 N 
ATOM      2  C   UNL     1      47.610   4.048  16.072  0.00  0.00    +0.000 C 
ATOM      3  O   UNL     1      48.430   3.150  16.205  0.00  0.00    +0.000 OA
ATOM     22  H   UNL     1      47.545   4.502  18.051  0.00  0.00    +0.000 HD
ATOM     23  H   UNL     1      46.361   5.358  17.128  0.00  0.00    +0.000 HD
ENDBRANCH   4   2
BRANCH  11  12
ATOM     12  C   UNL     1      44.872   4.126  10.085  0.00  0.00    +0.000 C 
BRANCH  12  13
ATOM     13  C   UNL     1      45.649   4.301   8.790  0.00  0.00    +0.000 C 
ATOM     14  O   UNL     1      46.079   5.394   8.420  0.00  0.00    +0.000 OA
ATOM     15  N   UNL     1      45.838   3.155   8.017  0.00  0.00    +0.000 N 
ATOM     16  C   UNL     1      45.322   1.813   8.315  0.00  0.00    +0.000 C 
ATOM     17  C   UNL     1      46.404   0.733   8.111  0.00  0.00    +0.000 C 
ATOM     18  N   UNL     1      47.072   0.806   6.798  0.00  0.00    +0.000 NA
ATOM     19  C   UNL     1      47.609   2.167   6.593  0.00  0.00    +0.000 C 
ATOM     20  C   UNL     1      46.536   3.260   6.731  0.00  0.00    +0.000 C 
ATOM     24  H   UNL     1      46.385   0.618   6.069  0.00  0.00    +0.000 HD
ENDBRANCH  12  13
ENDBRANCH  11  12
TORSDOF 3
ENDMDL
MODEL 6
REMARK VINA RESULT:    -6.724      5.696      7.320
REMARK INTER + INTRA:          -8.323
REMARK INTER:                  -7.818
REMARK INTRA:                  -0.506
REMARK UNBOUND:                -0.420
REMARK  Name = 
REMARK  3 active torsions:
REMARK  status: ('A' for Active; 'I' for Inactive)
REMARK    1  A    between atoms: C_2  and  C_4
REMARK    2  A    between atoms: N_11  and  C_12
REMARK    3  A    between atoms: C_12  and  C_13
REMARK                            x       y       z     vdW  Elec       q    Type
REMARK                         _______ _______ _______ _____ _____    ______ ____
ROOT
ATOM      4  C   UNL     1      45.683   5.146  11.648  0.00  0.00    +0.000 A 
ATOM      5  C   UNL     1      45.325   4.165  12.569  0.00  0.00    +0.000 A 
ATOM      6  N   UNL     1      45.841   4.020  13.816  0.00  0.00    +0.000 NA
ATOM      7  C   UNL     1      46.757   4.965  14.123  0.00  0.00    +0.000 A 
ATOM      8  C   UNL     1      47.190   6.006  13.303  0.00  0.00    +0.000 A 
ATOM      9  C   UNL     1      48.160   6.737  14.038  0.00  0.00    +0.000 A 
ATOM     10  C   UNL     1      48.317   6.113  15.258  0.00  0.00    +0.000 A 
ATOM     11  N   UNL     1      47.442   5.053  15.312  0.00  0.00    +0.000 N 
ATOM     21  C   UNL     1      46.628   6.107  12.019  0.00  0.00    +0.000 A 
ENDROOT
BRANCH   4   2
ATOM      1  N   UNL     1      43.676   5.134  10.273  0.00  0.00    +0.000 N 
ATOM      2  C   UNL     1      45.042   5.131  10.315  0.00  0.00    +0.000 C 
ATOM      3  O   UNL     1      45.705   5.156   9.287  0.00  0.00    +0.000 OA
ATOM     22  H   UNL     1      43.254   5.227   9.358  0.00  0.00    +0.000 HD
ATOM     23  H   UNL     1      43.102   5.353  11.075  0.00  0.00    +0.000 HD
ENDBRANCH   4   2
BRANCH  11  12
ATOM     12  C   UNL     1      47.360   4.069  16.386  0.00  0.00    +0.000 C 
BRANCH  12  13
ATOM     13  C   UNL     1      48.482   3.043  16.404  0.00  0.00    +0.000 C 
ATOM     14  O   UNL     1      48.583   2.160  15.552  0.00  0.00    +0.000 OA
ATOM     15  N   UNL     1      49.393   3.135  17.457  0.00  0.00    +0.000 N 
ATOM     16  C   UNL     1      49.344   4.097  18.565  0.00  0.00    +0.000 C 
ATOM     17  C   UNL     1      50.729   4.722  18.832  0.00  0.00    +0.000 C 
ATOM     18  N   UNL     1      51.806   3.728  18.990  0.00  0.00    +0.000 NA
ATOM     19  C   UNL     1      51.826   2.832  17.816  0.00  0.00    +0.000 C 
ATOM     20  C   UNL     1      50.472   2.147  17.564  0.00  0.00    +0.000 C 
ATOM     24  H   UNL     1      51.616   3.167  19.820  0.00  0.00    +0.000 HD
ENDBRANCH  12  13
ENDBRANCH  11  12
TORSDOF 3
ENDMDL
MODEL 7
REMARK VINA RESULT:    -6.478      3.301      7.111
REMARK INTER + INTRA:          -8.034
REMARK INTER:                  -7.457
REMARK INTRA:                  -0.577
REMARK UNBOUND:                -0.420
REMARK  Name = 
REMARK  3 active torsions:
REMARK  status: ('A' for Active; 'I' for Inactive)
REMARK    1  A    between atoms: C_2  and  C_4
REMARK    2  A    between atoms: N_11  and  C_12
REMARK    3  A    between atoms: C_12  and  C_13
REMARK                            x       y       z     vdW  Elec       q    Type
REMARK                         _______ _______ _______ _____ _____    ______ ____
ROOT
ATOM      4  C   UNL     1      47.609   4.813  15.437  0.00  0.00    +0.000 A 
ATOM      5  C   UNL     1      46.517   4.381  14.690  0.00  0.00    +0.000 A 
ATOM      6  N   UNL     1      46.032   4.982  13.574  0.00  0.00    +0.000 NA
ATOM      7  C   UNL     1      46.742   6.071  13.207  0.00  0.00    +0.000 A 
ATOM      8  C   UNL     1      47.860   6.596  13.854  0.00  0.00    +0.000 A 
ATOM      9  C   UNL     1      48.263   7.743  13.121  0.00  0.00    +0.000 A 
ATOM     10  C   UNL     1      47.374   7.906  12.079  0.00  0.00    +0.000 A 
ATOM     11  N   UNL     1      46.469   6.872  12.123  0.00  0.00    +0.000 N 
ATOM     21  C   UNL     1      48.318   5.940  15.010  0.00  0.00    +0.000 A 
ENDROOT
BRANCH   4   2
ATOM      1  N   UNL     1      47.089   4.063  17.693  0.00  0.00    +0.000 N 
ATOM      2  C   UNL     1      47.977   4.055  16.653  0.00  0.00    +0.000 C 
ATOM      3  O   UNL     1      49.015   3.410  16.715  0.00  0.00    +0.000 OA
ATOM     22  H   UNL     1      47.307   3.459  18.475  0.00  0.00    +0.000 HD
ATOM     23  H   UNL     1      46.134   4.374  17.596  0.00  0.00    +0.000 HD
ENDBRANCH   4   2
BRANCH  11  12
ATOM     12  C   UNL     1      45.300   6.725  11.262  0.00  0.00    +0.000 C 
BRANCH  12  13
ATOM     13  C   UNL     1      45.450   5.704  10.146  0.00  0.00    +0.000 C 
ATOM     14  O   UNL     1      46.272   5.834   9.237  0.00  0.00    +0.000 OA
ATOM     15  N   UNL     1      44.587   4.608  10.184  0.00  0.00    +0.000 N 
ATOM     16  C   UNL     1      43.527   4.373  11.172  0.00  0.00    +0.000 C 
ATOM     17  C   UNL     1      43.544   2.918  11.685  0.00  0.00    +0.000 C 
ATOM     18  N   UNL     1      43.549   1.912  10.607  0.00  0.00    +0.000 NA
ATOM     19  C   UNL     1      44.671   2.182   9.685  0.00  0.00    +0.000 C 
ATOM     20  C   UNL     1      44.643   3.610   9.111  0.00  0.00    +0.000 C 
ATOM     24  H   UNL     1      42.677   1.987  10.083  0.00  0.00    +0.000 HD
ENDBRANCH  12  13
ENDBRANCH  11  12
TORSDOF 3
ENDMDL
MODEL 8
REMARK VINA RESULT:    -6.408      4.611      8.228
REMARK INTER + INTRA:          -7.952
REMARK INTER:                  -7.459
REMARK INTRA:                  -0.493
REMARK UNBOUND:                -0.420
REMARK  Name = 
REMARK  3 active torsions:
REMARK  status: ('A' for Active; 'I' for Inactive)
REMARK    1  A    between atoms: C_2  and  C_4
REMARK    2  A    between atoms: N_11  and  C_12
REMARK    3  A    between atoms: C_12  and  C_13
REMARK                            x       y       z     vdW  Elec       q    Type
REMARK                         _______ _______ _______ _____ _____    ______ ____
ROOT
ATOM      4  C   UNL     1      48.569   4.979  17.595  0.00  0.00    +0.000 A 
ATOM      5  C   UNL     1      47.882   4.226  16.647  0.00  0.00    +0.000 A 
ATOM      6  N   UNL     1      47.631   4.600  15.366  0.00  0.00    +0.000 NA
ATOM      7  C   UNL     1      48.149   5.809  15.057  0.00  0.00    +0.000 A 
ATOM      8  C   UNL     1      48.868   6.651  15.903  0.00  0.00    +0.000 A 
ATOM      9  C   UNL     1      49.199   7.810  15.152  0.00  0.00    +0.000 A 
ATOM     10  C   UNL     1      48.653   7.662  13.894  0.00  0.00    +0.000 A 
ATOM     11  N   UNL     1      48.038   6.433  13.836  0.00  0.00    +0.000 N 
ATOM     21  C   UNL     1      49.095   6.220  17.221  0.00  0.00    +0.000 A 
ENDROOT
BRANCH   4   2
ATOM      1  N   UNL     1      48.314   3.140  19.167  0.00  0.00    +0.000 N 
ATOM      2  C   UNL     1      48.717   4.430  18.961  0.00  0.00    +0.000 C 
ATOM      3  O   UNL     1      49.219   5.086  19.863  0.00  0.00    +0.000 OA
ATOM     22  H   UNL     1      48.516   2.746  20.078  0.00  0.00    +0.000 HD
ATOM     23  H   UNL     1      48.123   2.496  18.413  0.00  0.00    +0.000 HD
ENDBRANCH   4   2
BRANCH  11  12
ATOM     12  C   UNL     1      47.249   5.927  12.719  0.00  0.00    +0.000 C 
BRANCH  12  13
ATOM     13  C   UNL     1      45.763   6.242  12.788  0.00  0.00    +0.000 C 
ATOM     14  O   UNL     1      45.338   7.379  12.996  0.00  0.00    +0.000 OA
ATOM     15  N   UNL     1      44.891   5.166  12.623  0.00  0.00    +0.000 N 
ATOM     16  C   UNL     1      45.272   3.761  12.435  0.00  0.00    +0.000 C 
ATOM     17  C   UNL     1      44.463   3.103  11.298  0.00  0.00    +0.000 C 
ATOM     18  N   UNL     1      43.006   3.284  11.428  0.00  0.00    +0.000 NA
ATOM     19  C   UNL     1      42.697   4.722  11.560  0.00  0.00    +0.000 C 
ATOM     20  C   UNL     1      43.445   5.389  12.728  0.00  0.00    +0.000 C 
ATOM     24  H   UNL     1      42.690   2.808  12.273  0.00  0.00    +0.000 HD
ENDBRANCH  12  13
ENDBRANCH  11  12
TORSDOF 3
ENDMDL
MODEL 9
REMARK VINA RESULT:    -6.311      4.245      6.413
REMARK INTER + INTRA:          -7.837
REMARK INTER:                  -7.325
REMARK INTRA:                  -0.512
REMARK UNBOUND:                -0.420
REMARK  Name = 
REMARK  3 active torsions:
REMARK  status: ('A' for Active; 'I' for Inactive)
REMARK    1  A    between atoms: C_2  and  C_4
REMARK    2  A    between atoms: N_11  and  C_12
REMARK    3  A    between atoms: C_12  and  C_13
REMARK                            x       y       z     vdW  Elec       q    Type
REMARK                         _______ _______ _______ _____ _____    ______ ____
ROOT
ATOM      4  C   UNL     1      44.901   4.307  12.268  0.00  0.00    +0.000 A 
ATOM      5  C   UNL     1      45.995   3.892  13.023  0.00  0.00    +0.000 A 
ATOM      6  N   UNL     1      46.941   4.703  13.562  0.00  0.00    +0.000 NA
ATOM      7  C   UNL     1      46.713   6.013  13.324  0.00  0.00    +0.000 A 
ATOM      8  C   UNL     1      45.653   6.559  12.602  0.00  0.00    +0.000 A 
ATOM      9  C   UNL     1      45.831   7.967  12.604  0.00  0.00    +0.000 A 
ATOM     10  C   UNL     1      46.997   8.240  13.289  0.00  0.00    +0.000 A 
ATOM     11  N   UNL     1      47.513   7.049  13.745  0.00  0.00    +0.000 N 
ATOM     21  C   UNL     1      44.705   5.675  12.058  0.00  0.00    +0.000 A 
ENDROOT
BRANCH   4   2
ATOM      1  N   UNL     1      43.745   2.178  12.498  0.00  0.00    +0.000 N 
ATOM      2  C   UNL     1      43.988   3.278  11.723  0.00  0.00    +0.000 C 
ATOM      3  O   UNL     1      43.437   3.421  10.641  0.00  0.00    +0.000 OA
ATOM     22  H   UNL     1      43.042   1.535  12.158  0.00  0.00    +0.000 HD
ATOM     23  H   UNL     1      43.983   2.133  13.478  0.00  0.00    +0.000 HD
ENDBRANCH   4   2
BRANCH  11  12
ATOM     12  C   UNL     1      48.792   6.880  14.426  0.00  0.00    +0.000 C 
BRANCH  12  13
ATOM     13  C   UNL     1      48.819   7.361  15.869  0.00  0.00    +0.000 C 
ATOM     14  O   UNL     1      49.049   8.533  16.171  0.00  0.00    +0.000 OA
ATOM     15  N   UNL     1      48.589   6.397  16.851  0.00  0.00    +0.000 N 
ATOM     16  C   UNL     1      48.368   4.963  16.624  0.00  0.00    +0.000 C 
ATOM     17  C   UNL     1      47.182   4.435  17.457  0.00  0.00    +0.000 C 
ATOM     18  N   UNL     1      47.267   4.777  18.889  0.00  0.00    +0.000 NA
ATOM     19  C   UNL     1      47.435   6.237  19.038  0.00  0.00    +0.000 C 
ATOM     20  C   UNL     1      48.649   6.781  18.265  0.00  0.00    +0.000 C 
ATOM     24  H   UNL     1      48.084   4.316  19.289  0.00  0.00    +0.000 HD
ENDBRANCH  12  13
ENDBRANCH  11  12
TORSDOF 3
ENDMDL
