MODEL 1
REMARK VINA RESULT:    -7.265      0.000      0.000
REMARK INTER + INTRA:         -10.974
REMARK INTER:                  -9.813
REMARK INTRA:                  -1.161
REMARK UNBOUND:                -1.161
REMARK  Name = 
REMARK  6 active torsions:
REMARK  status: ('A' for Active; 'I' for Inactive)
REMARK    1  A    between atoms: C_2  and  C_23
REMARK    2  A    between atoms: N_3  and  C_4
REMARK    3  A    between atoms: C_4  and  C_5
REMARK    4  A    between atoms: C_8  and  C_9
REMARK    5  A    between atoms: C_9  and  N_10
REMARK    6  A    between atoms: N_10  and  C_11
REMARK                            x       y       z     vdW  Elec       q    Type
REMARK                         _______ _______ _______ _____ _____    ______ ____
ROOT
ATOM      5  C   UNL     1      47.855   8.403  12.150  0.00  0.00    +0.000 A 
ATOM      6  C   UNL     1      48.388   9.645  11.780  0.00  0.00    +0.000 A 
ATOM      7  C   UNL     1      49.730   9.761  11.414  0.00  0.00    +0.000 A 
ATOM      8  C   UNL     1      50.558   8.633  11.401  0.00  0.00    +0.000 A 
ATOM     21  C   UNL     1      50.017   7.386  11.746  0.00  0.00    +0.000 A 
ATOM     22  C   UNL     1      48.676   7.269  12.108  0.00  0.00    +0.000 A 
ENDROOT
BRANCH   5   4
ATOM      4  C   UNL     1      46.408   8.282  12.542  0.00  0.00    +0.000 C 
BRANCH   4   3
ATOM      1  O   UNL     1      44.035   7.599  11.201  0.00  0.00    +0.000 OA
ATOM      2  C   UNL     1      44.783   6.702  11.583  0.00  0.00    +0.000 C 
ATOM      3  N   UNL     1      45.921   6.948  12.306  0.00  0.00    +0.000 N 
ATOM     33  H   UNL     1      46.596   6.203  12.433  0.00  0.00    +0.000 HD
BRANCH   2  23
ATOM     23  C   UNL     1      44.472   5.289  11.330  0.00  0.00    +0.000 A 
ATOM     24  C   UNL     1      43.675   4.591  12.225  0.00  0.00    +0.000 A 
ATOM     25  S   UNL     1      43.416   2.965  11.784  0.00  0.00    +0.000 S 
ATOM     26  C   UNL     1      44.315   3.153  10.352  0.00  0.00    +0.000 A 
ATOM     27  N   UNL     1      44.455   2.124   9.475  0.00  0.00    +0.000 NA
ATOM     28  C   UNL     1      45.117   2.417   8.408  0.00  0.00    +0.000 A 
ATOM     29  N   UNL     1      45.671   3.645   8.145  0.00  0.00    +0.000 N 
ATOM     30  C   UNL     1      45.632   4.684   9.043  0.00  0.00    +0.000 A 
ATOM     31  O   UNL     1      46.271   5.715   8.844  0.00  0.00    +0.000 OA
ATOM     32  C   UNL     1      44.841   4.427  10.231  0.00  0.00    +0.000 A 
ATOM     35  H   UNL     1      46.211   3.799   7.306  0.00  0.00    +0.000 HD
ENDBRANCH   2  23
ENDBRANCH   4   3
ENDBRANCH   5   4
BRANCH   8   9
ATOM      9  C   UNL     1      51.982   8.724  10.918  0.00  0.00    +0.000 C 
BRANCH   9  10
ATOM     10  N   UNL     1      52.723   7.463  11.035  0.00  0.00    +0.000 NA
ATOM     34  H   UNL     1      52.094   6.751  11.405  0.00  0.00    +0.000 HD
BRANCH  10  11
ATOM     11  C   UNL     1      53.316   7.000   9.765  0.00  0.00    +0.000 C 
ATOM     12  C   UNL     1      52.268   7.014   8.620  0.00  0.00    +0.000 C 
ATOM     13  C   UNL     1      52.898   6.555   7.297  0.00  0.00    +0.000 C 
ATOM     14  C   UNL     1      54.032   7.516   6.918  0.00  0.00    +0.000 C 
ATOM     15  C   UNL     1      55.103   7.522   8.021  0.00  0.00    +0.000 C 
ATOM     16  C   UNL     1      55.672   6.102   8.172  0.00  0.00    +0.000 C 
ATOM     17  C   UNL     1      54.551   5.130   8.560  0.00  0.00    +0.000 C 
ATOM     18  C   UNL     1      53.461   5.135   7.476  0.00  0.00    +0.000 C 
ATOM     19  C   UNL     1      53.933   5.580   9.892  0.00  0.00    +0.000 C 
ATOM     20  C   UNL     1      54.464   7.967   9.355  0.00  0.00    +0.000 C 
ENDBRANCH  10  11
ENDBRANCH   9  10
ENDBRANCH   8   9
TORSDOF 6
ENDMDL
MODEL 2
REMARK VINA RESULT:    -7.200      4.495      7.198
REMARK INTER + INTRA:         -10.887
REMARK INTER:                  -9.339
REMARK INTRA:                  -1.547
REMARK UNBOUND:                -1.161
REMARK  Name = 
REMARK  6 active torsions:
REMARK  status: ('A' for Active; 'I' for Inactive)
REMARK    1  A    between atoms: C_2  and  C_23
REMARK    2  A    between atoms: N_3  and  C_4
REMARK    3  A    between atoms: C_4  and  C_5
REMARK    4  A    between atoms: C_8  and  C_9
REMARK    5  A    between atoms: C_9  and  N_10
REMARK    6  A    between atoms: N_10  and  C_11
REMARK                            x       y       z     vdW  Elec       q    Type
REMARK                         _______ _______ _______ _____ _____    ______ ____
ROOT
ATOM      5  C   UNL     1      48.426   8.093  13.115  0.00  0.00    +0.000 A 
ATOM      6  C   UNL     1      49.707   7.593  13.388  0.00  0.00    +0.000 A 
ATOM      7  C   UNL     1      50.281   7.764  14.648  0.00  0.00    +0.000 A 
ATOM      8  C   UNL     1      49.578   8.426  15.661  0.00  0.00    +0.000 A 
ATOM     21  C   UNL     1      48.286   8.901  15.395  0.00  0.00    +0.000 A 
ATOM     22  C   UNL     1      47.711   8.729  14.137  0.00  0.00    +0.000 A 
ENDROOT
BRANCH   5   4
ATOM      4  C   UNL     1      47.810   7.906  11.756  0.00  0.00    +0.000 C 
BRANCH   4   3
ATOM      1  O   UNL     1      45.030   7.626  12.052  0.00  0.00    +0.000 OA
ATOM      2  C   UNL     1      45.703   6.635  11.780  0.00  0.00    +0.000 C 
ATOM      3  N   UNL     1      47.070   6.673  11.691  0.00  0.00    +0.000 N 
ATOM     33  H   UNL     1      47.560   5.885  11.284  0.00  0.00    +0.000 HD
BRANCH   2  23
ATOM     23  C   UNL     1      45.080   5.319  11.586  0.00  0.00    +0.000 A 
ATOM     24  C   UNL     1      44.379   4.732  12.629  0.00  0.00    +0.000 A 
ATOM     25  S   UNL     1      43.724   3.208  12.236  0.00  0.00    +0.000 S 
ATOM     26  C   UNL     1      44.308   3.306  10.641  0.00  0.00    +0.000 A 
ATOM     27  N   UNL     1      44.054   2.319   9.742  0.00  0.00    +0.000 NA
ATOM     28  C   UNL     1      44.511   2.544   8.557  0.00  0.00    +0.000 A 
ATOM     29  N   UNL     1      45.218   3.662   8.192  0.00  0.00    +0.000 N 
ATOM     30  C   UNL     1      45.575   4.639   9.089  0.00  0.00    +0.000 A 
ATOM     31  O   UNL     1      46.340   5.544   8.765  0.00  0.00    +0.000 OA
ATOM     32  C   UNL     1      45.028   4.467  10.421  0.00  0.00    +0.000 A 
ATOM     35  H   UNL     1      45.581   3.760   7.256  0.00  0.00    +0.000 HD
ENDBRANCH   2  23
ENDBRANCH   4   3
ENDBRANCH   5   4
BRANCH   8   9
ATOM      9  C   UNL     1      50.145   8.534  17.053  0.00  0.00    +0.000 C 
BRANCH   9  10
ATOM     10  N   UNL     1      50.685   7.271  17.566  0.00  0.00    +0.000 NA
ATOM     34  H   UNL     1      51.448   7.482  18.209  0.00  0.00    +0.000 HD
BRANCH  10  11
ATOM     11  C   UNL     1      49.681   6.422  18.238  0.00  0.00    +0.000 C 
ATOM     12  C   UNL     1      50.315   5.625  19.409  0.00  0.00    +0.000 C 
ATOM     13  C   UNL     1      49.260   4.765  20.119  0.00  0.00    +0.000 C 
ATOM     14  C   UNL     1      48.170   5.676  20.697  0.00  0.00    +0.000 C 
ATOM     15  C   UNL     1      47.503   6.477  19.567  0.00  0.00    +0.000 C 
ATOM     16  C   UNL     1      46.866   5.495  18.570  0.00  0.00    +0.000 C 
ATOM     17  C   UNL     1      47.944   4.581  17.975  0.00  0.00    +0.000 C 
ATOM     18  C   UNL     1      48.636   3.795  19.101  0.00  0.00    +0.000 C 
ATOM     19  C   UNL     1      48.990   5.442  17.251  0.00  0.00    +0.000 C 
ATOM     20  C   UNL     1      48.569   7.328  18.843  0.00  0.00    +0.000 C 
ENDBRANCH  10  11
ENDBRANCH   9  10
ENDBRANCH   8   9
TORSDOF 6
ENDMDL
MODEL 3
REMARK VINA RESULT:    -7.119      6.144      9.363
REMARK INTER + INTRA:         -10.777
REMARK INTER:                  -9.624
REMARK INTRA:                  -1.153
REMARK UNBOUND:                -1.161
REMARK  Name = 
REMARK  6 active torsions:
REMARK  status: ('A' for Active; 'I' for Inactive)
REMARK    1  A    between atoms: C_2  and  C_23
REMARK    2  A    between atoms: N_3  and  C_4
REMARK    3  A    between atoms: C_4  and  C_5
REMARK    4  A    between atoms: C_8  and  C_9
REMARK    5  A    between atoms: C_9  and  N_10
REMARK    6  A    between atoms: N_10  and  C_11
REMARK                            x       y       z     vdW  Elec       q    Type
REMARK                         _______ _______ _______ _____ _____    ______ ____
ROOT
ATOM      5  C   UNL     1      49.079   7.934  16.335  0.00  0.00    +0.000 A 
ATOM      6  C   UNL     1      48.518   9.041  15.684  0.00  0.00    +0.000 A 
ATOM      7  C   UNL     1      47.857   8.887  14.464  0.00  0.00    +0.000 A 
ATOM      8  C   UNL     1      47.738   7.620  13.881  0.00  0.00    +0.000 A 
ATOM     21  C   UNL     1      48.277   6.510  14.547  0.00  0.00    +0.000 A 
ATOM     22  C   UNL     1      48.934   6.663  15.767  0.00  0.00    +0.000 A 
ENDROOT
BRANCH   5   4
ATOM      4  C   UNL     1      49.789   8.104  17.650  0.00  0.00    +0.000 C 
BRANCH   4   3
ATOM      1  O   UNL     1      49.467   5.895  19.356  0.00  0.00    +0.000 OA
ATOM      2  C   UNL     1      50.478   5.969  18.662  0.00  0.00    +0.000 C 
ATOM      3  N   UNL     1      50.744   7.047  17.860  0.00  0.00    +0.000 N 
ATOM     33  H   UNL     1      51.485   6.979  17.172  0.00  0.00    +0.000 HD
BRANCH   2  23
ATOM     23  C   UNL     1      51.502   4.917  18.691  0.00  0.00    +0.000 A 
ATOM     24  C   UNL     1      52.690   5.135  19.373  0.00  0.00    +0.000 A 
ATOM     25  S   UNL     1      53.768   3.816  19.304  0.00  0.00    +0.000 S 
ATOM     26  C   UNL     1      52.661   2.887  18.405  0.00  0.00    +0.000 A 
ATOM     27  N   UNL     1      52.953   1.611  18.042  0.00  0.00    +0.000 NA
ATOM     28  C   UNL     1      52.006   1.005  17.409  0.00  0.00    +0.000 A 
ATOM     29  N   UNL     1      50.796   1.568  17.088  0.00  0.00    +0.000 N 
ATOM     30  C   UNL     1      50.495   2.881  17.356  0.00  0.00    +0.000 A 
ATOM     31  O   UNL     1      49.469   3.395  16.917  0.00  0.00    +0.000 OA
ATOM     32  C   UNL     1      51.500   3.587  18.126  0.00  0.00    +0.000 A 
ATOM     35  H   UNL     1      50.112   1.050  16.558  0.00  0.00    +0.000 HD
ENDBRANCH   2  23
ENDBRANCH   4   3
ENDBRANCH   5   4
BRANCH   8   9
ATOM      9  C   UNL     1      46.947   7.423  12.614  0.00  0.00    +0.000 C 
BRANCH   9  10
ATOM     10  N   UNL     1      46.997   6.051  12.098  0.00  0.00    +0.000 NA
ATOM     34  H   UNL     1      47.598   5.497  12.709  0.00  0.00    +0.000 HD
BRANCH  10  11
ATOM     11  C   UNL     1      45.673   5.410  11.978  0.00  0.00    +0.000 C 
ATOM     12  C   UNL     1      45.716   3.940  12.474  0.00  0.00    +0.000 C 
ATOM     13  C   UNL     1      44.330   3.288  12.370  0.00  0.00    +0.000 C 
ATOM     14  C   UNL     1      43.340   4.061  13.252  0.00  0.00    +0.000 C 
ATOM     15  C   UNL     1      43.255   5.523  12.786  0.00  0.00    +0.000 C 
ATOM     16  C   UNL     1      42.766   5.554  11.329  0.00  0.00    +0.000 C 
ATOM     17  C   UNL     1      43.750   4.793  10.431  0.00  0.00    +0.000 C 
ATOM     18  C   UNL     1      43.862   3.334  10.906  0.00  0.00    +0.000 C 
ATOM     19  C   UNL     1      45.131   5.456  10.523  0.00  0.00    +0.000 C 
ATOM     20  C   UNL     1      44.654   6.173  12.874  0.00  0.00    +0.000 C 
ENDBRANCH  10  11
ENDBRANCH   9  10
ENDBRANCH   8   9
TORSDOF 6
ENDMDL
MODEL 4
REMARK VINA RESULT:    -7.093      4.908      8.405
REMARK INTER + INTRA:         -10.743
REMARK INTER:                  -8.950
REMARK INTRA:                  -1.793
REMARK UNBOUND:                -1.161
REMARK  Name = 
REMARK  6 active torsions:
REMARK  status: ('A' for Active; 'I' for Inactive)
REMARK    1  A    between atoms: C_2  and  C_23
REMARK    2  A    between atoms: N_3  and  C_4
REMARK    3  A    between atoms: C_4  and  C_5
REMARK    4  A    between atoms: C_8  and  C_9
REMARK    5  A    between atoms: C_9  and  N_10
REMARK    6  A    between atoms: N_10  and  C_11
REMARK                            x       y       z     vdW  Elec       q    Type
REMARK                         _______ _______ _______ _____ _____    ______ ____
ROOT
ATOM      5  C   UNL     1      49.275   8.248  13.668  0.00  0.00    +0.000 A 
ATOM      6  C   UNL     1      48.191   9.023  14.100  0.00  0.00    +0.000 A 
ATOM      7  C   UNL     1      47.039   9.130  13.319  0.00  0.00    +0.000 A 
ATOM      8  C   UNL     1      46.949   8.453  12.098  0.00  0.00    +0.000 A 
ATOM     21  C   UNL     1      48.025   7.656  11.679  0.00  0.00    +0.000 A 
ATOM     22  C   UNL     1      49.174   7.547  12.460  0.00  0.00    +0.000 A 
ENDROOT
BRANCH   5   4
ATOM      4  C   UNL     1      50.515   8.135  14.513  0.00  0.00    +0.000 C 
BRANCH   4   3
ATOM      1  O   UNL     1      49.702   8.535  17.172  0.00  0.00    +0.000 OA
ATOM      2  C   UNL     1      49.895   7.389  16.775  0.00  0.00    +0.000 C 
ATOM      3  N   UNL     1      50.361   7.114  15.516  0.00  0.00    +0.000 N 
ATOM     33  H   UNL     1      50.324   6.160  15.174  0.00  0.00    +0.000 HD
BRANCH   2  23
ATOM     23  C   UNL     1      49.685   6.231  17.653  0.00  0.00    +0.000 A 
ATOM     24  C   UNL     1      50.324   6.179  18.883  0.00  0.00    +0.000 A 
ATOM     25  S   UNL     1      49.976   4.767  19.773  0.00  0.00    +0.000 S 
ATOM     26  C   UNL     1      48.915   4.203  18.569  0.00  0.00    +0.000 A 
ATOM     27  N   UNL     1      48.235   3.037  18.728  0.00  0.00    +0.000 NA
ATOM     28  C   UNL     1      47.427   2.754  17.763  0.00  0.00    +0.000 A 
ATOM     29  N   UNL     1      47.251   3.523  16.640  0.00  0.00    +0.000 N 
ATOM     30  C   UNL     1      47.983   4.660  16.398  0.00  0.00    +0.000 A 
ATOM     31  O   UNL     1      47.914   5.237  15.315  0.00  0.00    +0.000 OA
ATOM     32  C   UNL     1      48.858   5.059  17.483  0.00  0.00    +0.000 A 
ATOM     35  H   UNL     1      46.630   3.225  15.903  0.00  0.00    +0.000 HD
ENDBRANCH   2  23
ENDBRANCH   4   3
ENDBRANCH   5   4
BRANCH   8   9
ATOM      9  C   UNL     1      45.678   8.481  11.289  0.00  0.00    +0.000 C 
BRANCH   9  10
ATOM     10  N   UNL     1      44.529   7.887  11.981  0.00  0.00    +0.000 NA
ATOM     34  H   UNL     1      43.676   8.304  11.609  0.00  0.00    +0.000 HD
BRANCH  10  11
ATOM     11  C   UNL     1      44.461   6.417  11.870  0.00  0.00    +0.000 C 
ATOM     12  C   UNL     1      44.943   5.734  13.178  0.00  0.00    +0.000 C 
ATOM     13  C   UNL     1      44.845   4.206  13.064  0.00  0.00    +0.000 C 
ATOM     14  C   UNL     1      43.381   3.809  12.829  0.00  0.00    +0.000 C 
ATOM     15  C   UNL     1      42.866   4.454  11.532  0.00  0.00    +0.000 C 
ATOM     16  C   UNL     1      43.720   3.957  10.355  0.00  0.00    +0.000 C 
ATOM     17  C   UNL     1      45.186   4.354  10.570  0.00  0.00    +0.000 C 
ATOM     18  C   UNL     1      45.704   3.735  11.879  0.00  0.00    +0.000 C 
ATOM     19  C   UNL     1      45.285   5.883  10.667  0.00  0.00    +0.000 C 
ATOM     20  C   UNL     1      42.981   5.990  11.641  0.00  0.00    +0.000 C 
ENDBRANCH  10  11
ENDBRANCH   9  10
ENDBRANCH   8   9
TORSDOF 6
ENDMDL
MODEL 5
REMARK VINA RESULT:    -7.061      3.654      8.797
REMARK INTER + INTRA:         -10.698
REMARK INTER:                  -9.444
REMARK INTRA:                  -1.254
REMARK UNBOUND:                -1.161
REMARK  Name = 
REMARK  6 active torsions:
REMARK  status: ('A' for Active; 'I' for Inactive)
REMARK    1  A    between atoms: C_2  and  C_23
REMARK    2  A    between atoms: N_3  and  C_4
REMARK    3  A    between atoms: C_4  and  C_5
REMARK    4  A    between atoms: C_8  and  C_9
REMARK    5  A    between atoms: C_9  and  N_10
REMARK    6  A    between atoms: N_10  and  C_11
REMARK                            x       y       z     vdW  Elec       q    Type
REMARK                         _______ _______ _______ _____ _____    ______ ____
ROOT
ATOM      5  C   UNL     1      50.191   8.729  11.726  0.00  0.00    +0.000 A 
ATOM      6  C   UNL     1      49.360   9.854  11.629  0.00  0.00    +0.000 A 
ATOM      7  C   UNL     1      47.994   9.750  11.895  0.00  0.00    +0.000 A 
ATOM      8  C   UNL     1      47.439   8.523  12.274  0.00  0.00    +0.000 A 
ATOM     21  C   UNL     1      48.276   7.405  12.397  0.00  0.00    +0.000 A 
ATOM     22  C   UNL     1      49.642   7.508  12.135  0.00  0.00    +0.000 A 
ENDROOT
BRANCH   5   4
ATOM      4  C   UNL     1      51.664   8.844  11.440  0.00  0.00    +0.000 C 
BRANCH   4   3
ATOM      1  O   UNL     1      53.836   9.678   9.867  0.00  0.00    +0.000 OA
ATOM      2  C   UNL     1      53.086   8.808   9.433  0.00  0.00    +0.000 C 
ATOM      3  N   UNL     1      51.965   8.398  10.105  0.00  0.00    +0.000 N 
ATOM     33  H   UNL     1      51.489   7.556   9.803  0.00  0.00    +0.000 HD
BRANCH   2  23
ATOM     23  C   UNL     1      53.319   8.182   8.124  0.00  0.00    +0.000 A 
ATOM     24  C   UNL     1      53.368   8.973   6.986  0.00  0.00    +0.000 A 
ATOM     25  S   UNL     1      53.642   8.090   5.553  0.00  0.00    +0.000 S 
ATOM     26  C   UNL     1      53.758   6.626   6.413  0.00  0.00    +0.000 A 
ATOM     27  N   UNL     1      54.029   5.459   5.771  0.00  0.00    +0.000 NA
ATOM     28  C   UNL     1      54.140   4.435   6.548  0.00  0.00    +0.000 A 
ATOM     29  N   UNL     1      53.985   4.469   7.912  0.00  0.00    +0.000 N 
ATOM     30  C   UNL     1      53.623   5.607   8.589  0.00  0.00    +0.000 A 
ATOM     31  O   UNL     1      53.340   5.567   9.784  0.00  0.00    +0.000 OA
ATOM     32  C   UNL     1      53.551   6.802   7.770  0.00  0.00    +0.000 A 
ATOM     35  H   UNL     1      54.048   3.623   8.458  0.00  0.00    +0.000 HD
ENDBRANCH   2  23
ENDBRANCH   4   3
ENDBRANCH   5   4
BRANCH   8   9
ATOM      9  C   UNL     1      45.985   8.416  12.656  0.00  0.00    +0.000 C 
BRANCH   9  10
ATOM     10  N   UNL     1      45.127   7.935  11.568  0.00  0.00    +0.000 NA
ATOM     34  H   UNL     1      45.612   8.083  10.683  0.00  0.00    +0.000 HD
BRANCH  10  11
ATOM     11  C   UNL     1      44.737   6.517  11.698  0.00  0.00    +0.000 C 
ATOM     12  C   UNL     1      43.222   6.326  11.421  0.00  0.00    +0.000 C 
ATOM     13  C   UNL     1      42.829   4.846  11.533  0.00  0.00    +0.000 C 
ATOM     14  C   UNL     1      43.611   4.035  10.492  0.00  0.00    +0.000 C 
ATOM     15  C   UNL     1      45.121   4.185  10.738  0.00  0.00    +0.000 C 
ATOM     16  C   UNL     1      45.452   3.656  12.142  0.00  0.00    +0.000 C 
ATOM     17  C   UNL     1      44.685   4.463  13.198  0.00  0.00    +0.000 C 
ATOM     18  C   UNL     1      43.173   4.341  12.945  0.00  0.00    +0.000 C 
ATOM     19  C   UNL     1      45.091   5.940  13.096  0.00  0.00    +0.000 C 
ATOM     20  C   UNL     1      45.512   5.676  10.642  0.00  0.00    +0.000 C 
ENDBRANCH  10  11
ENDBRANCH   9  10
ENDBRANCH   8   9
TORSDOF 6
ENDMDL
MODEL 6
REMARK VINA RESULT:    -7.058      7.223     10.611
REMARK INTER + INTRA:         -10.695
REMARK INTER:                  -9.537
REMARK INTRA:                  -1.158
REMARK UNBOUND:                -1.161
REMARK  Name = 
REMARK  6 active torsions:
REMARK  status: ('A' for Active; 'I' for Inactive)
REMARK    1  A    between atoms: C_2  and  C_23
REMARK    2  A    between atoms: N_3  and  C_4
REMARK    3  A    between atoms: C_4  and  C_5
REMARK    4  A    between atoms: C_8  and  C_9
REMARK    5  A    between atoms: C_9  and  N_10
REMARK    6  A    between atoms: N_10  and  C_11
REMARK                            x       y       z     vdW  Elec       q    Type
REMARK                         _______ _______ _______ _____ _____    ______ ____
ROOT
ATOM      5  C   UNL     1      49.107   4.688  18.186  0.00  0.00    +0.000 A 
ATOM      6  C   UNL     1      48.382   3.493  18.081  0.00  0.00    +0.000 A 
ATOM      7  C   UNL     1      47.540   3.268  16.991  0.00  0.00    +0.000 A 
ATOM      8  C   UNL     1      47.418   4.230  15.982  0.00  0.00    +0.000 A 
ATOM     21  C   UNL     1      48.164   5.413  16.075  0.00  0.00    +0.000 A 
ATOM     22  C   UNL     1      49.008   5.638  17.162  0.00  0.00    +0.000 A 
ENDROOT
BRANCH   5   4
ATOM      4  C   UNL     1      50.015   4.927  19.361  0.00  0.00    +0.000 C 
BRANCH   4   3
ATOM      1  O   UNL     1      52.455   5.366  18.041  0.00  0.00    +0.000 OA
ATOM      2  C   UNL     1      52.320   4.351  18.719  0.00  0.00    +0.000 C 
ATOM      3  N   UNL     1      51.139   4.027  19.334  0.00  0.00    +0.000 N 
ATOM     33  H   UNL     1      51.130   3.289  20.028  0.00  0.00    +0.000 HD
BRANCH   2  23
ATOM     23  C   UNL     1      53.413   3.382  18.869  0.00  0.00    +0.000 A 
ATOM     24  C   UNL     1      54.585   3.764  19.504  0.00  0.00    +0.000 A 
ATOM     25  S   UNL     1      55.750   2.523  19.590  0.00  0.00    +0.000 S 
ATOM     26  C   UNL     1      54.706   1.414  18.831  0.00  0.00    +0.000 A 
ATOM     27  N   UNL     1      55.083   0.125  18.629  0.00  0.00    +0.000 NA
ATOM     28  C   UNL     1      54.177  -0.619  18.090  0.00  0.00    +0.000 A 
ATOM     29  N   UNL     1      52.931  -0.184  17.715  0.00  0.00    +0.000 N 
ATOM     30  C   UNL     1      52.542   1.129  17.817  0.00  0.00    +0.000 A 
ATOM     31  O   UNL     1      51.482   1.513  17.328  0.00  0.00    +0.000 OA
ATOM     32  C   UNL     1      53.500   1.994  18.479  0.00  0.00    +0.000 A 
ATOM     35  H   UNL     1      52.281  -0.810  17.263  0.00  0.00    +0.000 HD
ENDBRANCH   2  23
ENDBRANCH   4   3
ENDBRANCH   5   4
BRANCH   8   9
ATOM      9  C   UNL     1      46.587   3.962  14.754  0.00  0.00    +0.000 C 
BRANCH   9  10
ATOM     10  N   UNL     1      46.193   5.178  14.036  0.00  0.00    +0.000 NA
ATOM     34  H   UNL     1      47.036   5.656  13.720  0.00  0.00    +0.000 HD
BRANCH  10  11
ATOM     11  C   UNL     1      45.296   4.930  12.890  0.00  0.00    +0.000 C 
ATOM     12  C   UNL     1      45.550   5.950  11.749  0.00  0.00    +0.000 C 
ATOM     13  C   UNL     1      44.632   5.670  10.551  0.00  0.00    +0.000 C 
ATOM     14  C   UNL     1      44.924   4.265  10.008  0.00  0.00    +0.000 C 
ATOM     15  C   UNL     1      44.670   3.217  11.105  0.00  0.00    +0.000 C 
ATOM     16  C   UNL     1      43.198   3.297  11.538  0.00  0.00    +0.000 C 
ATOM     17  C   UNL     1      42.891   4.694  12.092  0.00  0.00    +0.000 C 
ATOM     18  C   UNL     1      43.167   5.752  11.011  0.00  0.00    +0.000 C 
ATOM     19  C   UNL     1      43.798   4.966  13.301  0.00  0.00    +0.000 C 
ATOM     20  C   UNL     1      45.582   3.511  12.316  0.00  0.00    +0.000 C 
ENDBRANCH  10  11
ENDBRANCH   9  10
ENDBRANCH   8   9
TORSDOF 6
ENDMDL
MODEL 7
REMARK VINA RESULT:    -6.974      5.007      7.332
REMARK INTER + INTRA:         -10.582
REMARK INTER:                  -9.466
REMARK INTRA:                  -1.116
REMARK UNBOUND:                -1.161
REMARK  Name = 
REMARK  6 active torsions:
REMARK  status: ('A' for Active; 'I' for Inactive)
REMARK    1  A    between atoms: C_2  and  C_23
REMARK    2  A    between atoms: N_3  and  C_4
REMARK    3  A    between atoms: C_4  and  C_5
REMARK    4  A    between atoms: C_8  and  C_9
REMARK    5  A    between atoms: C_9  and  N_10
REMARK    6  A    between atoms: N_10  and  C_11
REMARK                            x       y       z     vdW  Elec       q    Type
REMARK                         _______ _______ _______ _____ _____    ______ ____
ROOT
ATOM      5  C   UNL     1      45.282   4.361  12.623  0.00  0.00    +0.000 A 
ATOM      6  C   UNL     1      45.182   5.751  12.479  0.00  0.00    +0.000 A 
ATOM      7  C   UNL     1      46.117   6.595  13.080  0.00  0.00    +0.000 A 
ATOM      8  C   UNL     1      47.174   6.061  13.825  0.00  0.00    +0.000 A 
ATOM     21  C   UNL     1      47.288   4.669  13.946  0.00  0.00    +0.000 A 
ATOM     22  C   UNL     1      46.357   3.825  13.343  0.00  0.00    +0.000 A 
ENDROOT
BRANCH   5   4
ATOM      4  C   UNL     1      44.274   3.454  11.972  0.00  0.00    +0.000 C 
BRANCH   4   3
ATOM      1  O   UNL     1      44.073   3.894   9.204  0.00  0.00    +0.000 OA
ATOM      2  C   UNL     1      44.792   2.985   9.612  0.00  0.00    +0.000 C 
ATOM      3  N   UNL     1      44.887   2.659  10.939  0.00  0.00    +0.000 N 
ATOM     33  H   UNL     1      45.626   2.036  11.243  0.00  0.00    +0.000 HD
BRANCH   2  23
ATOM     23  C   UNL     1      45.561   2.146   8.684  0.00  0.00    +0.000 A 
ATOM     24  C   UNL     1      45.452   0.765   8.758  0.00  0.00    +0.000 A 
ATOM     25  S   UNL     1      46.414  -0.056   7.614  0.00  0.00    +0.000 S 
ATOM     26  C   UNL     1      46.967   1.407   6.945  0.00  0.00    +0.000 A 
ATOM     27  N   UNL     1      47.809   1.414   5.879  0.00  0.00    +0.000 NA
ATOM     28  C   UNL     1      48.108   2.590   5.441  0.00  0.00    +0.000 A 
ATOM     29  N   UNL     1      47.655   3.765   5.987  0.00  0.00    +0.000 N 
ATOM     30  C   UNL     1      46.877   3.806   7.118  0.00  0.00    +0.000 A 
ATOM     31  O   UNL     1      46.622   4.874   7.670  0.00  0.00    +0.000 OA
ATOM     32  C   UNL     1      46.457   2.508   7.611  0.00  0.00    +0.000 A 
ATOM     35  H   UNL     1      47.958   4.654   5.619  0.00  0.00    +0.000 HD
ENDBRANCH   2  23
ENDBRANCH   4   3
ENDBRANCH   5   4
BRANCH   8   9
ATOM      9  C   UNL     1      48.243   6.953  14.401  0.00  0.00    +0.000 C 
BRANCH   9  10
ATOM     10  N   UNL     1      49.261   6.228  15.170  0.00  0.00    +0.000 NA
ATOM     34  H   UNL     1      50.181   6.488  14.815  0.00  0.00    +0.000 HD
BRANCH  10  11
ATOM     11  C   UNL     1      49.195   6.473  16.624  0.00  0.00    +0.000 C 
ATOM     12  C   UNL     1      50.606   6.407  17.267  0.00  0.00    +0.000 C 
ATOM     13  C   UNL     1      50.533   6.688  18.775  0.00  0.00    +0.000 C 
ATOM     14  C   UNL     1      49.971   8.097  19.000  0.00  0.00    +0.000 C 
ATOM     15  C   UNL     1      48.564   8.203  18.390  0.00  0.00    +0.000 C 
ATOM     16  C   UNL     1      47.646   7.177  19.073  0.00  0.00    +0.000 C 
ATOM     17  C   UNL     1      48.189   5.760  18.850  0.00  0.00    +0.000 C 
ATOM     18  C   UNL     1      49.607   5.651  19.433  0.00  0.00    +0.000 C 
ATOM     19  C   UNL     1      48.246   5.475  17.342  0.00  0.00    +0.000 C 
ATOM     20  C   UNL     1      48.636   7.904  16.877  0.00  0.00    +0.000 C 
ENDBRANCH  10  11
ENDBRANCH   9  10
ENDBRANCH   8   9
TORSDOF 6
ENDMDL
MODEL 8
REMARK VINA RESULT:    -6.931      6.187      9.626
REMARK INTER + INTRA:         -10.523
REMARK INTER:                  -9.346
REMARK INTRA:                  -1.177
REMARK UNBOUND:                -1.161
REMARK  Name = 
REMARK  6 active torsions:
REMARK  status: ('A' for Active; 'I' for Inactive)
REMARK    1  A    between atoms: C_2  and  C_23
REMARK    2  A    between atoms: N_3  and  C_4
REMARK    3  A    between atoms: C_4  and  C_5
REMARK    4  A    between atoms: C_8  and  C_9
REMARK    5  A    between atoms: C_9  and  N_10
REMARK    6  A    between atoms: N_10  and  C_11
REMARK                            x       y       z     vdW  Elec       q    Type
REMARK                         _______ _______ _______ _____ _____    ______ ____
ROOT
ATOM      5  C   UNL     1      50.594   7.371  15.821  0.00  0.00    +0.000 A 
ATOM      6  C   UNL     1      49.445   6.686  16.241  0.00  0.00    +0.000 A 
ATOM      7  C   UNL     1      48.388   6.466  15.357  0.00  0.00    +0.000 A 
ATOM      8  C   UNL     1      48.468   6.917  14.034  0.00  0.00    +0.000 A 
ATOM     21  C   UNL     1      49.629   7.579  13.609  0.00  0.00    +0.000 A 
ATOM     22  C   UNL     1      50.687   7.796  14.491  0.00  0.00    +0.000 A 
ENDROOT
BRANCH   5   4
ATOM      4  C   UNL     1      51.732   7.605  16.777  0.00  0.00    +0.000 C 
BRANCH   4   3
ATOM      1  O   UNL     1      51.883   6.510  19.360  0.00  0.00    +0.000 OA
ATOM      2  C   UNL     1      52.335   5.869  18.414  0.00  0.00    +0.000 C 
ATOM      3  N   UNL     1      52.366   6.363  17.136  0.00  0.00    +0.000 N 
ATOM     33  H   UNL     1      52.570   5.734  16.369  0.00  0.00    +0.000 HD
BRANCH   2  23
ATOM     23  C   UNL     1      52.927   4.539  18.606  0.00  0.00    +0.000 A 
ATOM     24  C   UNL     1      54.128   4.415  19.290  0.00  0.00    +0.000 A 
ATOM     25  S   UNL     1      54.675   2.806  19.420  0.00  0.00    +0.000 S 
ATOM     26  C   UNL     1      53.298   2.214  18.615  0.00  0.00    +0.000 A 
ATOM     27  N   UNL     1      53.120   0.880  18.425  0.00  0.00    +0.000 NA
ATOM     28  C   UNL     1      52.010   0.566  17.847  0.00  0.00    +0.000 A 
ATOM     29  N   UNL     1      51.068   1.469  17.422  0.00  0.00    +0.000 N 
ATOM     30  C   UNL     1      51.249   2.828  17.512  0.00  0.00    +0.000 A 
ATOM     31  O   UNL     1      50.461   3.606  16.981  0.00  0.00    +0.000 OA
ATOM     32  C   UNL     1      52.451   3.233  18.215  0.00  0.00    +0.000 A 
ATOM     35  H   UNL     1      50.237   1.159  16.942  0.00  0.00    +0.000 HD
ENDBRANCH   2  23
ENDBRANCH   4   3
ENDBRANCH   5   4
BRANCH   8   9
ATOM      9  C   UNL     1      47.377   6.605  13.043  0.00  0.00    +0.000 C 
BRANCH   9  10
ATOM     10  N   UNL     1      46.163   6.061  13.659  0.00  0.00    +0.000 NA
ATOM     34  H   UNL     1      45.602   6.838  14.011  0.00  0.00    +0.000 HD
BRANCH  10  11
ATOM     11  C   UNL     1      45.352   5.229  12.747  0.00  0.00    +0.000 C 
ATOM     12  C   UNL     1      43.835   5.427  13.008  0.00  0.00    +0.000 C 
ATOM     13  C   UNL     1      42.999   4.579  12.040  0.00  0.00    +0.000 C 
ATOM     14  C   UNL     1      43.297   5.015  10.599  0.00  0.00    +0.000 C 
ATOM     15  C   UNL     1      44.791   4.821  10.292  0.00  0.00    +0.000 C 
ATOM     16  C   UNL     1      45.144   3.335  10.454  0.00  0.00    +0.000 C 
ATOM     17  C   UNL     1      44.861   2.884  11.892  0.00  0.00    +0.000 C 
ATOM     18  C   UNL     1      43.374   3.098  12.219  0.00  0.00    +0.000 C 
ATOM     19  C   UNL     1      45.710   3.722  12.859  0.00  0.00    +0.000 C 
ATOM     20  C   UNL     1      45.631   5.662  11.278  0.00  0.00    +0.000 C 
ENDBRANCH  10  11
ENDBRANCH   9  10
ENDBRANCH   8   9
TORSDOF 6
ENDMDL
MODEL 9
REMARK VINA RESULT:    -6.888      3.414      5.483
REMARK INTER + INTRA:         -10.465
REMARK INTER:                  -9.622
REMARK INTRA:                  -0.843
REMARK UNBOUND:                -1.161
REMARK  Name = 
REMARK  6 active torsions:
REMARK  status: ('A' for Active; 'I' for Inactive)
REMARK    1  A    between atoms: C_2  and  C_23
REMARK    2  A    between atoms: N_3  and  C_4
REMARK    3  A    between atoms: C_4  and  C_5
REMARK    4  A    between atoms: C_8  and  C_9
REMARK    5  A    between atoms: C_9  and  N_10
REMARK    6  A    between atoms: N_10  and  C_11
REMARK                            x       y       z     vdW  Elec       q    Type
REMARK                         _______ _______ _______ _____ _____    ______ ____
ROOT
ATOM      5  C   UNL     1      44.344   4.558  12.090  0.00  0.00    +0.000 A 
ATOM      6  C   UNL     1      45.500   4.498  12.881  0.00  0.00    +0.000 A 
ATOM      7  C   UNL     1      46.182   5.665  13.229  0.00  0.00    +0.000 A 
ATOM      8  C   UNL     1      45.713   6.912  12.800  0.00  0.00    +0.000 A 
ATOM     21  C   UNL     1      44.542   6.972  12.031  0.00  0.00    +0.000 A 
ATOM     22  C   UNL     1      43.858   5.807  11.686  0.00  0.00    +0.000 A 
ENDROOT
BRANCH   5   4
ATOM      4  C   UNL     1      43.610   3.298  11.718  0.00  0.00    +0.000 C 
BRANCH   4   3
ATOM      1  O   UNL     1      43.976   3.932   9.006  0.00  0.00    +0.000 OA
ATOM      2  C   UNL     1      44.545   2.946   9.469  0.00  0.00    +0.000 C 
ATOM      3  N   UNL     1      44.361   2.528  10.761  0.00  0.00    +0.000 N 
ATOM     33  H   UNL     1      44.988   1.833  11.148  0.00  0.00    +0.000 HD
BRANCH   2  23
ATOM     23  C   UNL     1      45.426   2.114   8.640  0.00  0.00    +0.000 A 
ATOM     24  C   UNL     1      45.338   0.732   8.720  0.00  0.00    +0.000 A 
ATOM     25  S   UNL     1      46.433  -0.081   7.697  0.00  0.00    +0.000 S 
ATOM     26  C   UNL     1      47.023   1.386   7.070  0.00  0.00    +0.000 A 
ATOM     27  N   UNL     1      47.974   1.399   6.100  0.00  0.00    +0.000 NA
ATOM     28  C   UNL     1      48.294   2.576   5.680  0.00  0.00    +0.000 A 
ATOM     29  N   UNL     1      47.762   3.747   6.159  0.00  0.00    +0.000 N 
ATOM     30  C   UNL     1      46.867   3.784   7.200  0.00  0.00    +0.000 A 
ATOM     31  O   UNL     1      46.532   4.852   7.706  0.00  0.00    +0.000 OA
ATOM     32  C   UNL     1      46.424   2.483   7.663  0.00  0.00    +0.000 A 
ATOM     35  H   UNL     1      48.084   4.639   5.813  0.00  0.00    +0.000 HD
ENDBRANCH   2  23
ENDBRANCH   4   3
ENDBRANCH   5   4
BRANCH   8   9
ATOM      9  C   UNL     1      46.384   8.185  13.245  0.00  0.00    +0.000 C 
BRANCH   9  10
ATOM     10  N   UNL     1      46.947   8.969  12.140  0.00  0.00    +0.000 NA
ATOM     34  H   UNL     1      46.470   9.870  12.105  0.00  0.00    +0.000 HD
BRANCH  10  11
ATOM     11  C   UNL     1      48.405   9.175  12.238  0.00  0.00    +0.000 C 
ATOM     12  C   UNL     1      49.182   7.914  11.774  0.00  0.00    +0.000 C 
ATOM     13  C   UNL     1      50.697   8.146  11.855  0.00  0.00    +0.000 C 
ATOM     14  C   UNL     1      51.081   9.309  10.932  0.00  0.00    +0.000 C 
ATOM     15  C   UNL     1      50.344  10.587  11.365  0.00  0.00    +0.000 C 
ATOM     16  C   UNL     1      50.748  10.931  12.807  0.00  0.00    +0.000 C 
ATOM     17  C   UNL     1      50.363   9.780  13.746  0.00  0.00    +0.000 C 
ATOM     18  C   UNL     1      51.075   8.491  13.305  0.00  0.00    +0.000 C 
ATOM     19  C   UNL     1      48.845   9.561  13.677  0.00  0.00    +0.000 C 
ATOM     20  C   UNL     1      48.819  10.347  11.300  0.00  0.00    +0.000 C 
ENDBRANCH  10  11
ENDBRANCH   9  10
ENDBRANCH   8   9
TORSDOF 6
ENDMDL
