MODEL 1
REMARK VINA RESULT:    -6.458      0.000      0.000
REMARK INTER + INTRA:         -13.699
REMARK INTER:                 -11.365
REMARK INTRA:                  -2.333
REMARK UNBOUND:                -2.333
REMARK  Name = 
REMARK  15 active torsions:
REMARK  status: ('A' for Active; 'I' for Inactive)
REMARK    1  A    between atoms: C_1  and  C_2
REMARK    2  A    between atoms: C_2  and  C_3
REMARK    3  A    between atoms: C_3  and  C_4
REMARK    4  A    between atoms: C_4  and  C_5
REMARK    5  A    between atoms: C_5  and  C_6
REMARK    6  A    between atoms: C_6  and  C_7
REMARK    7  A    between atoms: C_7  and  C_8
REMARK    8  A    between atoms: C_8  and  N_9
REMARK    9  A    between atoms: N_9  and  C_10
REMARK   10  A    between atoms: C_10  and  C_11
REMARK   11  A    between atoms: C_14  and  C_15
REMARK   12  A    between atoms: C_15  and  N_16
REMARK   13  A    between atoms: C_17  and  C_19
REMARK   14  A    between atoms: C_26  and  O_27
REMARK   15  A    between atoms: O_27  and  C_28
REMARK                            x       y       z     vdW  Elec       q    Type
REMARK                         _______ _______ _______ _____ _____    ______ ____
ROOT
ATOM     11  C   UNL     1      44.825   7.511  11.545  0.00  0.00    +0.000 A 
ATOM     12  C   UNL     1      45.766   6.598  11.046  0.00  0.00    +0.000 A 
ATOM     13  C   UNL     1      47.092   6.624  11.477  0.00  0.00    +0.000 A 
ATOM     14  C   UNL     1      47.520   7.577  12.414  0.00  0.00    +0.000 A 
ATOM     30  C   UNL     1      46.579   8.501  12.894  0.00  0.00    +0.000 A 
ATOM     31  C   UNL     1      45.242   8.461  12.482  0.00  0.00    +0.000 A 
ENDROOT
BRANCH  11  10
ATOM     10  C   UNL     1      43.402   7.488  11.045  0.00  0.00    +0.000 C 
BRANCH  10   9
ATOM      9  N   UNL     1      42.995   6.133  10.686  0.00  0.00    +0.000 NA
ATOM     32  H   UNL     1      42.372   6.166   9.882  0.00  0.00    +0.000 HD
BRANCH   9   8
ATOM      8  C   UNL     1      42.311   5.486  11.795  0.00  0.00    +0.000 C 
BRANCH   8   7
ATOM      7  C   UNL     1      43.274   4.512  12.463  0.00  0.00    +0.000 C 
BRANCH   7   6
ATOM      6  C   UNL     1      43.368   3.239  11.635  0.00  0.00    +0.000 C 
BRANCH   6   5
ATOM      5  C   UNL     1      44.690   3.177  10.884  0.00  0.00    +0.000 C 
BRANCH   5   4
ATOM      4  C   UNL     1      44.471   2.640   9.475  0.00  0.00    +0.000 C 
BRANCH   4   3
ATOM      3  C   UNL     1      44.537   3.771   8.457  0.00  0.00    +0.000 C 
BRANCH   3   2
ATOM      1  C   UNL     1      46.553   3.043   7.163  0.00  0.00    +0.000 C 
ATOM      2  C   UNL     1      45.983   4.095   8.097  0.00  0.00    +0.000 C 
ENDBRANCH   3   2
ENDBRANCH   4   3
ENDBRANCH   5   4
ENDBRANCH   6   5
ENDBRANCH   7   6
ENDBRANCH   8   7
ENDBRANCH   9   8
ENDBRANCH  10   9
ENDBRANCH  11  10
BRANCH  14  15
ATOM     15  C   UNL     1      48.946   7.609  12.903  0.00  0.00    +0.000 C 
BRANCH  15  16
ATOM     16  N   UNL     1      49.151   6.778  14.063  0.00  0.00    +0.000 N 
ATOM     17  C   UNL     1      49.066   7.276  15.346  0.00  0.00    +0.000 C 
ATOM     18  O   UNL     1      48.755   8.431  15.581  0.00  0.00    +0.000 OA
ATOM     33  H   UNL     1      49.672   5.926  13.919  0.00  0.00    +0.000 HD
BRANCH  17  19
ATOM     19  C   UNL     1      49.322   6.306  16.426  0.00  0.00    +0.000 A 
ATOM     20  C   UNL     1      50.361   6.518  17.323  0.00  0.00    +0.000 A 
ATOM     21  S   UNL     1      50.499   5.291  18.501  0.00  0.00    +0.000 S 
ATOM     22  C   UNL     1      49.197   4.427  17.831  0.00  0.00    +0.000 A 
ATOM     23  N   UNL     1      48.814   3.253  18.363  0.00  0.00    +0.000 NA
ATOM     24  C   UNL     1      47.781   2.708  17.715  0.00  0.00    +0.000 A 
ATOM     25  N   UNL     1      47.129   3.202  16.653  0.00  0.00    +0.000 NA
ATOM     26  C   UNL     1      47.556   4.376  16.157  0.00  0.00    +0.000 A 
ATOM     29  C   UNL     1      48.633   5.064  16.735  0.00  0.00    +0.000 A 
BRANCH  26  27
ATOM     27  O   UNL     1      46.932   4.924  15.061  0.00  0.00    +0.000 OA
ATOM     28  C   UNL     1      46.771   4.060  13.950  0.00  0.00    +0.000 C 
ENDBRANCH  26  27
ENDBRANCH  17  19
ENDBRANCH  15  16
ENDBRANCH  14  15
TORSDOF 13
ENDMDL
MODEL 2
REMARK VINA RESULT:    -6.432      1.582      2.425
REMARK INTER + INTRA:         -13.654
REMARK INTER:                 -11.814
REMARK INTRA:                  -1.840
REMARK UNBOUND:                -2.333
REMARK  Name = 
REMARK  15 active torsions:
REMARK  status: ('A' for Active; 'I' for Inactive)
REMARK    1  A    between atoms: C_1  and  C_2
REMARK    2  A    between atoms: C_2  and  C_3
REMARK    3  A    between atoms: C_3  and  C_4
REMARK    4  A    between atoms: C_4  and  C_5
REMARK    5  A    between atoms: C_5  and  C_6
REMARK    6  A    between atoms: C_6  and  C_7
REMARK    7  A    between atoms: C_7  and  C_8
REMARK    8  A    between atoms: C_8  and  N_9
REMARK    9  A    between atoms: N_9  and  C_10
REMARK   10  A    between atoms: C_10  and  C_11
REMARK   11  A    between atoms: C_14  and  C_15
REMARK   12  A    between atoms: C_15  and  N_16
REMARK   13  A    between atoms: C_17  and  C_19
REMARK   14  A    between atoms: C_26  and  O_27
REMARK   15  A    between atoms: O_27  and  C_28
REMARK                            x       y       z     vdW  Elec       q    Type
REMARK                         _______ _______ _______ _____ _____    ______ ____
ROOT
ATOM     11  C   UNL     1      44.690   5.544  12.823  0.00  0.00    +0.000 A 
ATOM     12  C   UNL     1      45.864   4.893  13.226  0.00  0.00    +0.000 A 
ATOM     13  C   UNL     1      47.112   5.494  13.066  0.00  0.00    +0.000 A 
ATOM     14  C   UNL     1      47.222   6.766  12.483  0.00  0.00    +0.000 A 
ATOM     30  C   UNL     1      46.046   7.404  12.062  0.00  0.00    +0.000 A 
ATOM     31  C   UNL     1      44.790   6.813  12.245  0.00  0.00    +0.000 A 
ENDROOT
BRANCH  11  10
ATOM     10  C   UNL     1      43.351   4.865  12.976  0.00  0.00    +0.000 C 
BRANCH  10   9
ATOM      9  N   UNL     1      42.922   4.263  11.717  0.00  0.00    +0.000 NA
ATOM     32  H   UNL     1      41.909   4.165  11.713  0.00  0.00    +0.000 HD
BRANCH   9   8
ATOM      8  C   UNL     1      43.530   2.954  11.536  0.00  0.00    +0.000 C 
BRANCH   8   7
ATOM      7  C   UNL     1      44.115   2.876  10.131  0.00  0.00    +0.000 C 
BRANCH   7   6
ATOM      6  C   UNL     1      44.242   4.278   9.554  0.00  0.00    +0.000 C 
BRANCH   6   5
ATOM      5  C   UNL     1      45.480   4.394   8.677  0.00  0.00    +0.000 C 
BRANCH   5   4
ATOM      4  C   UNL     1      45.453   3.332   7.584  0.00  0.00    +0.000 C 
BRANCH   4   3
ATOM      3  C   UNL     1      46.732   3.382   6.760  0.00  0.00    +0.000 C 
BRANCH   3   2
ATOM      1  C   UNL     1      46.743   1.045   7.657  0.00  0.00    +0.000 C 
ATOM      2  C   UNL     1      47.564   2.122   6.969  0.00  0.00    +0.000 C 
ENDBRANCH   3   2
ENDBRANCH   4   3
ENDBRANCH   5   4
ENDBRANCH   6   5
ENDBRANCH   7   6
ENDBRANCH   8   7
ENDBRANCH   9   8
ENDBRANCH  10   9
ENDBRANCH  11  10
BRANCH  14  15
ATOM     15  C   UNL     1      48.561   7.438  12.316  0.00  0.00    +0.000 C 
BRANCH  15  16
ATOM     16  N   UNL     1      49.508   7.041  13.328  0.00  0.00    +0.000 N 
ATOM     17  C   UNL     1      49.525   7.613  14.582  0.00  0.00    +0.000 C 
ATOM     18  O   UNL     1      48.707   8.447  14.933  0.00  0.00    +0.000 OA
ATOM     33  H   UNL     1      50.349   6.587  13.003  0.00  0.00    +0.000 HD
BRANCH  17  19
ATOM     19  C   UNL     1      50.567   7.115  15.498  0.00  0.00    +0.000 A 
ATOM     20  C   UNL     1      51.828   7.698  15.505  0.00  0.00    +0.000 A 
ATOM     21  S   UNL     1      52.895   6.989  16.632  0.00  0.00    +0.000 S 
ATOM     22  C   UNL     1      51.716   5.866  17.122  0.00  0.00    +0.000 A 
ATOM     23  N   UNL     1      52.003   4.942  18.056  0.00  0.00    +0.000 NA
ATOM     24  C   UNL     1      50.969   4.140  18.320  0.00  0.00    +0.000 A 
ATOM     25  N   UNL     1      49.745   4.178  17.776  0.00  0.00    +0.000 NA
ATOM     26  C   UNL     1      49.512   5.117  16.844  0.00  0.00    +0.000 A 
ATOM     29  C   UNL     1      50.507   6.030  16.463  0.00  0.00    +0.000 A 
BRANCH  26  27
ATOM     27  O   UNL     1      48.277   5.194  16.243  0.00  0.00    +0.000 OA
ATOM     28  C   UNL     1      47.267   4.378  16.807  0.00  0.00    +0.000 C 
ENDBRANCH  26  27
ENDBRANCH  17  19
ENDBRANCH  15  16
ENDBRANCH  14  15
TORSDOF 13
ENDMDL
MODEL 3
REMARK VINA RESULT:    -6.086      1.687      2.450
REMARK INTER + INTRA:         -13.044
REMARK INTER:                 -11.280
REMARK INTRA:                  -1.764
REMARK UNBOUND:                -2.333
REMARK  Name = 
REMARK  15 active torsions:
REMARK  status: ('A' for Active; 'I' for Inactive)
REMARK    1  A    between atoms: C_1  and  C_2
REMARK    2  A    between atoms: C_2  and  C_3
REMARK    3  A    between atoms: C_3  and  C_4
REMARK    4  A    between atoms: C_4  and  C_5
REMARK    5  A    between atoms: C_5  and  C_6
REMARK    6  A    between atoms: C_6  and  C_7
REMARK    7  A    between atoms: C_7  and  C_8
REMARK    8  A    between atoms: C_8  and  N_9
REMARK    9  A    between atoms: N_9  and  C_10
REMARK   10  A    between atoms: C_10  and  C_11
REMARK   11  A    between atoms: C_14  and  C_15
REMARK   12  A    between atoms: C_15  and  N_16
REMARK   13  A    between atoms: C_17  and  C_19
REMARK   14  A    between atoms: C_26  and  O_27
REMARK   15  A    between atoms: O_27  and  C_28
REMARK                            x       y       z     vdW  Elec       q    Type
REMARK                         _______ _______ _______ _____ _____    ______ ____
ROOT
ATOM     11  C   UNL     1      46.125   6.740  12.163  0.00  0.00    +0.000 A 
ATOM     12  C   UNL     1      46.093   8.071  12.605  0.00  0.00    +0.000 A 
ATOM     13  C   UNL     1      46.966   8.521  13.595  0.00  0.00    +0.000 A 
ATOM     14  C   UNL     1      47.892   7.646  14.182  0.00  0.00    +0.000 A 
ATOM     30  C   UNL     1      47.906   6.311  13.751  0.00  0.00    +0.000 A 
ATOM     31  C   UNL     1      47.048   5.863  12.739  0.00  0.00    +0.000 A 
ENDROOT
BRANCH  11  10
ATOM     10  C   UNL     1      45.153   6.263  11.112  0.00  0.00    +0.000 C 
BRANCH  10   9
ATOM      9  N   UNL     1      44.007   5.596  11.723  0.00  0.00    +0.000 NA
ATOM     32  H   UNL     1      44.266   5.247  12.643  0.00  0.00    +0.000 HD
BRANCH   9   8
ATOM      8  C   UNL     1      43.554   4.485  10.900  0.00  0.00    +0.000 C 
BRANCH   8   7
ATOM      7  C   UNL     1      44.670   3.452  10.814  0.00  0.00    +0.000 C 
BRANCH   7   6
ATOM      6  C   UNL     1      44.615   2.754   9.462  0.00  0.00    +0.000 C 
BRANCH   6   5
ATOM      5  C   UNL     1      44.659   3.765   8.327  0.00  0.00    +0.000 C 
BRANCH   5   4
ATOM      4  C   UNL     1      46.103   4.059   7.939  0.00  0.00    +0.000 C 
BRANCH   4   3
ATOM      3  C   UNL     1      46.459   3.352   6.637  0.00  0.00    +0.000 C 
BRANCH   3   2
ATOM      1  C   UNL     1      47.217   1.058   7.292  0.00  0.00    +0.000 C 
ATOM      2  C   UNL     1      47.660   2.434   6.827  0.00  0.00    +0.000 C 
ENDBRANCH   3   2
ENDBRANCH   4   3
ENDBRANCH   5   4
ENDBRANCH   6   5
ENDBRANCH   7   6
ENDBRANCH   8   7
ENDBRANCH   9   8
ENDBRANCH  10   9
ENDBRANCH  11  10
BRANCH  14  15
ATOM     15  C   UNL     1      48.854   8.119  15.243  0.00  0.00    +0.000 C 
BRANCH  15  16
ATOM     16  N   UNL     1      49.702   7.061  15.731  0.00  0.00    +0.000 N 
ATOM     17  C   UNL     1      50.001   6.919  17.070  0.00  0.00    +0.000 C 
ATOM     18  O   UNL     1      49.522   7.641  17.928  0.00  0.00    +0.000 OA
ATOM     33  H   UNL     1      50.325   6.638  15.059  0.00  0.00    +0.000 HD
BRANCH  17  19
ATOM     19  C   UNL     1      50.899   5.801  17.409  0.00  0.00    +0.000 A 
ATOM     20  C   UNL     1      52.176   6.053  17.894  0.00  0.00    +0.000 A 
ATOM     21  S   UNL     1      53.064   4.636  18.231  0.00  0.00    +0.000 S 
ATOM     22  C   UNL     1      51.782   3.645  17.714  0.00  0.00    +0.000 A 
ATOM     23  N   UNL     1      51.910   2.306  17.723  0.00  0.00    +0.000 NA
ATOM     24  C   UNL     1      50.813   1.683  17.284  0.00  0.00    +0.000 A 
ATOM     25  N   UNL     1      49.668   2.239  16.868  0.00  0.00    +0.000 NA
ATOM     26  C   UNL     1      49.594   3.581  16.872  0.00  0.00    +0.000 A 
ATOM     29  C   UNL     1      50.671   4.369  17.308  0.00  0.00    +0.000 A 
BRANCH  26  27
ATOM     27  O   UNL     1      48.447   4.206  16.444  0.00  0.00    +0.000 OA
ATOM     28  C   UNL     1      47.234   3.679  16.951  0.00  0.00    +0.000 C 
ENDBRANCH  26  27
ENDBRANCH  17  19
ENDBRANCH  15  16
ENDBRANCH  14  15
TORSDOF 13
ENDMDL
MODEL 4
REMARK VINA RESULT:    -5.971      2.434      3.313
REMARK INTER + INTRA:         -12.842
REMARK INTER:                 -11.514
REMARK INTRA:                  -1.328
REMARK UNBOUND:                -2.333
REMARK  Name = 
REMARK  15 active torsions:
REMARK  status: ('A' for Active; 'I' for Inactive)
REMARK    1  A    between atoms: C_1  and  C_2
REMARK    2  A    between atoms: C_2  and  C_3
REMARK    3  A    between atoms: C_3  and  C_4
REMARK    4  A    between atoms: C_4  and  C_5
REMARK    5  A    between atoms: C_5  and  C_6
REMARK    6  A    between atoms: C_6  and  C_7
REMARK    7  A    between atoms: C_7  and  C_8
REMARK    8  A    between atoms: C_8  and  N_9
REMARK    9  A    between atoms: N_9  and  C_10
REMARK   10  A    between atoms: C_10  and  C_11
REMARK   11  A    between atoms: C_14  and  C_15
REMARK   12  A    between atoms: C_15  and  N_16
REMARK   13  A    between atoms: C_17  and  C_19
REMARK   14  A    between atoms: C_26  and  O_27
REMARK   15  A    between atoms: O_27  and  C_28
REMARK                            x       y       z     vdW  Elec       q    Type
REMARK                         _______ _______ _______ _____ _____    ______ ____
ROOT
ATOM     11  C   UNL     1      46.641   5.643  13.302  0.00  0.00    +0.000 A 
ATOM     12  C   UNL     1      47.354   6.787  12.916  0.00  0.00    +0.000 A 
ATOM     13  C   UNL     1      48.349   7.325  13.733  0.00  0.00    +0.000 A 
ATOM     14  C   UNL     1      48.651   6.737  14.970  0.00  0.00    +0.000 A 
ATOM     30  C   UNL     1      47.921   5.604  15.360  0.00  0.00    +0.000 A 
ATOM     31  C   UNL     1      46.940   5.048  14.531  0.00  0.00    +0.000 A 
ENDROOT
BRANCH  11  10
ATOM     10  C   UNL     1      45.548   5.092  12.420  0.00  0.00    +0.000 C 
BRANCH  10   9
ATOM      9  N   UNL     1      45.260   3.699  12.749  0.00  0.00    +0.000 NA
ATOM     32  H   UNL     1      46.121   3.158  12.722  0.00  0.00    +0.000 HD
BRANCH   9   8
ATOM      8  C   UNL     1      44.308   3.130  11.808  0.00  0.00    +0.000 C 
BRANCH   8   7
ATOM      7  C   UNL     1      43.901   4.208  10.810  0.00  0.00    +0.000 C 
BRANCH   7   6
ATOM      6  C   UNL     1      44.449   3.860   9.433  0.00  0.00    +0.000 C 
BRANCH   6   5
ATOM      5  C   UNL     1      44.834   2.391   9.357  0.00  0.00    +0.000 C 
BRANCH   5   4
ATOM      4  C   UNL     1      45.862   2.172   8.254  0.00  0.00    +0.000 C 
BRANCH   4   3
ATOM      3  C   UNL     1      45.813   3.311   7.245  0.00  0.00    +0.000 C 
BRANCH   3   2
ATOM      1  C   UNL     1      47.746   1.949   6.423  0.00  0.00    +0.000 C 
ATOM      2  C   UNL     1      46.751   3.043   6.075  0.00  0.00    +0.000 C 
ENDBRANCH   3   2
ENDBRANCH   4   3
ENDBRANCH   5   4
ENDBRANCH   6   5
ENDBRANCH   7   6
ENDBRANCH   8   7
ENDBRANCH   9   8
ENDBRANCH  10   9
ENDBRANCH  11  10
BRANCH  14  15
ATOM     15  C   UNL     1      49.735   7.295  15.858  0.00  0.00    +0.000 C 
BRANCH  15  16
ATOM     16  N   UNL     1      50.633   6.276  16.340  0.00  0.00    +0.000 N 
ATOM     17  C   UNL     1      50.736   5.962  17.679  0.00  0.00    +0.000 C 
ATOM     18  O   UNL     1      50.035   6.483  18.530  0.00  0.00    +0.000 OA
ATOM     33  H   UNL     1      51.406   6.036  15.736  0.00  0.00    +0.000 HD
BRANCH  17  19
ATOM     19  C   UNL     1      51.715   4.913  18.016  0.00  0.00    +0.000 A 
ATOM     20  C   UNL     1      52.941   5.254  18.573  0.00  0.00    +0.000 A 
ATOM     21  S   UNL     1      53.936   3.906  18.896  0.00  0.00    +0.000 S 
ATOM     22  C   UNL     1      52.773   2.832  18.275  0.00  0.00    +0.000 A 
ATOM     23  N   UNL     1      53.021   1.510  18.235  0.00  0.00    +0.000 NA
ATOM     24  C   UNL     1      52.007   0.814  17.717  0.00  0.00    +0.000 A 
ATOM     25  N   UNL     1      50.836   1.285  17.267  0.00  0.00    +0.000 NA
ATOM     26  C   UNL     1      50.642   2.614  17.323  0.00  0.00    +0.000 A 
ATOM     29  C   UNL     1      51.621   3.472  17.844  0.00  0.00    +0.000 A 
BRANCH  26  27
ATOM     27  O   UNL     1      49.463   3.154  16.865  0.00  0.00    +0.000 OA
ATOM     28  C   UNL     1      48.365   3.081  17.757  0.00  0.00    +0.000 C 
ENDBRANCH  26  27
ENDBRANCH  17  19
ENDBRANCH  15  16
ENDBRANCH  14  15
TORSDOF 13
ENDMDL
MODEL 5
REMARK VINA RESULT:    -5.814      2.237      3.836
REMARK INTER + INTRA:         -12.565
REMARK INTER:                 -11.022
REMARK INTRA:                  -1.544
REMARK UNBOUND:                -2.333
REMARK  Name = 
REMARK  15 active torsions:
REMARK  status: ('A' for Active; 'I' for Inactive)
REMARK    1  A    between atoms: C_1  and  C_2
REMARK    2  A    between atoms: C_2  and  C_3
REMARK    3  A    between atoms: C_3  and  C_4
REMARK    4  A    between atoms: C_4  and  C_5
REMARK    5  A    between atoms: C_5  and  C_6
REMARK    6  A    between atoms: C_6  and  C_7
REMARK    7  A    between atoms: C_7  and  C_8
REMARK    8  A    between atoms: C_8  and  N_9
REMARK    9  A    between atoms: N_9  and  C_10
REMARK   10  A    between atoms: C_10  and  C_11
REMARK   11  A    between atoms: C_14  and  C_15
REMARK   12  A    between atoms: C_15  and  N_16
REMARK   13  A    between atoms: C_17  and  C_19
REMARK   14  A    between atoms: C_26  and  O_27
REMARK   15  A    between atoms: O_27  and  C_28
REMARK                            x       y       z     vdW  Elec       q    Type
REMARK                         _______ _______ _______ _____ _____    ______ ____
ROOT
ATOM     11  C   UNL     1      44.782   4.257  11.825  0.00  0.00    +0.000 A 
ATOM     12  C   UNL     1      44.965   5.457  11.123  0.00  0.00    +0.000 A 
ATOM     13  C   UNL     1      45.790   6.464  11.623  0.00  0.00    +0.000 A 
ATOM     14  C   UNL     1      46.448   6.303  12.852  0.00  0.00    +0.000 A 
ATOM     30  C   UNL     1      46.245   5.109  13.560  0.00  0.00    +0.000 A 
ATOM     31  C   UNL     1      45.438   4.087  13.048  0.00  0.00    +0.000 A 
ENDROOT
BRANCH  11  10
ATOM     10  C   UNL     1      43.861   3.190  11.284  0.00  0.00    +0.000 C 
BRANCH  10   9
ATOM      9  N   UNL     1      43.572   3.416   9.871  0.00  0.00    +0.000 NA
ATOM     32  H   UNL     1      42.610   3.151   9.673  0.00  0.00    +0.000 HD
BRANCH   9   8
ATOM      8  C   UNL     1      44.466   2.636   9.028  0.00  0.00    +0.000 C 
BRANCH   8   7
ATOM      7  C   UNL     1      44.820   3.459   7.796  0.00  0.00    +0.000 C 
BRANCH   7   6
ATOM      6  C   UNL     1      46.014   4.351   8.105  0.00  0.00    +0.000 C 
BRANCH   6   5
ATOM      5  C   UNL     1      47.200   3.996   7.222  0.00  0.00    +0.000 C 
BRANCH   5   4
ATOM      4  C   UNL     1      46.717   3.408   5.901  0.00  0.00    +0.000 C 
BRANCH   4   3
ATOM      3  C   UNL     1      47.120   1.944   5.790  0.00  0.00    +0.000 C 
BRANCH   3   2
ATOM      1  C   UNL     1      46.871   0.135   7.503  0.00  0.00    +0.000 C 
ATOM      2  C   UNL     1      47.608   1.410   7.131  0.00  0.00    +0.000 C 
ENDBRANCH   3   2
ENDBRANCH   4   3
ENDBRANCH   5   4
ENDBRANCH   6   5
ENDBRANCH   7   6
ENDBRANCH   8   7
ENDBRANCH   9   8
ENDBRANCH  10   9
ENDBRANCH  11  10
BRANCH  14  15
ATOM     15  C   UNL     1      47.357   7.375  13.399  0.00  0.00    +0.000 C 
BRANCH  15  16
ATOM     16  N   UNL     1      47.675   7.171  14.791  0.00  0.00    +0.000 N 
ATOM     17  C   UNL     1      48.959   6.909  15.219  0.00  0.00    +0.000 C 
ATOM     18  O   UNL     1      49.912   6.890  14.459  0.00  0.00    +0.000 OA
ATOM     33  H   UNL     1      46.910   6.900  15.391  0.00  0.00    +0.000 HD
BRANCH  17  19
ATOM     19  C   UNL     1      49.119   6.703  16.670  0.00  0.00    +0.000 A 
ATOM     20  C   UNL     1      49.643   5.510  17.152  0.00  0.00    +0.000 A 
ATOM     21  S   UNL     1      49.754   5.459  18.854  0.00  0.00    +0.000 S 
ATOM     22  C   UNL     1      49.081   7.014  18.998  0.00  0.00    +0.000 A 
ATOM     23  N   UNL     1      48.877   7.558  20.211  0.00  0.00    +0.000 NA
ATOM     24  C   UNL     1      48.340   8.778  20.142  0.00  0.00    +0.000 A 
ATOM     25  N   UNL     1      48.014   9.468  19.041  0.00  0.00    +0.000 NA
ATOM     26  C   UNL     1      48.231   8.876  17.854  0.00  0.00    +0.000 A 
ATOM     29  C   UNL     1      48.791   7.592  17.771  0.00  0.00    +0.000 A 
BRANCH  26  27
ATOM     27  O   UNL     1      47.904   9.533  16.691  0.00  0.00    +0.000 OA
ATOM     28  C   UNL     1      48.869  10.453  16.212  0.00  0.00    +0.000 C 
ENDBRANCH  26  27
ENDBRANCH  17  19
ENDBRANCH  15  16
ENDBRANCH  14  15
TORSDOF 13
ENDMDL
MODEL 6
REMARK VINA RESULT:    -5.805      2.365      3.645
REMARK INTER + INTRA:         -12.549
REMARK INTER:                 -11.254
REMARK INTRA:                  -1.295
REMARK UNBOUND:                -2.333
REMARK  Name = 
REMARK  15 active torsions:
REMARK  status: ('A' for Active; 'I' for Inactive)
REMARK    1  A    between atoms: C_1  and  C_2
REMARK    2  A    between atoms: C_2  and  C_3
REMARK    3  A    between atoms: C_3  and  C_4
REMARK    4  A    between atoms: C_4  and  C_5
REMARK    5  A    between atoms: C_5  and  C_6
REMARK    6  A    between atoms: C_6  and  C_7
REMARK    7  A    between atoms: C_7  and  C_8
REMARK    8  A    between atoms: C_8  and  N_9
REMARK    9  A    between atoms: N_9  and  C_10
REMARK   10  A    between atoms: C_10  and  C_11
REMARK   11  A    between atoms: C_14  and  C_15
REMARK   12  A    between atoms: C_15  and  N_16
REMARK   13  A    between atoms: C_17  and  C_19
REMARK   14  A    between atoms: C_26  and  O_27
REMARK   15  A    between atoms: O_27  and  C_28
REMARK                            x       y       z     vdW  Elec       q    Type
REMARK                         _______ _______ _______ _____ _____    ______ ____
ROOT
ATOM     11  C   UNL     1      44.327   5.836  12.599  0.00  0.00    +0.000 A 
ATOM     12  C   UNL     1      44.968   4.783  13.267  0.00  0.00    +0.000 A 
ATOM     13  C   UNL     1      46.254   4.937  13.787  0.00  0.00    +0.000 A 
ATOM     14  C   UNL     1      46.942   6.151  13.640  0.00  0.00    +0.000 A 
ATOM     30  C   UNL     1      46.304   7.194  12.953  0.00  0.00    +0.000 A 
ATOM     31  C   UNL     1      45.004   7.050  12.453  0.00  0.00    +0.000 A 
ENDROOT
BRANCH  11  10
ATOM     10  C   UNL     1      42.949   5.642  12.017  0.00  0.00    +0.000 C 
BRANCH  10   9
ATOM      9  N   UNL     1      42.797   4.298  11.468  0.00  0.00    +0.000 NA
ATOM     32  H   UNL     1      43.109   3.612  12.151  0.00  0.00    +0.000 HD
BRANCH   9   8
ATOM      8  C   UNL     1      43.575   4.146  10.247  0.00  0.00    +0.000 C 
BRANCH   8   7
ATOM      7  C   UNL     1      44.255   2.783  10.266  0.00  0.00    +0.000 C 
BRANCH   7   6
ATOM      6  C   UNL     1      44.753   2.442   8.869  0.00  0.00    +0.000 C 
BRANCH   6   5
ATOM      5  C   UNL     1      45.147   3.701   8.111  0.00  0.00    +0.000 C 
BRANCH   5   4
ATOM      4  C   UNL     1      45.929   3.338   6.855  0.00  0.00    +0.000 C 
BRANCH   4   3
ATOM      3  C   UNL     1      47.327   2.857   7.219  0.00  0.00    +0.000 C 
BRANCH   3   2
ATOM      1  C   UNL     1      46.924   0.401   7.488  0.00  0.00    +0.000 C 
ATOM      2  C   UNL     1      47.593   1.471   6.643  0.00  0.00    +0.000 C 
ENDBRANCH   3   2
ENDBRANCH   4   3
ENDBRANCH   5   4
ENDBRANCH   6   5
ENDBRANCH   7   6
ENDBRANCH   8   7
ENDBRANCH   9   8
ENDBRANCH  10   9
ENDBRANCH  11  10
BRANCH  14  15
ATOM     15  C   UNL     1      48.325   6.341  14.210  0.00  0.00    +0.000 C 
BRANCH  15  16
ATOM     16  N   UNL     1      48.307   6.612  15.626  0.00  0.00    +0.000 N 
ATOM     17  C   UNL     1      48.491   5.619  16.564  0.00  0.00    +0.000 C 
ATOM     18  O   UNL     1      48.737   4.465  16.258  0.00  0.00    +0.000 OA
ATOM     33  H   UNL     1      47.839   7.458  15.915  0.00  0.00    +0.000 HD
BRANCH  17  19
ATOM     19  C   UNL     1      48.424   6.051  17.972  0.00  0.00    +0.000 A 
ATOM     20  C   UNL     1      47.389   5.612  18.789  0.00  0.00    +0.000 A 
ATOM     21  S   UNL     1      47.483   6.215  20.383  0.00  0.00    +0.000 S 
ATOM     22  C   UNL     1      48.888   7.102  20.021  0.00  0.00    +0.000 A 
ATOM     23  N   UNL     1      49.469   7.869  20.961  0.00  0.00    +0.000 NA
ATOM     24  C   UNL     1      50.557   8.497  20.510  0.00  0.00    +0.000 A 
ATOM     25  N   UNL     1      51.091   8.429  19.283  0.00  0.00    +0.000 NA
ATOM     26  C   UNL     1      50.468   7.654  18.380  0.00  0.00    +0.000 A 
ATOM     29  C   UNL     1      49.311   6.933  18.712  0.00  0.00    +0.000 A 
BRANCH  26  27
ATOM     27  O   UNL     1      50.965   7.556  17.101  0.00  0.00    +0.000 OA
ATOM     28  C   UNL     1      51.108   8.780  16.402  0.00  0.00    +0.000 C 
ENDBRANCH  26  27
ENDBRANCH  17  19
ENDBRANCH  15  16
ENDBRANCH  14  15
TORSDOF 13
ENDMDL
MODEL 7
REMARK VINA RESULT:    -5.692      2.818      8.670
REMARK INTER + INTRA:         -12.352
REMARK INTER:                  -9.828
REMARK INTRA:                  -2.524
REMARK UNBOUND:                -2.333
REMARK  Name = 
REMARK  15 active torsions:
REMARK  status: ('A' for Active; 'I' for Inactive)
REMARK    1  A    between atoms: C_1  and  C_2
REMARK    2  A    between atoms: C_2  and  C_3
REMARK    3  A    between atoms: C_3  and  C_4
REMARK    4  A    between atoms: C_4  and  C_5
REMARK    5  A    between atoms: C_5  and  C_6
REMARK    6  A    between atoms: C_6  and  C_7
REMARK    7  A    between atoms: C_7  and  C_8
REMARK    8  A    between atoms: C_8  and  N_9
REMARK    9  A    between atoms: N_9  and  C_10
REMARK   10  A    between atoms: C_10  and  C_11
REMARK   11  A    between atoms: C_14  and  C_15
REMARK   12  A    between atoms: C_15  and  N_16
REMARK   13  A    between atoms: C_17  and  C_19
REMARK   14  A    between atoms: C_26  and  O_27
REMARK   15  A    between atoms: O_27  and  C_28
REMARK                            x       y       z     vdW  Elec       q    Type
REMARK                         _______ _______ _______ _____ _____    ______ ____
ROOT
ATOM     11  C   UNL     1      51.353   2.916  17.790  0.00  0.00    +0.000 A 
ATOM     12  C   UNL     1      50.643   4.036  18.247  0.00  0.00    +0.000 A 
ATOM     13  C   UNL     1      49.291   4.202  17.949  0.00  0.00    +0.000 A 
ATOM     14  C   UNL     1      48.610   3.255  17.170  0.00  0.00    +0.000 A 
ATOM     30  C   UNL     1      49.330   2.146  16.698  0.00  0.00    +0.000 A 
ATOM     31  C   UNL     1      50.681   1.965  17.017  0.00  0.00    +0.000 A 
ENDROOT
BRANCH  11  10
ATOM     10  C   UNL     1      52.823   2.768  18.097  0.00  0.00    +0.000 C 
BRANCH  10   9
ATOM      9  N   UNL     1      53.366   3.999  18.663  0.00  0.00    +0.000 NA
ATOM     32  H   UNL     1      52.605   4.594  18.982  0.00  0.00    +0.000 HD
BRANCH   9   8
ATOM      8  C   UNL     1      54.154   4.720  17.674  0.00  0.00    +0.000 C 
BRANCH   8   7
ATOM      7  C   UNL     1      54.190   6.194  18.057  0.00  0.00    +0.000 C 
BRANCH   7   6
ATOM      6  C   UNL     1      52.873   6.853  17.671  0.00  0.00    +0.000 C 
BRANCH   6   5
ATOM      5  C   UNL     1      52.495   6.512  16.238  0.00  0.00    +0.000 C 
BRANCH   5   4
ATOM      4  C   UNL     1      51.080   6.990  15.938  0.00  0.00    +0.000 C 
BRANCH   4   3
ATOM      3  C   UNL     1      50.438   7.575  17.189  0.00  0.00    +0.000 C 
BRANCH   3   2
ATOM      1  C   UNL     1      48.230   7.784  18.350  0.00  0.00    +0.000 C 
ATOM      2  C   UNL     1      48.934   7.737  17.005  0.00  0.00    +0.000 C 
ENDBRANCH   3   2
ENDBRANCH   4   3
ENDBRANCH   5   4
ENDBRANCH   6   5
ENDBRANCH   7   6
ENDBRANCH   8   7
ENDBRANCH   9   8
ENDBRANCH  10   9
ENDBRANCH  11  10
BRANCH  14  15
ATOM     15  C   UNL     1      47.145   3.410  16.851  0.00  0.00    +0.000 C 
BRANCH  15  16
ATOM     16  N   UNL     1      46.896   4.458  15.893  0.00  0.00    +0.000 N 
ATOM     17  C   UNL     1      46.993   4.247  14.534  0.00  0.00    +0.000 C 
ATOM     18  O   UNL     1      47.236   3.152  14.056  0.00  0.00    +0.000 OA
ATOM     33  H   UNL     1      46.975   5.405  16.233  0.00  0.00    +0.000 HD
BRANCH  17  19
ATOM     19  C   UNL     1      46.729   5.423  13.685  0.00  0.00    +0.000 A 
ATOM     20  C   UNL     1      47.690   6.418  13.552  0.00  0.00    +0.000 A 
ATOM     21  S   UNL     1      47.206   7.695  12.529  0.00  0.00    +0.000 S 
ATOM     22  C   UNL     1      45.691   6.972  12.257  0.00  0.00    +0.000 A 
ATOM     23  N   UNL     1      44.777   7.580  11.478  0.00  0.00    +0.000 NA
ATOM     24  C   UNL     1      43.645   6.879  11.373  0.00  0.00    +0.000 A 
ATOM     25  N   UNL     1      43.360   5.697  11.935  0.00  0.00    +0.000 NA
ATOM     26  C   UNL     1      44.305   5.136  12.708  0.00  0.00    +0.000 A 
ATOM     29  C   UNL     1      45.546   5.758  12.911  0.00  0.00    +0.000 A 
BRANCH  26  27
ATOM     27  O   UNL     1      44.062   3.928  13.319  0.00  0.00    +0.000 OA
ATOM     28  C   UNL     1      43.721   2.859  12.454  0.00  0.00    +0.000 C 
ENDBRANCH  26  27
ENDBRANCH  17  19
ENDBRANCH  15  16
ENDBRANCH  14  15
TORSDOF 13
ENDMDL
MODEL 8
REMARK VINA RESULT:    -5.638      3.039      4.841
REMARK INTER + INTRA:         -12.257
REMARK INTER:                 -10.956
REMARK INTRA:                  -1.301
REMARK UNBOUND:                -2.333
REMARK  Name = 
REMARK  15 active torsions:
REMARK  status: ('A' for Active; 'I' for Inactive)
REMARK    1  A    between atoms: C_1  and  C_2
REMARK    2  A    between atoms: C_2  and  C_3
REMARK    3  A    between atoms: C_3  and  C_4
REMARK    4  A    between atoms: C_4  and  C_5
REMARK    5  A    between atoms: C_5  and  C_6
REMARK    6  A    between atoms: C_6  and  C_7
REMARK    7  A    between atoms: C_7  and  C_8
REMARK    8  A    between atoms: C_8  and  N_9
REMARK    9  A    between atoms: N_9  and  C_10
REMARK   10  A    between atoms: C_10  and  C_11
REMARK   11  A    between atoms: C_14  and  C_15
REMARK   12  A    between atoms: C_15  and  N_16
REMARK   13  A    between atoms: C_17  and  C_19
REMARK   14  A    between atoms: C_26  and  O_27
REMARK   15  A    between atoms: O_27  and  C_28
REMARK                            x       y       z     vdW  Elec       q    Type
REMARK                         _______ _______ _______ _____ _____    ______ ____
ROOT
ATOM     11  C   UNL     1      47.492   5.720  14.014  0.00  0.00    +0.000 A 
ATOM     12  C   UNL     1      48.185   6.245  15.114  0.00  0.00    +0.000 A 
ATOM     13  C   UNL     1      48.365   5.494  16.276  0.00  0.00    +0.000 A 
ATOM     14  C   UNL     1      47.842   4.196  16.375  0.00  0.00    +0.000 A 
ATOM     30  C   UNL     1      47.132   3.684  15.278  0.00  0.00    +0.000 A 
ATOM     31  C   UNL     1      46.973   4.426  14.102  0.00  0.00    +0.000 A 
ENDROOT
BRANCH  11  10
ATOM     10  C   UNL     1      47.282   6.558  12.776  0.00  0.00    +0.000 C 
BRANCH  10   9
ATOM      9  N   UNL     1      46.434   5.863  11.812  0.00  0.00    +0.000 NA
ATOM     32  H   UNL     1      46.865   5.896  10.891  0.00  0.00    +0.000 HD
BRANCH   9   8
ATOM      8  C   UNL     1      45.116   6.477  11.744  0.00  0.00    +0.000 C 
BRANCH   8   7
ATOM      7  C   UNL     1      44.184   5.553  10.971  0.00  0.00    +0.000 C 
BRANCH   7   6
ATOM      6  C   UNL     1      44.848   4.195  10.789  0.00  0.00    +0.000 C 
BRANCH   6   5
ATOM      5  C   UNL     1      44.988   3.852   9.314  0.00  0.00    +0.000 C 
BRANCH   5   4
ATOM      4  C   UNL     1      45.180   2.351   9.138  0.00  0.00    +0.000 C 
BRANCH   4   3
ATOM      3  C   UNL     1      46.195   2.069   8.039  0.00  0.00    +0.000 C 
BRANCH   3   2
ATOM      1  C   UNL     1      46.816   2.813   5.731  0.00  0.00    +0.000 C 
ATOM      2  C   UNL     1      46.322   3.259   7.096  0.00  0.00    +0.000 C 
ENDBRANCH   3   2
ENDBRANCH   4   3
ENDBRANCH   5   4
ENDBRANCH   6   5
ENDBRANCH   7   6
ENDBRANCH   8   7
ENDBRANCH   9   8
ENDBRANCH  10   9
ENDBRANCH  11  10
BRANCH  14  15
ATOM     15  C   UNL     1      48.041   3.364  17.617  0.00  0.00    +0.000 C 
BRANCH  15  16
ATOM     16  N   UNL     1      49.431   3.096  17.885  0.00  0.00    +0.000 N 
ATOM     17  C   UNL     1      50.175   2.235  17.106  0.00  0.00    +0.000 C 
ATOM     18  O   UNL     1      49.723   1.695  16.111  0.00  0.00    +0.000 OA
ATOM     33  H   UNL     1      49.752   3.284  18.824  0.00  0.00    +0.000 HD
BRANCH  17  19
ATOM     19  C   UNL     1      51.577   2.048  17.522  0.00  0.00    +0.000 A 
ATOM     20  C   UNL     1      52.094   0.768  17.681  0.00  0.00    +0.000 A 
ATOM     21  S   UNL     1      53.731   0.754  18.162  0.00  0.00    +0.000 S 
ATOM     22  C   UNL     1      53.790   2.454  18.200  0.00  0.00    +0.000 A 
ATOM     23  N   UNL     1      54.918   3.087  18.567  0.00  0.00    +0.000 NA
ATOM     24  C   UNL     1      54.790   4.416  18.545  0.00  0.00    +0.000 A 
ATOM     25  N   UNL     1      53.708   5.129  18.204  0.00  0.00    +0.000 NA
ATOM     26  C   UNL     1      52.605   4.447  17.852  0.00  0.00    +0.000 A 
ATOM     29  C   UNL     1      52.591   3.044  17.829  0.00  0.00    +0.000 A 
BRANCH  26  27
ATOM     27  O   UNL     1      51.461   5.126  17.504  0.00  0.00    +0.000 OA
ATOM     28  C   UNL     1      51.217   6.325  18.218  0.00  0.00    +0.000 C 
ENDBRANCH  26  27
ENDBRANCH  17  19
ENDBRANCH  15  16
ENDBRANCH  14  15
TORSDOF 13
ENDMDL
MODEL 9
REMARK VINA RESULT:    -5.417      1.917      2.403
REMARK INTER + INTRA:         -11.867
REMARK INTER:                 -10.288
REMARK INTRA:                  -1.579
REMARK UNBOUND:                -2.333
REMARK  Name = 
REMARK  15 active torsions:
REMARK  status: ('A' for Active; 'I' for Inactive)
REMARK    1  A    between atoms: C_1  and  C_2
REMARK    2  A    between atoms: C_2  and  C_3
REMARK    3  A    between atoms: C_3  and  C_4
REMARK    4  A    between atoms: C_4  and  C_5
REMARK    5  A    between atoms: C_5  and  C_6
REMARK    6  A    between atoms: C_6  and  C_7
REMARK    7  A    between atoms: C_7  and  C_8
REMARK    8  A    between atoms: C_8  and  N_9
REMARK    9  A    between atoms: N_9  and  C_10
REMARK   10  A    between atoms: C_10  and  C_11
REMARK   11  A    between atoms: C_14  and  C_15
REMARK   12  A    between atoms: C_15  and  N_16
REMARK   13  A    between atoms: C_17  and  C_19
REMARK   14  A    between atoms: C_26  and  O_27
REMARK   15  A    between atoms: O_27  and  C_28
REMARK                            x       y       z     vdW  Elec       q    Type
REMARK                         _______ _______ _______ _____ _____    ______ ____
ROOT
ATOM     11  C   UNL     1      45.763   7.622  12.068  0.00  0.00    +0.000 A 
ATOM     12  C   UNL     1      46.111   8.543  13.066  0.00  0.00    +0.000 A 
ATOM     13  C   UNL     1      47.337   8.461  13.726  0.00  0.00    +0.000 A 
ATOM     14  C   UNL     1      48.249   7.442  13.412  0.00  0.00    +0.000 A 
ATOM     30  C   UNL     1      47.888   6.511  12.426  0.00  0.00    +0.000 A 
ATOM     31  C   UNL     1      46.669   6.606  11.746  0.00  0.00    +0.000 A 
ENDROOT
BRANCH  11  10
ATOM     10  C   UNL     1      44.420   7.707  11.386  0.00  0.00    +0.000 C 
BRANCH  10   9
ATOM      9  N   UNL     1      44.027   6.413  10.837  0.00  0.00    +0.000 NA
ATOM     32  H   UNL     1      43.575   6.546   9.935  0.00  0.00    +0.000 HD
BRANCH   9   8
ATOM      8  C   UNL     1      43.110   5.726  11.735  0.00  0.00    +0.000 C 
BRANCH   8   7
ATOM      7  C   UNL     1      43.080   4.248  11.367  0.00  0.00    +0.000 C 
BRANCH   7   6
ATOM      6  C   UNL     1      43.860   4.027  10.079  0.00  0.00    +0.000 C 
BRANCH   6   5
ATOM      5  C   UNL     1      44.887   2.918  10.250  0.00  0.00    +0.000 C 
BRANCH   5   4
ATOM      4  C   UNL     1      45.284   2.353   8.892  0.00  0.00    +0.000 C 
BRANCH   4   3
ATOM      3  C   UNL     1      45.250   3.444   7.830  0.00  0.00    +0.000 C 
BRANCH   3   2
ATOM      1  C   UNL     1      46.737   2.882   5.896  0.00  0.00    +0.000 C 
ATOM      2  C   UNL     1      46.628   3.640   7.207  0.00  0.00    +0.000 C 
ENDBRANCH   3   2
ENDBRANCH   4   3
ENDBRANCH   5   4
ENDBRANCH   6   5
ENDBRANCH   7   6
ENDBRANCH   8   7
ENDBRANCH   9   8
ENDBRANCH  10   9
ENDBRANCH  11  10
BRANCH  14  15
ATOM     15  C   UNL     1      49.586   7.348  14.103  0.00  0.00    +0.000 C 
BRANCH  15  16
ATOM     16  N   UNL     1      49.481   7.507  15.532  0.00  0.00    +0.000 N 
ATOM     17  C   UNL     1      50.457   7.052  16.394  0.00  0.00    +0.000 C 
ATOM     18  O   UNL     1      51.492   6.542  16.001  0.00  0.00    +0.000 OA
ATOM     33  H   UNL     1      48.553   7.652  15.901  0.00  0.00    +0.000 HD
BRANCH  17  19
ATOM     19  C   UNL     1      50.194   7.270  17.828  0.00  0.00    +0.000 A 
ATOM     20  C   UNL     1      51.049   8.065  18.581  0.00  0.00    +0.000 A 
ATOM     21  S   UNL     1      50.581   8.201  20.217  0.00  0.00    +0.000 S 
ATOM     22  C   UNL     1      49.242   7.181  19.973  0.00  0.00    +0.000 A 
ATOM     23  N   UNL     1      48.431   6.866  20.999  0.00  0.00    +0.000 NA
ATOM     24  C   UNL     1      47.434   6.056  20.635  0.00  0.00    +0.000 A 
ATOM     25  N   UNL     1      47.183   5.565  19.414  0.00  0.00    +0.000 NA
ATOM     26  C   UNL     1      48.027   5.905  18.425  0.00  0.00    +0.000 A 
ATOM     29  C   UNL     1      49.122   6.751  18.660  0.00  0.00    +0.000 A 
BRANCH  26  27
ATOM     27  O   UNL     1      47.825   5.421  17.154  0.00  0.00    +0.000 OA
ATOM     28  C   UNL     1      47.989   4.023  16.996  0.00  0.00    +0.000 C 
ENDBRANCH  26  27
ENDBRANCH  17  19
ENDBRANCH  15  16
ENDBRANCH  14  15
TORSDOF 13
ENDMDL
