MODEL 1
REMARK VINA RESULT:    -6.881      0.000      0.000
REMARK INTER + INTRA:          -8.732
REMARK INTER:                  -8.893
REMARK INTRA:                   0.161
REMARK UNBOUND:                 0.161
REMARK  Name = 
REMARK  6 active torsions:
REMARK  status: ('A' for Active; 'I' for Inactive)
REMARK    1  A    between atoms: C_1  and  N_2
REMARK    2  A    between atoms: N_2  and  C_21
REMARK    3  A    between atoms: C_3  and  C_5
REMARK    4  A    between atoms: C_5  and  N_6
REMARK    5  A    between atoms: C_7  and  C_8
REMARK    6  A    between atoms: C_14  and  C_15
REMARK                            x       y       z     vdW  Elec       q    Type
REMARK                         _______ _______ _______ _____ _____    ______ ____
ROOT
ATOM      6  N   UNL     1      46.902   5.279  14.387  0.00  0.00    +0.000 N 
ATOM      7  C   UNL     1      47.723   6.274  13.883  0.00  0.00    +0.000 A 
ATOM     11  C   UNL     1      47.353   6.506  12.574  0.00  0.00    +0.000 A 
ATOM     12  C   UNL     1      46.418   5.523  12.213  0.00  0.00    +0.000 A 
ATOM     13  C   UNL     1      45.800   5.185  11.006  0.00  0.00    +0.000 A 
ATOM     14  C   UNL     1      44.966   4.075  10.996  0.00  0.00    +0.000 A 
ATOM     18  C   UNL     1      44.778   3.378  12.192  0.00  0.00    +0.000 A 
ATOM     19  N   UNL     1      45.342   3.678  13.399  0.00  0.00    +0.000 NA
ATOM     20  C   UNL     1      46.154   4.758  13.344  0.00  0.00    +0.000 A 
ENDROOT
BRANCH  14  15
ATOM     15  C   UNL     1      44.294   3.605   9.764  0.00  0.00    +0.000 C 
ATOM     16  N   UNL     1      44.092   4.500   8.747  0.00  0.00    +0.000 N 
ATOM     17  O   UNL     1      43.931   2.444   9.643  0.00  0.00    +0.000 OA
ATOM     27  H   UNL     1      44.367   5.472   8.754  0.00  0.00    +0.000 HD
ATOM     28  H   UNL     1      43.633   4.157   7.914  0.00  0.00    +0.000 HD
ENDBRANCH  14  15
BRANCH   7   8
ATOM      8  C   UNL     1      48.878   7.005  14.564  0.00  0.00    +0.000 C 
ATOM      9  C   UNL     1      48.896   8.523  14.562  0.00  0.00    +0.000 C 
ATOM     10  C   UNL     1      49.812   7.789  13.648  0.00  0.00    +0.000 C 
ENDBRANCH   7   8
BRANCH   6   5
ATOM      5  C   UNL     1      46.906   4.697  15.727  0.00  0.00    +0.000 C 
BRANCH   5   3
ATOM      1  C   UNL     1      49.776   2.648  17.197  0.00  0.00    +0.000 C 
ATOM      2  N   UNL     1      48.814   3.753  17.080  0.00  0.00    +0.000 N 
ATOM      3  C   UNL     1      47.930   3.611  15.978  0.00  0.00    +0.000 C 
ATOM      4  O   UNL     1      47.960   2.601  15.268  0.00  0.00    +0.000 OA
BRANCH   2  21
ATOM     21  C   UNL     1      49.211   5.049  17.748  0.00  0.00    +0.000 C 
ATOM     22  C   UNL     1      49.888   4.856  19.134  0.00  0.00    +0.000 C 
ATOM     23  C   UNL     1      48.874   4.420  20.200  0.00  0.00    +0.000 C 
ATOM     24  N   UNL     1      47.755   5.355  20.331  0.00  0.00    +0.000 NA
ATOM     25  C   UNL     1      47.107   5.597  19.043  0.00  0.00    +0.000 C 
ATOM     26  C   UNL     1      48.112   6.097  18.014  0.00  0.00    +0.000 C 
ATOM     29  H   UNL     1      48.095   6.239  20.709  0.00  0.00    +0.000 HD
ENDBRANCH   2  21
ENDBRANCH   5   3
ENDBRANCH   6   5
TORSDOF 5
ENDMDL
MODEL 2
REMARK VINA RESULT:    -6.811      2.165      2.973
REMARK INTER + INTRA:          -8.641
REMARK INTER:                  -8.212
REMARK INTRA:                  -0.429
REMARK UNBOUND:                 0.161
REMARK  Name = 
REMARK  6 active torsions:
REMARK  status: ('A' for Active; 'I' for Inactive)
REMARK    1  A    between atoms: C_1  and  N_2
REMARK    2  A    between atoms: N_2  and  C_21
REMARK    3  A    between atoms: C_3  and  C_5
REMARK    4  A    between atoms: C_5  and  N_6
REMARK    5  A    between atoms: C_7  and  C_8
REMARK    6  A    between atoms: C_14  and  C_15
REMARK                            x       y       z     vdW  Elec       q    Type
REMARK                         _______ _______ _______ _____ _____    ______ ____
ROOT
ATOM      6  N   UNL     1      48.343   7.110  13.914  0.00  0.00    +0.000 N 
ATOM      7  C   UNL     1      48.142   8.113  12.981  0.00  0.00    +0.000 A 
ATOM     11  C   UNL     1      47.038   7.775  12.227  0.00  0.00    +0.000 A 
ATOM     12  C   UNL     1      46.664   6.468  12.576  0.00  0.00    +0.000 A 
ATOM     13  C   UNL     1      45.718   5.573  12.069  0.00  0.00    +0.000 A 
ATOM     14  C   UNL     1      45.671   4.300  12.622  0.00  0.00    +0.000 A 
ATOM     18  C   UNL     1      46.553   3.999  13.663  0.00  0.00    +0.000 A 
ATOM     19  N   UNL     1      47.480   4.842  14.206  0.00  0.00    +0.000 NA
ATOM     20  C   UNL     1      47.489   6.060  13.618  0.00  0.00    +0.000 A 
ENDROOT
BRANCH  14  15
ATOM     15  C   UNL     1      44.738   3.262  12.133  0.00  0.00    +0.000 C 
ATOM     16  N   UNL     1      44.935   2.744  10.880  0.00  0.00    +0.000 N 
ATOM     17  O   UNL     1      43.812   2.864  12.824  0.00  0.00    +0.000 OA
ATOM     27  H   UNL     1      45.677   3.003  10.245  0.00  0.00    +0.000 HD
ATOM     28  H   UNL     1      44.287   2.035  10.566  0.00  0.00    +0.000 HD
ENDBRANCH  14  15
BRANCH   7   8
ATOM      8  C   UNL     1      48.966   9.375  12.734  0.00  0.00    +0.000 C 
ATOM      9  C   UNL     1      48.919  10.033  11.366  0.00  0.00    +0.000 C 
ATOM     10  C   UNL     1      50.121   9.243  11.747  0.00  0.00    +0.000 C 
ENDBRANCH   7   8
BRANCH   6   5
ATOM      5  C   UNL     1      49.383   7.022  14.936  0.00  0.00    +0.000 C 
BRANCH   5   3
ATOM      1  C   UNL     1      48.572   7.908  18.563  0.00  0.00    +0.000 C 
ATOM      2  N   UNL     1      48.832   7.051  17.397  0.00  0.00    +0.000 N 
ATOM      3  C   UNL     1      49.124   7.785  16.217  0.00  0.00    +0.000 C 
ATOM      4  O   UNL     1      49.214   9.016  16.243  0.00  0.00    +0.000 OA
BRANCH   2  21
ATOM     21  C   UNL     1      48.262   5.654  17.464  0.00  0.00    +0.000 C 
ATOM     22  C   UNL     1      47.429   5.379  18.748  0.00  0.00    +0.000 C 
ATOM     23  C   UNL     1      48.328   5.255  19.986  0.00  0.00    +0.000 C 
ATOM     24  N   UNL     1      49.352   4.219  19.840  0.00  0.00    +0.000 NA
ATOM     25  C   UNL     1      50.139   4.415  18.624  0.00  0.00    +0.000 C 
ATOM     26  C   UNL     1      49.241   4.465  17.395  0.00  0.00    +0.000 C 
ATOM     29  H   UNL     1      48.905   3.304  19.809  0.00  0.00    +0.000 HD
ENDBRANCH   2  21
ENDBRANCH   5   3
ENDBRANCH   6   5
TORSDOF 5
ENDMDL
MODEL 3
REMARK VINA RESULT:    -6.405      2.492      5.320
REMARK INTER + INTRA:          -8.116
REMARK INTER:                  -7.808
REMARK INTRA:                  -0.309
REMARK UNBOUND:                 0.161
REMARK  Name = 
REMARK  6 active torsions:
REMARK  status: ('A' for Active; 'I' for Inactive)
REMARK    1  A    between atoms: C_1  and  N_2
REMARK    2  A    between atoms: N_2  and  C_21
REMARK    3  A    between atoms: C_3  and  C_5
REMARK    4  A    between atoms: C_5  and  N_6
REMARK    5  A    between atoms: C_7  and  C_8
REMARK    6  A    between atoms: C_14  and  C_15
REMARK                            x       y       z     vdW  Elec       q    Type
REMARK                         _______ _______ _______ _____ _____    ______ ____
ROOT
ATOM      6  N   UNL     1      47.562   5.874  14.422  0.00  0.00    +0.000 N 
ATOM      7  C   UNL     1      47.623   4.772  15.257  0.00  0.00    +0.000 A 
ATOM     11  C   UNL     1      47.029   3.712  14.604  0.00  0.00    +0.000 A 
ATOM     12  C   UNL     1      46.436   4.207  13.432  0.00  0.00    +0.000 A 
ATOM     13  C   UNL     1      45.609   3.638  12.461  0.00  0.00    +0.000 A 
ATOM     14  C   UNL     1      45.132   4.465  11.452  0.00  0.00    +0.000 A 
ATOM     18  C   UNL     1      45.523   5.806  11.457  0.00  0.00    +0.000 A 
ATOM     19  N   UNL     1      46.343   6.405  12.370  0.00  0.00    +0.000 NA
ATOM     20  C   UNL     1      46.764   5.555  13.335  0.00  0.00    +0.000 A 
ENDROOT
BRANCH  14  15
ATOM     15  C   UNL     1      44.217   3.975  10.398  0.00  0.00    +0.000 C 
ATOM     16  N   UNL     1      44.247   4.584   9.172  0.00  0.00    +0.000 N 
ATOM     17  O   UNL     1      43.453   3.043  10.604  0.00  0.00    +0.000 OA
ATOM     27  H   UNL     1      44.851   5.350   8.908  0.00  0.00    +0.000 HD
ATOM     28  H   UNL     1      43.614   4.233   8.465  0.00  0.00    +0.000 HD
ENDBRANCH  14  15
BRANCH   7   8
ATOM      8  C   UNL     1      48.188   4.668  16.672  0.00  0.00    +0.000 C 
ATOM      9  C   UNL     1      47.799   3.484  17.539  0.00  0.00    +0.000 C 
ATOM     10  C   UNL     1      47.182   4.811  17.810  0.00  0.00    +0.000 C 
ENDBRANCH   7   8
BRANCH   6   5
ATOM      5  C   UNL     1      48.062   7.224  14.668  0.00  0.00    +0.000 C 
BRANCH   5   3
ATOM      1  C   UNL     1      51.693   7.991  13.758  0.00  0.00    +0.000 C 
ATOM      2  N   UNL     1      50.234   7.922  13.592  0.00  0.00    +0.000 N 
ATOM      3  C   UNL     1      49.567   7.377  14.721  0.00  0.00    +0.000 C 
ATOM      4  O   UNL     1      50.192   7.081  15.743  0.00  0.00    +0.000 OA
BRANCH   2  21
ATOM     21  C   UNL     1      49.731   7.918  12.168  0.00  0.00    +0.000 C 
ATOM     22  C   UNL     1      50.862   8.012  11.105  0.00  0.00    +0.000 C 
ATOM     23  C   UNL     1      51.481   9.416  11.063  0.00  0.00    +0.000 C 
ATOM     24  N   UNL     1      50.489  10.463  10.811  0.00  0.00    +0.000 NA
ATOM     25  C   UNL     1      49.385  10.393  11.766  0.00  0.00    +0.000 C 
ATOM     26  C   UNL     1      48.734   9.016  11.745  0.00  0.00    +0.000 C 
ATOM     29  H   UNL     1      50.124  10.363   9.864  0.00  0.00    +0.000 HD
ENDBRANCH   2  21
ENDBRANCH   5   3
ENDBRANCH   6   5
TORSDOF 5
ENDMDL
MODEL 4
REMARK VINA RESULT:    -6.373      5.336      7.268
REMARK INTER + INTRA:          -8.075
REMARK INTER:                  -8.262
REMARK INTRA:                   0.186
REMARK UNBOUND:                 0.161
REMARK  Name = 
REMARK  6 active torsions:
REMARK  status: ('A' for Active; 'I' for Inactive)
REMARK    1  A    between atoms: C_1  and  N_2
REMARK    2  A    between atoms: N_2  and  C_21
REMARK    3  A    between atoms: C_3  and  C_5
REMARK    4  A    between atoms: C_5  and  N_6
REMARK    5  A    between atoms: C_7  and  C_8
REMARK    6  A    between atoms: C_14  and  C_15
REMARK                            x       y       z     vdW  Elec       q    Type
REMARK                         _______ _______ _______ _____ _____    ______ ____
ROOT
ATOM      6  N   UNL     1      44.580   4.999  10.160  0.00  0.00    +0.000 N 
ATOM      7  C   UNL     1      43.808   4.043  10.797  0.00  0.00    +0.000 A 
ATOM     11  C   UNL     1      44.226   2.803  10.364  0.00  0.00    +0.000 A 
ATOM     12  C   UNL     1      45.140   3.000   9.317  0.00  0.00    +0.000 A 
ATOM     13  C   UNL     1      45.785   2.134   8.430  0.00  0.00    +0.000 A 
ATOM     14  C   UNL     1      46.584   2.696   7.443  0.00  0.00    +0.000 A 
ATOM     18  C   UNL     1      46.712   4.087   7.409  0.00  0.00    +0.000 A 
ATOM     19  N   UNL     1      46.119   4.974   8.262  0.00  0.00    +0.000 NA
ATOM     20  C   UNL     1      45.344   4.370   9.191  0.00  0.00    +0.000 A 
ENDROOT
BRANCH  14  15
ATOM     15  C   UNL     1      47.279   1.874   6.428  0.00  0.00    +0.000 C 
ATOM     16  N   UNL     1      47.920   2.510   5.399  0.00  0.00    +0.000 N 
ATOM     17  O   UNL     1      47.292   0.654   6.501  0.00  0.00    +0.000 OA
ATOM     27  H   UNL     1      47.972   3.510   5.265  0.00  0.00    +0.000 HD
ATOM     28  H   UNL     1      48.390   1.929   4.718  0.00  0.00    +0.000 HD
ENDBRANCH  14  15
BRANCH   7   8
ATOM      8  C   UNL     1      42.655   4.237  11.781  0.00  0.00    +0.000 C 
ATOM      9  C   UNL     1      42.320   5.638  12.260  0.00  0.00    +0.000 C 
ATOM     10  C   UNL     1      43.036   4.713  13.179  0.00  0.00    +0.000 C 
ENDBRANCH   7   8
BRANCH   6   5
ATOM      5  C   UNL     1      44.515   6.452  10.298  0.00  0.00    +0.000 C 
BRANCH   5   3
ATOM      1  C   UNL     1      46.088   8.909  12.764  0.00  0.00    +0.000 C 
ATOM      2  N   UNL     1      45.265   8.455  11.634  0.00  0.00    +0.000 N 
ATOM      3  C   UNL     1      45.298   7.048  11.447  0.00  0.00    +0.000 C 
ATOM      4  O   UNL     1      45.912   6.320  12.233  0.00  0.00    +0.000 OA
BRANCH   2  21
ATOM     21  C   UNL     1      44.964   9.492  10.577  0.00  0.00    +0.000 C 
ATOM     22  C   UNL     1      45.388  10.933  10.977  0.00  0.00    +0.000 C 
ATOM     23  C   UNL     1      44.460  11.515  12.052  0.00  0.00    +0.000 C 
ATOM     24  N   UNL     1      43.054  11.516  11.645  0.00  0.00    +0.000 NA
ATOM     25  C   UNL     1      42.619  10.185  11.225  0.00  0.00    +0.000 C 
ATOM     26  C   UNL     1      43.504   9.650  10.108  0.00  0.00    +0.000 C 
ATOM     29  H   UNL     1      42.925  12.172  10.876  0.00  0.00    +0.000 HD
ENDBRANCH   2  21
ENDBRANCH   5   3
ENDBRANCH   6   5
TORSDOF 5
ENDMDL
MODEL 5
REMARK VINA RESULT:    -6.181      2.284      6.831
REMARK INTER + INTRA:          -7.827
REMARK INTER:                  -7.786
REMARK INTRA:                  -0.040
REMARK UNBOUND:                 0.161
REMARK  Name = 
REMARK  6 active torsions:
REMARK  status: ('A' for Active; 'I' for Inactive)
REMARK    1  A    between atoms: C_1  and  N_2
REMARK    2  A    between atoms: N_2  and  C_21
REMARK    3  A    between atoms: C_3  and  C_5
REMARK    4  A    between atoms: C_5  and  N_6
REMARK    5  A    between atoms: C_7  and  C_8
REMARK    6  A    between atoms: C_14  and  C_15
REMARK                            x       y       z     vdW  Elec       q    Type
REMARK                         _______ _______ _______ _____ _____    ______ ____
ROOT
ATOM      6  N   UNL     1      48.530   6.999  13.514  0.00  0.00    +0.000 N 
ATOM      7  C   UNL     1      49.229   8.099  13.980  0.00  0.00    +0.000 A 
ATOM     11  C   UNL     1      49.618   7.836  15.277  0.00  0.00    +0.000 A 
ATOM     12  C   UNL     1      49.001   6.641  15.676  0.00  0.00    +0.000 A 
ATOM     13  C   UNL     1      48.925   5.960  16.894  0.00  0.00    +0.000 A 
ATOM     14  C   UNL     1      48.142   4.814  16.947  0.00  0.00    +0.000 A 
ATOM     18  C   UNL     1      47.496   4.401  15.780  0.00  0.00    +0.000 A 
ATOM     19  N   UNL     1      47.552   5.019  14.563  0.00  0.00    +0.000 NA
ATOM     20  C   UNL     1      48.317   6.135  14.576  0.00  0.00    +0.000 A 
ENDROOT
BRANCH  14  15
ATOM     15  C   UNL     1      47.959   4.041  18.195  0.00  0.00    +0.000 C 
ATOM     16  N   UNL     1      47.153   2.934  18.166  0.00  0.00    +0.000 N 
ATOM     17  O   UNL     1      48.516   4.370  19.232  0.00  0.00    +0.000 OA
ATOM     27  H   UNL     1      46.663   2.582  17.356  0.00  0.00    +0.000 HD
ATOM     28  H   UNL     1      47.044   2.420  19.030  0.00  0.00    +0.000 HD
ENDBRANCH  14  15
BRANCH   7   8
ATOM      8  C   UNL     1      49.525   9.420  13.273  0.00  0.00    +0.000 C 
ATOM      9  C   UNL     1      49.928  10.628  14.100  0.00  0.00    +0.000 C 
ATOM     10  C   UNL     1      48.550  10.562  13.542  0.00  0.00    +0.000 C 
ENDBRANCH   7   8
BRANCH   6   5
ATOM      5  C   UNL     1      47.925   6.803  12.200  0.00  0.00    +0.000 C 
BRANCH   5   3
ATOM      1  C   UNL     1      44.128   6.807  11.774  0.00  0.00    +0.000 C 
ATOM      2  N   UNL     1      45.478   6.249  11.937  0.00  0.00    +0.000 N 
ATOM      3  C   UNL     1      46.484   7.244  12.056  0.00  0.00    +0.000 C 
ATOM      4  O   UNL     1      46.189   8.442  12.092  0.00  0.00    +0.000 OA
BRANCH   2  21
ATOM     21  C   UNL     1      45.672   4.835  11.443  0.00  0.00    +0.000 C 
ATOM     22  C   UNL     1      44.931   4.531  10.110  0.00  0.00    +0.000 C 
ATOM     23  C   UNL     1      43.414   4.430  10.320  0.00  0.00    +0.000 C 
ATOM     24  N   UNL     1      43.047   3.427  11.321  0.00  0.00    +0.000 NA
ATOM     25  C   UNL     1      43.749   3.651  12.584  0.00  0.00    +0.000 C 
ATOM     26  C   UNL     1      45.256   3.676  12.372  0.00  0.00    +0.000 C 
ATOM     29  H   UNL     1      43.275   2.498  10.968  0.00  0.00    +0.000 HD
ENDBRANCH   2  21
ENDBRANCH   5   3
ENDBRANCH   6   5
TORSDOF 5
ENDMDL
MODEL 6
REMARK VINA RESULT:    -6.149      2.379      3.796
REMARK INTER + INTRA:          -7.786
REMARK INTER:                  -7.261
REMARK INTRA:                  -0.525
REMARK UNBOUND:                 0.161
REMARK  Name = 
REMARK  6 active torsions:
REMARK  status: ('A' for Active; 'I' for Inactive)
REMARK    1  A    between atoms: C_1  and  N_2
REMARK    2  A    between atoms: N_2  and  C_21
REMARK    3  A    between atoms: C_3  and  C_5
REMARK    4  A    between atoms: C_5  and  N_6
REMARK    5  A    between atoms: C_7  and  C_8
REMARK    6  A    between atoms: C_14  and  C_15
REMARK                            x       y       z     vdW  Elec       q    Type
REMARK                         _______ _______ _______ _____ _____    ______ ____
ROOT
ATOM      6  N   UNL     1      47.488   5.813  14.347  0.00  0.00    +0.000 N 
ATOM      7  C   UNL     1      47.573   4.720  15.192  0.00  0.00    +0.000 A 
ATOM     11  C   UNL     1      46.978   3.648  14.561  0.00  0.00    +0.000 A 
ATOM     12  C   UNL     1      46.361   4.127  13.394  0.00  0.00    +0.000 A 
ATOM     13  C   UNL     1      45.522   3.540  12.443  0.00  0.00    +0.000 A 
ATOM     14  C   UNL     1      45.021   4.352  11.434  0.00  0.00    +0.000 A 
ATOM     18  C   UNL     1      45.400   5.696  11.419  0.00  0.00    +0.000 A 
ATOM     19  N   UNL     1      46.230   6.313  12.312  0.00  0.00    +0.000 NA
ATOM     20  C   UNL     1      46.674   5.476  13.278  0.00  0.00    +0.000 A 
ENDROOT
BRANCH  14  15
ATOM     15  C   UNL     1      44.092   3.844  10.401  0.00  0.00    +0.000 C 
ATOM     16  N   UNL     1      44.053   4.479   9.188  0.00  0.00    +0.000 N 
ATOM     17  O   UNL     1      43.377   2.875  10.611  0.00  0.00    +0.000 OA
ATOM     27  H   UNL     1      44.613   5.276   8.921  0.00  0.00    +0.000 HD
ATOM     28  H   UNL     1      43.413   4.114   8.496  0.00  0.00    +0.000 HD
ENDBRANCH  14  15
BRANCH   7   8
ATOM      8  C   UNL     1      48.162   4.636  16.599  0.00  0.00    +0.000 C 
ATOM      9  C   UNL     1      47.802   3.455  17.483  0.00  0.00    +0.000 C 
ATOM     10  C   UNL     1      47.174   4.777  17.752  0.00  0.00    +0.000 C 
ENDBRANCH   7   8
BRANCH   6   5
ATOM      5  C   UNL     1      47.980   7.169  14.571  0.00  0.00    +0.000 C 
BRANCH   5   3
ATOM      1  C   UNL     1      51.649   8.229  14.444  0.00  0.00    +0.000 C 
ATOM      2  N   UNL     1      50.327   7.970  15.033  0.00  0.00    +0.000 N 
ATOM      3  C   UNL     1      49.390   7.453  14.100  0.00  0.00    +0.000 C 
ATOM      4  O   UNL     1      49.728   7.193  12.941  0.00  0.00    +0.000 OA
BRANCH   2  21
ATOM     21  C   UNL     1      50.005   8.735  16.295  0.00  0.00    +0.000 C 
ATOM     22  C   UNL     1      51.204   9.551  16.855  0.00  0.00    +0.000 C 
ATOM     23  C   UNL     1      52.265   8.635  17.480  0.00  0.00    +0.000 C 
ATOM     24  N   UNL     1      51.722   7.780  18.536  0.00  0.00    +0.000 NA
ATOM     25  C   UNL     1      50.567   7.018  18.066  0.00  0.00    +0.000 C 
ATOM     26  C   UNL     1      49.491   7.944  17.515  0.00  0.00    +0.000 C 
ATOM     29  H   UNL     1      51.446   8.357  19.330  0.00  0.00    +0.000 HD
ENDBRANCH   2  21
ENDBRANCH   5   3
ENDBRANCH   6   5
TORSDOF 5
ENDMDL
MODEL 7
REMARK VINA RESULT:    -6.065      2.483      4.611
REMARK INTER + INTRA:          -7.677
REMARK INTER:                  -7.183
REMARK INTRA:                  -0.493
REMARK UNBOUND:                 0.161
REMARK  Name = 
REMARK  6 active torsions:
REMARK  status: ('A' for Active; 'I' for Inactive)
REMARK    1  A    between atoms: C_1  and  N_2
REMARK    2  A    between atoms: N_2  and  C_21
REMARK    3  A    between atoms: C_3  and  C_5
REMARK    4  A    between atoms: C_5  and  N_6
REMARK    5  A    between atoms: C_7  and  C_8
REMARK    6  A    between atoms: C_14  and  C_15
REMARK                            x       y       z     vdW  Elec       q    Type
REMARK                         _______ _______ _______ _____ _____    ______ ____
ROOT
ATOM      6  N   UNL     1      47.068   5.644  13.830  0.00  0.00    +0.000 N 
ATOM      7  C   UNL     1      46.269   5.476  12.713  0.00  0.00    +0.000 A 
ATOM     11  C   UNL     1      46.842   6.177  11.672  0.00  0.00    +0.000 A 
ATOM     12  C   UNL     1      47.906   6.929  12.196  0.00  0.00    +0.000 A 
ATOM     13  C   UNL     1      48.752   7.899  11.654  0.00  0.00    +0.000 A 
ATOM     14  C   UNL     1      49.666   8.507  12.504  0.00  0.00    +0.000 A 
ATOM     18  C   UNL     1      49.699   8.099  13.840  0.00  0.00    +0.000 A 
ATOM     19  N   UNL     1      48.908   7.145  14.413  0.00  0.00    +0.000 NA
ATOM     20  C   UNL     1      48.030   6.599  13.541  0.00  0.00    +0.000 A 
ENDROOT
BRANCH  14  15
ATOM     15  C   UNL     1      50.581   9.576  12.045  0.00  0.00    +0.000 C 
ATOM     16  N   UNL     1      50.957  10.543  12.938  0.00  0.00    +0.000 N 
ATOM     17  O   UNL     1      51.003   9.600  10.898  0.00  0.00    +0.000 OA
ATOM     27  H   UNL     1      50.669  10.598  13.905  0.00  0.00    +0.000 HD
ATOM     28  H   UNL     1      51.584  11.263  12.603  0.00  0.00    +0.000 HD
ENDBRANCH  14  15
BRANCH   7   8
ATOM      8  C   UNL     1      44.954   4.711  12.577  0.00  0.00    +0.000 C 
ATOM      9  C   UNL     1      43.950   5.145  11.525  0.00  0.00    +0.000 C 
ATOM     10  C   UNL     1      43.688   5.474  12.952  0.00  0.00    +0.000 C 
ENDBRANCH   7   8
BRANCH   6   5
ATOM      5  C   UNL     1      46.878   5.092  15.169  0.00  0.00    +0.000 C 
BRANCH   5   3
ATOM      1  C   UNL     1      49.151   2.519  16.844  0.00  0.00    +0.000 C 
ATOM      2  N   UNL     1      48.431   3.788  16.669  0.00  0.00    +0.000 N 
ATOM      3  C   UNL     1      47.648   3.828  15.485  0.00  0.00    +0.000 C 
ATOM      4  O   UNL     1      47.557   2.839  14.752  0.00  0.00    +0.000 OA
BRANCH   2  21
ATOM     21  C   UNL     1      48.998   4.977  17.408  0.00  0.00    +0.000 C 
ATOM     22  C   UNL     1      49.736   4.601  18.723  0.00  0.00    +0.000 C 
ATOM     23  C   UNL     1      48.751   4.175  19.820  0.00  0.00    +0.000 C 
ATOM     24  N   UNL     1      47.742   5.198  20.103  0.00  0.00    +0.000 NA
ATOM     25  C   UNL     1      47.045   5.611  18.887  0.00  0.00    +0.000 C 
ATOM     26  C   UNL     1      48.029   6.099  17.833  0.00  0.00    +0.000 C 
ATOM     29  H   UNL     1      48.193   6.009  20.526  0.00  0.00    +0.000 HD
ENDBRANCH   2  21
ENDBRANCH   5   3
ENDBRANCH   6   5
TORSDOF 5
ENDMDL
MODEL 8
REMARK VINA RESULT:    -6.058      3.104      4.325
REMARK INTER + INTRA:          -7.668
REMARK INTER:                  -7.276
REMARK INTRA:                  -0.392
REMARK UNBOUND:                 0.161
REMARK  Name = 
REMARK  6 active torsions:
REMARK  status: ('A' for Active; 'I' for Inactive)
REMARK    1  A    between atoms: C_1  and  N_2
REMARK    2  A    between atoms: N_2  and  C_21
REMARK    3  A    between atoms: C_3  and  C_5
REMARK    4  A    between atoms: C_5  and  N_6
REMARK    5  A    between atoms: C_7  and  C_8
REMARK    6  A    between atoms: C_14  and  C_15
REMARK                            x       y       z     vdW  Elec       q    Type
REMARK                         _______ _______ _______ _____ _____    ______ ____
ROOT
ATOM      6  N   UNL     1      45.929   8.228  12.803  0.00  0.00    +0.000 N 
ATOM      7  C   UNL     1      45.148   9.080  12.042  0.00  0.00    +0.000 A 
ATOM     11  C   UNL     1      44.201   8.318  11.391  0.00  0.00    +0.000 A 
ATOM     12  C   UNL     1      44.512   6.967  11.610  0.00  0.00    +0.000 A 
ATOM     13  C   UNL     1      43.994   5.770  11.109  0.00  0.00    +0.000 A 
ATOM     14  C   UNL     1      44.613   4.587  11.493  0.00  0.00    +0.000 A 
ATOM     18  C   UNL     1      45.698   4.663  12.368  0.00  0.00    +0.000 A 
ATOM     19  N   UNL     1      46.230   5.804  12.899  0.00  0.00    +0.000 NA
ATOM     20  C   UNL     1      45.596   6.922  12.480  0.00  0.00    +0.000 A 
ENDROOT
BRANCH  14  15
ATOM     15  C   UNL     1      44.171   3.268  10.990  0.00  0.00    +0.000 C 
ATOM     16  N   UNL     1      45.015   2.565  10.172  0.00  0.00    +0.000 N 
ATOM     17  O   UNL     1      43.083   2.803  11.296  0.00  0.00    +0.000 OA
ATOM     27  H   UNL     1      45.934   2.863   9.876  0.00  0.00    +0.000 HD
ATOM     28  H   UNL     1      44.695   1.665   9.840  0.00  0.00    +0.000 HD
ENDBRANCH  14  15
BRANCH   7   8
ATOM      8  C   UNL     1      45.268  10.592  11.863  0.00  0.00    +0.000 C 
ATOM      9  C   UNL     1      44.780  11.225  10.573  0.00  0.00    +0.000 C 
ATOM     10  C   UNL     1      46.243  11.068  10.791  0.00  0.00    +0.000 C 
ENDBRANCH   7   8
BRANCH   6   5
ATOM      5  C   UNL     1      47.056   8.566  13.670  0.00  0.00    +0.000 C 
BRANCH   5   3
ATOM      1  C   UNL     1      50.826   8.403  13.076  0.00  0.00    +0.000 C 
ATOM      2  N   UNL     1      49.563   8.337  13.824  0.00  0.00    +0.000 N 
ATOM      3  C   UNL     1      48.420   8.576  13.016  0.00  0.00    +0.000 C 
ATOM      4  O   UNL     1      48.530   8.741  11.797  0.00  0.00    +0.000 OA
BRANCH   2  21
ATOM     21  C   UNL     1      49.666   8.555  15.315  0.00  0.00    +0.000 C 
ATOM     22  C   UNL     1      51.098   8.338  15.881  0.00  0.00    +0.000 C 
ATOM     23  C   UNL     1      51.476   6.851  15.901  0.00  0.00    +0.000 C 
ATOM     24  N   UNL     1      50.525   6.036  16.659  0.00  0.00    +0.000 NA
ATOM     25  C   UNL     1      49.156   6.234  16.185  0.00  0.00    +0.000 C 
ATOM     26  C   UNL     1      48.769   7.706  16.239  0.00  0.00    +0.000 C 
ATOM     29  H   UNL     1      50.580   6.283  17.647  0.00  0.00    +0.000 HD
ENDBRANCH   2  21
ENDBRANCH   5   3
ENDBRANCH   6   5
TORSDOF 5
ENDMDL
MODEL 9
REMARK VINA RESULT:    -5.881      3.235      7.817
REMARK INTER + INTRA:          -7.439
REMARK INTER:                  -7.232
REMARK INTRA:                  -0.208
REMARK UNBOUND:                 0.161
REMARK  Name = 
REMARK  6 active torsions:
REMARK  status: ('A' for Active; 'I' for Inactive)
REMARK    1  A    between atoms: C_1  and  N_2
REMARK    2  A    between atoms: N_2  and  C_21
REMARK    3  A    between atoms: C_3  and  C_5
REMARK    4  A    between atoms: C_5  and  N_6
REMARK    5  A    between atoms: C_7  and  C_8
REMARK    6  A    between atoms: C_14  and  C_15
REMARK                            x       y       z     vdW  Elec       q    Type
REMARK                         _______ _______ _______ _____ _____    ______ ____
ROOT
ATOM      6  N   UNL     1      48.303   6.164  14.856  0.00  0.00    +0.000 N 
ATOM      7  C   UNL     1      48.035   5.472  16.024  0.00  0.00    +0.000 A 
ATOM     11  C   UNL     1      48.710   6.096  17.052  0.00  0.00    +0.000 A 
ATOM     12  C   UNL     1      49.545   7.072  16.486  0.00  0.00    +0.000 A 
ATOM     13  C   UNL     1      50.531   7.912  17.010  0.00  0.00    +0.000 A 
ATOM     14  C   UNL     1      51.231   8.719  16.123  0.00  0.00    +0.000 A 
ATOM     18  C   UNL     1      50.896   8.659  14.769  0.00  0.00    +0.000 A 
ATOM     19  N   UNL     1      49.930   7.871  14.210  0.00  0.00    +0.000 NA
ATOM     20  C   UNL     1      49.293   7.098  15.119  0.00  0.00    +0.000 A 
ENDROOT
BRANCH  14  15
ATOM     15  C   UNL     1      52.323   9.615  16.565  0.00  0.00    +0.000 C 
ATOM     16  N   UNL     1      53.180  10.115  15.622  0.00  0.00    +0.000 N 
ATOM     17  O   UNL     1      52.461   9.914  17.743  0.00  0.00    +0.000 OA
ATOM     27  H   UNL     1      53.137   9.933  14.629  0.00  0.00    +0.000 HD
ATOM     28  H   UNL     1      53.918  10.726  15.946  0.00  0.00    +0.000 HD
ENDBRANCH  14  15
BRANCH   7   8
ATOM      8  C   UNL     1      47.193   4.213  16.224  0.00  0.00    +0.000 C 
ATOM      9  C   UNL     1      47.386   3.386  17.482  0.00  0.00    +0.000 C 
ATOM     10  C   UNL     1      47.946   2.888  16.197  0.00  0.00    +0.000 C 
ENDBRANCH   7   8
BRANCH   6   5
ATOM      5  C   UNL     1      47.812   5.889  13.509  0.00  0.00    +0.000 C 
BRANCH   5   3
ATOM      1  C   UNL     1      44.497   6.982  11.957  0.00  0.00    +0.000 C 
ATOM      2  N   UNL     1      45.564   6.064  12.378  0.00  0.00    +0.000 N 
ATOM      3  C   UNL     1      46.633   6.717  13.047  0.00  0.00    +0.000 C 
ATOM      4  O   UNL     1      46.581   7.926  13.292  0.00  0.00    +0.000 OA
BRANCH   2  21
ATOM     21  C   UNL     1      45.645   4.755  11.627  0.00  0.00    +0.000 C 
ATOM     22  C   UNL     1      44.793   4.727  10.327  0.00  0.00    +0.000 C 
ATOM     23  C   UNL     1      43.292   4.651  10.639  0.00  0.00    +0.000 C 
ATOM     24  N   UNL     1      42.946   3.498  11.473  0.00  0.00    +0.000 NA
ATOM     25  C   UNL     1      43.749   3.462  12.693  0.00  0.00    +0.000 C 
ATOM     26  C   UNL     1      45.237   3.465  12.367  0.00  0.00    +0.000 C 
ATOM     29  H   UNL     1      43.097   2.640  10.943  0.00  0.00    +0.000 HD
ENDBRANCH   2  21
ENDBRANCH   5   3
ENDBRANCH   6   5
TORSDOF 5
ENDMDL
