MODEL 1
REMARK VINA RESULT:    -7.064      0.000      0.000
REMARK INTER + INTRA:         -11.485
REMARK INTER:                 -10.368
REMARK INTRA:                  -1.116
REMARK UNBOUND:                -1.116
REMARK  Name = 
REMARK  9 active torsions:
REMARK  status: ('A' for Active; 'I' for Inactive)
REMARK    1  A    between atoms: C_1  and  C_2
REMARK    2  A    between atoms: C_2  and  C_3
REMARK    3  A    between atoms: C_3  and  O_4
REMARK    4  A    between atoms: O_4  and  C_5
REMARK    5  A    between atoms: C_12  and  C_13
REMARK    6  A    between atoms: N_15  and  C_16
REMARK    7  A    between atoms: C_16  and  C_17
REMARK    8  A    between atoms: C_20  and  C_21
REMARK    9  A    between atoms: C_21  and  N_22
REMARK                            x       y       z     vdW  Elec       q    Type
REMARK                         _______ _______ _______ _____ _____    ______ ____
ROOT
ATOM     13  C   UNL     1      46.179   4.355  13.924  0.00  0.00    +0.000 C 
ATOM     14  O   UNL     1      46.216   3.261  13.375  0.00  0.00    +0.000 OA
ATOM     15  N   UNL     1      45.158   5.234  13.685  0.00  0.00    +0.000 N 
ATOM     31  H   UNL     1      45.192   6.154  14.103  0.00  0.00    +0.000 HD
ENDROOT
BRANCH  13  12
ATOM      5  C   UNL     1      48.133   7.174  14.227  0.00  0.00    +0.000 A 
ATOM      6  N   UNL     1      48.862   8.222  14.659  0.00  0.00    +0.000 NA
ATOM      7  C   UNL     1      49.494   8.106  15.829  0.00  0.00    +0.000 A 
ATOM      8  N   UNL     1      49.501   7.042  16.627  0.00  0.00    +0.000 NA
ATOM      9  C   UNL     1      48.732   6.035  16.176  0.00  0.00    +0.000 A 
ATOM     10  S   UNL     1      48.637   4.585  17.056  0.00  0.00    +0.000 S 
ATOM     11  C   UNL     1      47.536   3.923  15.942  0.00  0.00    +0.000 A 
ATOM     12  C   UNL     1      47.206   4.777  14.897  0.00  0.00    +0.000 A 
ATOM     30  C   UNL     1      47.976   6.018  15.007  0.00  0.00    +0.000 A 
BRANCH   5   4
ATOM      4  O   UNL     1      47.577   7.256  12.968  0.00  0.00    +0.000 OA
BRANCH   4   3
ATOM      3  C   UNL     1      47.165   8.578  12.600  0.00  0.00    +0.000 C 
BRANCH   3   2
ATOM      1  C   UNL     1      45.073   9.867  12.018  0.00  0.00    +0.000 C 
ATOM      2  C   UNL     1      45.690   8.822  12.927  0.00  0.00    +0.000 C 
ENDBRANCH   3   2
ENDBRANCH   4   3
ENDBRANCH   5   4
ENDBRANCH  13  12
BRANCH  15  16
ATOM     16  C   UNL     1      44.004   4.944  12.860  0.00  0.00    +0.000 C 
BRANCH  16  17
ATOM     17  C   UNL     1      44.415   5.015  11.406  0.00  0.00    +0.000 A 
ATOM     18  C   UNL     1      43.907   4.079  10.500  0.00  0.00    +0.000 A 
ATOM     19  C   UNL     1      44.462   3.942   9.224  0.00  0.00    +0.000 A 
ATOM     20  C   UNL     1      45.542   4.739   8.813  0.00  0.00    +0.000 A 
ATOM     28  C   UNL     1      45.993   5.741   9.689  0.00  0.00    +0.000 A 
ATOM     29  C   UNL     1      45.442   5.872  10.976  0.00  0.00    +0.000 A 
BRANCH  20  21
ATOM     21  C   UNL     1      46.346   4.355   7.583  0.00  0.00    +0.000 C 
BRANCH  21  22
ATOM     22  N   UNL     1      46.127   3.092   6.889  0.00  0.00    +0.000 NA
ATOM     23  C   UNL     1      46.513   1.868   7.590  0.00  0.00    +0.000 C 
ATOM     24  C   UNL     1      47.944   1.396   7.296  0.00  0.00    +0.000 C 
ATOM     25  O   UNL     1      48.206   1.315   5.888  0.00  0.00    +0.000 OA
ATOM     26  C   UNL     1      47.941   2.562   5.235  0.00  0.00    +0.000 C 
ATOM     27  C   UNL     1      46.498   3.025   5.476  0.00  0.00    +0.000 C 
ENDBRANCH  21  22
ENDBRANCH  20  21
ENDBRANCH  16  17
ENDBRANCH  15  16
TORSDOF 8
ENDMDL
MODEL 2
REMARK VINA RESULT:    -6.909      1.763      3.433
REMARK INTER + INTRA:         -11.257
REMARK INTER:                 -10.602
REMARK INTRA:                  -0.654
REMARK UNBOUND:                -1.116
REMARK  Name = 
REMARK  9 active torsions:
REMARK  status: ('A' for Active; 'I' for Inactive)
REMARK    1  A    between atoms: C_1  and  C_2
REMARK    2  A    between atoms: C_2  and  C_3
REMARK    3  A    between atoms: C_3  and  O_4
REMARK    4  A    between atoms: O_4  and  C_5
REMARK    5  A    between atoms: C_12  and  C_13
REMARK    6  A    between atoms: N_15  and  C_16
REMARK    7  A    between atoms: C_16  and  C_17
REMARK    8  A    between atoms: C_20  and  C_21
REMARK    9  A    between atoms: C_21  and  N_22
REMARK                            x       y       z     vdW  Elec       q    Type
REMARK                         _______ _______ _______ _____ _____    ______ ____
ROOT
ATOM     13  C   UNL     1      47.153   4.966  14.120  0.00  0.00    +0.000 C 
ATOM     14  O   UNL     1      47.488   3.813  13.877  0.00  0.00    +0.000 OA
ATOM     15  N   UNL     1      45.900   5.420  13.810  0.00  0.00    +0.000 N 
ATOM     31  H   UNL     1      45.677   6.395  13.962  0.00  0.00    +0.000 HD
ENDROOT
BRANCH  13  12
ATOM      5  C   UNL     1      48.362   5.231  17.334  0.00  0.00    +0.000 A 
ATOM      6  N   UNL     1      49.095   5.447  18.443  0.00  0.00    +0.000 NA
ATOM      7  C   UNL     1      50.004   6.425  18.413  0.00  0.00    +0.000 A 
ATOM      8  N   UNL     1      50.260   7.241  17.396  0.00  0.00    +0.000 NA
ATOM      9  C   UNL     1      49.532   6.967  16.299  0.00  0.00    +0.000 A 
ATOM     10  S   UNL     1      49.710   7.923  14.906  0.00  0.00    +0.000 S 
ATOM     11  C   UNL     1      48.584   6.978  14.053  0.00  0.00    +0.000 A 
ATOM     12  C   UNL     1      48.061   5.921  14.787  0.00  0.00    +0.000 A 
ATOM     30  C   UNL     1      48.584   5.957  16.153  0.00  0.00    +0.000 A 
BRANCH   5   4
ATOM      4  O   UNL     1      47.348   4.299  17.407  0.00  0.00    +0.000 OA
BRANCH   4   3
ATOM      3  C   UNL     1      47.785   2.997  17.819  0.00  0.00    +0.000 C 
BRANCH   3   2
ATOM      1  C   UNL     1      50.085   2.195  17.154  0.00  0.00    +0.000 C 
ATOM      2  C   UNL     1      48.631   2.318  16.740  0.00  0.00    +0.000 C 
ENDBRANCH   3   2
ENDBRANCH   4   3
ENDBRANCH   5   4
ENDBRANCH  13  12
BRANCH  15  16
ATOM     16  C   UNL     1      44.841   4.596  13.267  0.00  0.00    +0.000 C 
BRANCH  16  17
ATOM     17  C   UNL     1      44.914   4.642  11.757  0.00  0.00    +0.000 A 
ATOM     18  C   UNL     1      44.639   3.487  11.018  0.00  0.00    +0.000 A 
ATOM     19  C   UNL     1      44.955   3.413   9.658  0.00  0.00    +0.000 A 
ATOM     20  C   UNL     1      45.555   4.494   8.993  0.00  0.00    +0.000 A 
ATOM     28  C   UNL     1      45.746   5.686   9.712  0.00  0.00    +0.000 A 
ATOM     29  C   UNL     1      45.439   5.757  11.082  0.00  0.00    +0.000 A 
BRANCH  20  21
ATOM     21  C   UNL     1      46.197   4.289   7.633  0.00  0.00    +0.000 C 
BRANCH  21  22
ATOM     22  N   UNL     1      46.045   3.041   6.894  0.00  0.00    +0.000 NA
ATOM     23  C   UNL     1      46.477   1.813   7.560  0.00  0.00    +0.000 C 
ATOM     24  C   UNL     1      47.931   1.416   7.269  0.00  0.00    +0.000 C 
ATOM     25  O   UNL     1      48.214   1.394   5.863  0.00  0.00    +0.000 OA
ATOM     26  C   UNL     1      47.901   2.649   5.248  0.00  0.00    +0.000 C 
ATOM     27  C   UNL     1      46.436   3.039   5.485  0.00  0.00    +0.000 C 
ENDBRANCH  21  22
ENDBRANCH  20  21
ENDBRANCH  16  17
ENDBRANCH  15  16
TORSDOF 8
ENDMDL
MODEL 3
REMARK VINA RESULT:    -6.717      4.011      9.082
REMARK INTER + INTRA:         -10.974
REMARK INTER:                  -9.880
REMARK INTRA:                  -1.095
REMARK UNBOUND:                -1.116
REMARK  Name = 
REMARK  9 active torsions:
REMARK  status: ('A' for Active; 'I' for Inactive)
REMARK    1  A    between atoms: C_1  and  C_2
REMARK    2  A    between atoms: C_2  and  C_3
REMARK    3  A    between atoms: C_3  and  O_4
REMARK    4  A    between atoms: O_4  and  C_5
REMARK    5  A    between atoms: C_12  and  C_13
REMARK    6  A    between atoms: N_15  and  C_16
REMARK    7  A    between atoms: C_16  and  C_17
REMARK    8  A    between atoms: C_20  and  C_21
REMARK    9  A    between atoms: C_21  and  N_22
REMARK                            x       y       z     vdW  Elec       q    Type
REMARK                         _______ _______ _______ _____ _____    ______ ____
ROOT
ATOM     13  C   UNL     1      47.091   4.315  14.621  0.00  0.00    +0.000 C 
ATOM     14  O   UNL     1      47.406   3.179  14.290  0.00  0.00    +0.000 OA
ATOM     15  N   UNL     1      46.972   4.662  15.939  0.00  0.00    +0.000 N 
ATOM     31  H   UNL     1      46.645   5.589  16.177  0.00  0.00    +0.000 HD
ENDROOT
BRANCH  13  12
ATOM      5  C   UNL     1      44.360   5.217  12.725  0.00  0.00    +0.000 A 
ATOM      6  N   UNL     1      43.408   5.865  12.027  0.00  0.00    +0.000 NA
ATOM      7  C   UNL     1      43.741   7.010  11.426  0.00  0.00    +0.000 A 
ATOM      8  N   UNL     1      44.939   7.586  11.422  0.00  0.00    +0.000 NA
ATOM      9  C   UNL     1      45.849   6.926  12.161  0.00  0.00    +0.000 A 
ATOM     10  S   UNL     1      47.443   7.505  12.254  0.00  0.00    +0.000 S 
ATOM     11  C   UNL     1      47.889   6.251  13.311  0.00  0.00    +0.000 A 
ATOM     12  C   UNL     1      46.853   5.381  13.628  0.00  0.00    +0.000 A 
ATOM     30  C   UNL     1      45.648   5.753  12.883  0.00  0.00    +0.000 A 
BRANCH   5   4
ATOM      4  O   UNL     1      44.043   3.981  13.248  0.00  0.00    +0.000 OA
BRANCH   4   3
ATOM      3  C   UNL     1      43.713   2.999  12.256  0.00  0.00    +0.000 C 
BRANCH   3   2
ATOM      1  C   UNL     1      44.265   2.918   9.794  0.00  0.00    +0.000 C 
ATOM      2  C   UNL     1      44.818   2.866  11.206  0.00  0.00    +0.000 C 
ENDBRANCH   3   2
ENDBRANCH   4   3
ENDBRANCH   5   4
ENDBRANCH  13  12
BRANCH  15  16
ATOM     16  C   UNL     1      47.285   3.786  17.048  0.00  0.00    +0.000 C 
BRANCH  16  17
ATOM     17  C   UNL     1      48.729   3.998  17.443  0.00  0.00    +0.000 A 
ATOM     18  C   UNL     1      49.211   5.299  17.618  0.00  0.00    +0.000 A 
ATOM     19  C   UNL     1      50.584   5.548  17.715  0.00  0.00    +0.000 A 
ATOM     20  C   UNL     1      51.518   4.502  17.642  0.00  0.00    +0.000 A 
ATOM     28  C   UNL     1      51.030   3.187  17.559  0.00  0.00    +0.000 A 
ATOM     29  C   UNL     1      49.651   2.937  17.450  0.00  0.00    +0.000 A 
BRANCH  20  21
ATOM     21  C   UNL     1      52.986   4.809  17.404  0.00  0.00    +0.000 C 
BRANCH  21  22
ATOM     22  N   UNL     1      53.967   4.740  18.481  0.00  0.00    +0.000 NA
ATOM     23  C   UNL     1      54.782   3.529  18.567  0.00  0.00    +0.000 C 
ATOM     24  C   UNL     1      54.200   2.440  19.481  0.00  0.00    +0.000 C 
ATOM     25  O   UNL     1      53.856   2.950  20.776  0.00  0.00    +0.000 OA
ATOM     26  C   UNL     1      52.957   4.060  20.678  0.00  0.00    +0.000 C 
ATOM     27  C   UNL     1      53.543   5.181  19.809  0.00  0.00    +0.000 C 
ENDBRANCH  21  22
ENDBRANCH  20  21
ENDBRANCH  16  17
ENDBRANCH  15  16
TORSDOF 8
ENDMDL
MODEL 4
REMARK VINA RESULT:    -6.574      3.373      5.772
REMARK INTER + INTRA:         -10.765
REMARK INTER:                  -9.352
REMARK INTRA:                  -1.413
REMARK UNBOUND:                -1.116
REMARK  Name = 
REMARK  9 active torsions:
REMARK  status: ('A' for Active; 'I' for Inactive)
REMARK    1  A    between atoms: C_1  and  C_2
REMARK    2  A    between atoms: C_2  and  C_3
REMARK    3  A    between atoms: C_3  and  O_4
REMARK    4  A    between atoms: O_4  and  C_5
REMARK    5  A    between atoms: C_12  and  C_13
REMARK    6  A    between atoms: N_15  and  C_16
REMARK    7  A    between atoms: C_16  and  C_17
REMARK    8  A    between atoms: C_20  and  C_21
REMARK    9  A    between atoms: C_21  and  N_22
REMARK                            x       y       z     vdW  Elec       q    Type
REMARK                         _______ _______ _______ _____ _____    ______ ____
ROOT
ATOM     13  C   UNL     1      48.252   9.755  16.722  0.00  0.00    +0.000 C 
ATOM     14  O   UNL     1      49.030  10.666  16.466  0.00  0.00    +0.000 OA
ATOM     15  N   UNL     1      47.680   9.011  15.726  0.00  0.00    +0.000 N 
ATOM     31  H   UNL     1      46.991   8.311  15.968  0.00  0.00    +0.000 HD
ENDROOT
BRANCH  13  12
ATOM      5  C   UNL     1      48.408   6.804  18.491  0.00  0.00    +0.000 A 
ATOM      6  N   UNL     1      48.536   5.844  19.427  0.00  0.00    +0.000 NA
ATOM      7  C   UNL     1      48.241   6.158  20.691  0.00  0.00    +0.000 A 
ATOM      8  N   UNL     1      47.806   7.332  21.138  0.00  0.00    +0.000 NA
ATOM      9  C   UNL     1      47.728   8.271  20.176  0.00  0.00    +0.000 A 
ATOM     10  S   UNL     1      47.170   9.828  20.560  0.00  0.00    +0.000 S 
ATOM     11  C   UNL     1      47.399  10.358  18.961  0.00  0.00    +0.000 A 
ATOM     12  C   UNL     1      47.910   9.385  18.110  0.00  0.00    +0.000 A 
ATOM     30  C   UNL     1      48.044   8.117  18.829  0.00  0.00    +0.000 A 
BRANCH   5   4
ATOM      4  O   UNL     1      48.603   6.445  17.173  0.00  0.00    +0.000 OA
BRANCH   4   3
ATOM      3  C   UNL     1      48.813   5.040  16.980  0.00  0.00    +0.000 C 
BRANCH   3   2
ATOM      1  C   UNL     1      47.178   3.149  17.333  0.00  0.00    +0.000 C 
ATOM      2  C   UNL     1      47.548   4.344  16.475  0.00  0.00    +0.000 C 
ENDBRANCH   3   2
ENDBRANCH   4   3
ENDBRANCH   5   4
ENDBRANCH  13  12
BRANCH  15  16
ATOM     16  C   UNL     1      47.991   9.149  14.319  0.00  0.00    +0.000 C 
BRANCH  16  17
ATOM     17  C   UNL     1      47.100   8.215  13.531  0.00  0.00    +0.000 A 
ATOM     18  C   UNL     1      47.474   6.877  13.373  0.00  0.00    +0.000 A 
ATOM     19  C   UNL     1      46.831   6.059  12.439  0.00  0.00    +0.000 A 
ATOM     20  C   UNL     1      45.791   6.553  11.635  0.00  0.00    +0.000 A 
ATOM     28  C   UNL     1      45.354   7.869  11.859  0.00  0.00    +0.000 A 
ATOM     29  C   UNL     1      46.008   8.695  12.789  0.00  0.00    +0.000 A 
BRANCH  20  21
ATOM     21  C   UNL     1      45.342   5.776  10.410  0.00  0.00    +0.000 C 
BRANCH  21  22
ATOM     22  N   UNL     1      44.321   4.738  10.493  0.00  0.00    +0.000 NA
ATOM     23  C   UNL     1      43.133   5.031  11.293  0.00  0.00    +0.000 C 
ATOM     24  C   UNL     1      43.231   4.582  12.758  0.00  0.00    +0.000 C 
ATOM     25  O   UNL     1      43.633   3.210  12.875  0.00  0.00    +0.000 OA
ATOM     26  C   UNL     1      44.867   2.968  12.189  0.00  0.00    +0.000 C 
ATOM     27  C   UNL     1      44.772   3.364  10.710  0.00  0.00    +0.000 C 
ENDBRANCH  21  22
ENDBRANCH  20  21
ENDBRANCH  16  17
ENDBRANCH  15  16
TORSDOF 8
ENDMDL
MODEL 5
REMARK VINA RESULT:    -6.572      3.374      8.555
REMARK INTER + INTRA:         -10.761
REMARK INTER:                  -9.636
REMARK INTRA:                  -1.126
REMARK UNBOUND:                -1.116
REMARK  Name = 
REMARK  9 active torsions:
REMARK  status: ('A' for Active; 'I' for Inactive)
REMARK    1  A    between atoms: C_1  and  C_2
REMARK    2  A    between atoms: C_2  and  C_3
REMARK    3  A    between atoms: C_3  and  O_4
REMARK    4  A    between atoms: O_4  and  C_5
REMARK    5  A    between atoms: C_12  and  C_13
REMARK    6  A    between atoms: N_15  and  C_16
REMARK    7  A    between atoms: C_16  and  C_17
REMARK    8  A    between atoms: C_20  and  C_21
REMARK    9  A    between atoms: C_21  and  N_22
REMARK                            x       y       z     vdW  Elec       q    Type
REMARK                         _______ _______ _______ _____ _____    ______ ____
ROOT
ATOM     13  C   UNL     1      47.133   4.121  14.887  0.00  0.00    +0.000 C 
ATOM     14  O   UNL     1      47.477   3.035  14.436  0.00  0.00    +0.000 OA
ATOM     15  N   UNL     1      46.918   4.296  16.227  0.00  0.00    +0.000 N 
ATOM     31  H   UNL     1      46.570   5.186  16.558  0.00  0.00    +0.000 HD
ENDROOT
BRANCH  13  12
ATOM      5  C   UNL     1      44.682   5.107  12.676  0.00  0.00    +0.000 A 
ATOM      6  N   UNL     1      43.802   5.785  11.915  0.00  0.00    +0.000 NA
ATOM      7  C   UNL     1      44.118   7.029  11.548  0.00  0.00    +0.000 A 
ATOM      8  N   UNL     1      45.238   7.683  11.838  0.00  0.00    +0.000 NA
ATOM      9  C   UNL     1      46.072   6.983  12.630  0.00  0.00    +0.000 A 
ATOM     10  S   UNL     1      47.564   7.653  13.086  0.00  0.00    +0.000 S 
ATOM     11  C   UNL     1      47.947   6.287  14.023  0.00  0.00    +0.000 A 
ATOM     12  C   UNL     1      46.962   5.307  14.024  0.00  0.00    +0.000 A 
ATOM     30  C   UNL     1      45.868   5.702  13.135  0.00  0.00    +0.000 A 
BRANCH   5   4
ATOM      4  O   UNL     1      44.403   3.786  12.957  0.00  0.00    +0.000 OA
BRANCH   4   3
ATOM      3  C   UNL     1      43.925   3.041  11.829  0.00  0.00    +0.000 C 
BRANCH   3   2
ATOM      1  C   UNL     1      44.405   2.521   9.405  0.00  0.00    +0.000 C 
ATOM      2  C   UNL     1      44.999   2.904  10.748  0.00  0.00    +0.000 C 
ENDBRANCH   3   2
ENDBRANCH   4   3
ENDBRANCH   5   4
ENDBRANCH  13  12
BRANCH  15  16
ATOM     16  C   UNL     1      47.154   3.283  17.233  0.00  0.00    +0.000 C 
BRANCH  16  17
ATOM     17  C   UNL     1      48.521   3.509  17.840  0.00  0.00    +0.000 A 
ATOM     18  C   UNL     1      48.687   4.497  18.816  0.00  0.00    +0.000 A 
ATOM     19  C   UNL     1      49.964   4.918  19.200  0.00  0.00    +0.000 A 
ATOM     20  C   UNL     1      51.116   4.363  18.621  0.00  0.00    +0.000 A 
ATOM     28  C   UNL     1      50.951   3.307  17.708  0.00  0.00    +0.000 A 
ATOM     29  C   UNL     1      49.668   2.891  17.314  0.00  0.00    +0.000 A 
BRANCH  20  21
ATOM     21  C   UNL     1      52.458   5.053  18.786  0.00  0.00    +0.000 C 
BRANCH  21  22
ATOM     22  N   UNL     1      52.831   6.207  17.977  0.00  0.00    +0.000 NA
ATOM     23  C   UNL     1      52.612   7.531  18.558  0.00  0.00    +0.000 C 
ATOM     24  C   UNL     1      51.250   8.154  18.215  0.00  0.00    +0.000 C 
ATOM     25  O   UNL     1      50.989   8.135  16.805  0.00  0.00    +0.000 OA
ATOM     26  C   UNL     1      51.085   6.809  16.274  0.00  0.00    +0.000 C 
ATOM     27  C   UNL     1      52.459   6.188  16.562  0.00  0.00    +0.000 C 
ENDBRANCH  21  22
ENDBRANCH  20  21
ENDBRANCH  16  17
ENDBRANCH  15  16
TORSDOF 8
ENDMDL
MODEL 6
REMARK VINA RESULT:    -6.572      3.196      5.713
REMARK INTER + INTRA:         -10.761
REMARK INTER:                  -9.019
REMARK INTRA:                  -1.743
REMARK UNBOUND:                -1.116
REMARK  Name = 
REMARK  9 active torsions:
REMARK  status: ('A' for Active; 'I' for Inactive)
REMARK    1  A    between atoms: C_1  and  C_2
REMARK    2  A    between atoms: C_2  and  C_3
REMARK    3  A    between atoms: C_3  and  O_4
REMARK    4  A    between atoms: O_4  and  C_5
REMARK    5  A    between atoms: C_12  and  C_13
REMARK    6  A    between atoms: N_15  and  C_16
REMARK    7  A    between atoms: C_16  and  C_17
REMARK    8  A    between atoms: C_20  and  C_21
REMARK    9  A    between atoms: C_21  and  N_22
REMARK                            x       y       z     vdW  Elec       q    Type
REMARK                         _______ _______ _______ _____ _____    ______ ____
ROOT
ATOM     13  C   UNL     1      50.253   7.069  16.978  0.00  0.00    +0.000 C 
ATOM     14  O   UNL     1      50.152   8.085  17.655  0.00  0.00    +0.000 OA
ATOM     15  N   UNL     1      49.668   6.978  15.745  0.00  0.00    +0.000 N 
ATOM     31  H   UNL     1      49.714   6.103  15.240  0.00  0.00    +0.000 HD
ENDROOT
BRANCH  13  12
ATOM      5  C   UNL     1      49.671   3.675  16.946  0.00  0.00    +0.000 A 
ATOM      6  N   UNL     1      49.759   2.332  16.889  0.00  0.00    +0.000 NA
ATOM      7  C   UNL     1      50.898   1.761  17.290  0.00  0.00    +0.000 A 
ATOM      8  N   UNL     1      51.972   2.380  17.770  0.00  0.00    +0.000 NA
ATOM      9  C   UNL     1      51.854   3.721  17.775  0.00  0.00    +0.000 A 
ATOM     10  S   UNL     1      53.122   4.677  18.375  0.00  0.00    +0.000 S 
ATOM     11  C   UNL     1      52.277   6.109  18.018  0.00  0.00    +0.000 A 
ATOM     12  C   UNL     1      51.035   5.901  17.431  0.00  0.00    +0.000 A 
ATOM     30  C   UNL     1      50.759   4.466  17.347  0.00  0.00    +0.000 A 
BRANCH   5   4
ATOM      4  O   UNL     1      48.456   4.251  16.640  0.00  0.00    +0.000 OA
BRANCH   4   3
ATOM      3  C   UNL     1      47.481   4.141  17.685  0.00  0.00    +0.000 C 
BRANCH   3   2
ATOM      1  C   UNL     1      47.995   5.551  19.716  0.00  0.00    +0.000 C 
ATOM      2  C   UNL     1      47.258   5.480  18.392  0.00  0.00    +0.000 C 
ENDBRANCH   3   2
ENDBRANCH   4   3
ENDBRANCH   5   4
ENDBRANCH  13  12
BRANCH  15  16
ATOM     16  C   UNL     1      48.968   8.063  15.088  0.00  0.00    +0.000 C 
BRANCH  16  17
ATOM     17  C   UNL     1      47.888   7.481  14.205  0.00  0.00    +0.000 A 
ATOM     18  C   UNL     1      47.825   6.097  14.015  0.00  0.00    +0.000 A 
ATOM     19  C   UNL     1      47.025   5.547  13.008  0.00  0.00    +0.000 A 
ATOM     20  C   UNL     1      46.262   6.365  12.160  0.00  0.00    +0.000 A 
ATOM     28  C   UNL     1      46.253   7.748  12.411  0.00  0.00    +0.000 A 
ATOM     29  C   UNL     1      47.065   8.301  13.415  0.00  0.00    +0.000 A 
BRANCH  20  21
ATOM     21  C   UNL     1      45.681   5.798  10.877  0.00  0.00    +0.000 C 
BRANCH  21  22
ATOM     22  N   UNL     1      44.282   5.397  10.781  0.00  0.00    +0.000 NA
ATOM     23  C   UNL     1      43.561   5.179  12.035  0.00  0.00    +0.000 C 
ATOM     24  C   UNL     1      43.593   3.728  12.537  0.00  0.00    +0.000 C 
ATOM     25  O   UNL     1      43.199   2.797  11.521  0.00  0.00    +0.000 OA
ATOM     26  C   UNL     1      43.999   2.941  10.342  0.00  0.00    +0.000 C 
ATOM     27  C   UNL     1      43.939   4.373   9.795  0.00  0.00    +0.000 C 
ENDBRANCH  21  22
ENDBRANCH  20  21
ENDBRANCH  16  17
ENDBRANCH  15  16
TORSDOF 8
ENDMDL
MODEL 7
REMARK VINA RESULT:    -6.435      3.722      6.579
REMARK INTER + INTRA:         -10.561
REMARK INTER:                  -9.189
REMARK INTRA:                  -1.372
REMARK UNBOUND:                -1.116
REMARK  Name = 
REMARK  9 active torsions:
REMARK  status: ('A' for Active; 'I' for Inactive)
REMARK    1  A    between atoms: C_1  and  C_2
REMARK    2  A    between atoms: C_2  and  C_3
REMARK    3  A    between atoms: C_3  and  O_4
REMARK    4  A    between atoms: O_4  and  C_5
REMARK    5  A    between atoms: C_12  and  C_13
REMARK    6  A    between atoms: N_15  and  C_16
REMARK    7  A    between atoms: C_16  and  C_17
REMARK    8  A    between atoms: C_20  and  C_21
REMARK    9  A    between atoms: C_21  and  N_22
REMARK                            x       y       z     vdW  Elec       q    Type
REMARK                         _______ _______ _______ _____ _____    ______ ____
ROOT
ATOM     13  C   UNL     1      51.014   6.152  17.339  0.00  0.00    +0.000 C 
ATOM     14  O   UNL     1      50.214   6.750  18.047  0.00  0.00    +0.000 OA
ATOM     15  N   UNL     1      51.155   6.459  16.013  0.00  0.00    +0.000 N 
ATOM     31  H   UNL     1      51.775   5.901  15.441  0.00  0.00    +0.000 HD
ENDROOT
BRANCH  13  12
ATOM      5  C   UNL     1      50.838   2.712  17.354  0.00  0.00    +0.000 A 
ATOM      6  N   UNL     1      51.087   1.388  17.336  0.00  0.00    +0.000 NA
ATOM      7  C   UNL     1      52.253   0.964  17.829  0.00  0.00    +0.000 A 
ATOM      8  N   UNL     1      53.210   1.714  18.365  0.00  0.00    +0.000 NA
ATOM      9  C   UNL     1      52.936   3.031  18.328  0.00  0.00    +0.000 A 
ATOM     10  S   UNL     1      54.038   4.142  18.989  0.00  0.00    +0.000 S 
ATOM     11  C   UNL     1      53.058   5.456  18.539  0.00  0.00    +0.000 A 
ATOM     12  C   UNL     1      51.894   5.093  17.874  0.00  0.00    +0.000 A 
ATOM     30  C   UNL     1      51.794   3.634  17.807  0.00  0.00    +0.000 A 
BRANCH   5   4
ATOM      4  O   UNL     1      49.589   3.134  16.950  0.00  0.00    +0.000 OA
BRANCH   4   3
ATOM      3  C   UNL     1      48.595   3.076  17.982  0.00  0.00    +0.000 C 
BRANCH   3   2
ATOM      1  C   UNL     1      47.117   5.095  18.313  0.00  0.00    +0.000 C 
ATOM      2  C   UNL     1      47.307   3.789  17.566  0.00  0.00    +0.000 C 
ENDBRANCH   3   2
ENDBRANCH   4   3
ENDBRANCH   5   4
ENDBRANCH  13  12
BRANCH  15  16
ATOM     16  C   UNL     1      50.468   7.545  15.346  0.00  0.00    +0.000 C 
BRANCH  16  17
ATOM     17  C   UNL     1      49.336   6.972  14.524  0.00  0.00    +0.000 A 
ATOM     18  C   UNL     1      48.973   7.593  13.324  0.00  0.00    +0.000 A 
ATOM     19  C   UNL     1      47.776   7.265  12.680  0.00  0.00    +0.000 A 
ATOM     20  C   UNL     1      46.905   6.303  13.215  0.00  0.00    +0.000 A 
ATOM     28  C   UNL     1      47.312   5.614  14.369  0.00  0.00    +0.000 A 
ATOM     29  C   UNL     1      48.510   5.951  15.023  0.00  0.00    +0.000 A 
BRANCH  20  21
ATOM     21  C   UNL     1      45.477   6.204  12.707  0.00  0.00    +0.000 C 
BRANCH  21  22
ATOM     22  N   UNL     1      44.632   5.058  13.019  0.00  0.00    +0.000 NA
ATOM     23  C   UNL     1      45.025   3.764  12.462  0.00  0.00    +0.000 C 
ATOM     24  C   UNL     1      44.386   3.441  11.103  0.00  0.00    +0.000 C 
ATOM     25  O   UNL     1      42.961   3.606  11.125  0.00  0.00    +0.000 OA
ATOM     26  C   UNL     1      42.595   4.922  11.555  0.00  0.00    +0.000 C 
ATOM     27  C   UNL     1      43.184   5.245  12.935  0.00  0.00    +0.000 C 
ENDBRANCH  21  22
ENDBRANCH  20  21
ENDBRANCH  16  17
ENDBRANCH  15  16
TORSDOF 8
ENDMDL
MODEL 8
REMARK VINA RESULT:    -6.361      3.381      5.631
REMARK INTER + INTRA:         -10.452
REMARK INTER:                  -8.929
REMARK INTRA:                  -1.523
REMARK UNBOUND:                -1.116
REMARK  Name = 
REMARK  9 active torsions:
REMARK  status: ('A' for Active; 'I' for Inactive)
REMARK    1  A    between atoms: C_1  and  C_2
REMARK    2  A    between atoms: C_2  and  C_3
REMARK    3  A    between atoms: C_3  and  O_4
REMARK    4  A    between atoms: O_4  and  C_5
REMARK    5  A    between atoms: C_12  and  C_13
REMARK    6  A    between atoms: N_15  and  C_16
REMARK    7  A    between atoms: C_16  and  C_17
REMARK    8  A    between atoms: C_20  and  C_21
REMARK    9  A    between atoms: C_21  and  N_22
REMARK                            x       y       z     vdW  Elec       q    Type
REMARK                         _______ _______ _______ _____ _____    ______ ____
ROOT
ATOM     13  C   UNL     1      48.711   8.554  16.760  0.00  0.00    +0.000 C 
ATOM     14  O   UNL     1      47.798   9.317  17.050  0.00  0.00    +0.000 OA
ATOM     15  N   UNL     1      49.082   8.356  15.458  0.00  0.00    +0.000 N 
ATOM     31  H   UNL     1      49.794   7.670  15.247  0.00  0.00    +0.000 HD
ENDROOT
BRANCH  13  12
ATOM      5  C   UNL     1      49.955   5.349  16.968  0.00  0.00    +0.000 A 
ATOM      6  N   UNL     1      50.678   4.239  17.211  0.00  0.00    +0.000 NA
ATOM      7  C   UNL     1      51.429   4.209  18.314  0.00  0.00    +0.000 A 
ATOM      8  N   UNL     1      51.532   5.164  19.233  0.00  0.00    +0.000 NA
ATOM      9  C   UNL     1      50.823   6.268  18.932  0.00  0.00    +0.000 A 
ATOM     10  S   UNL     1      50.817   7.585  20.004  0.00  0.00    +0.000 S 
ATOM     11  C   UNL     1      49.822   8.490  18.965  0.00  0.00    +0.000 A 
ATOM     12  C   UNL     1      49.483   7.831  17.789  0.00  0.00    +0.000 A 
ATOM     30  C   UNL     1      50.033   6.474  17.805  0.00  0.00    +0.000 A 
BRANCH   5   4
ATOM      4  O   UNL     1      49.095   5.332  15.891  0.00  0.00    +0.000 OA
BRANCH   4   3
ATOM      3  C   UNL     1      47.757   4.936  16.222  0.00  0.00    +0.000 C 
BRANCH   3   2
ATOM      1  C   UNL     1      47.330   2.863  17.599  0.00  0.00    +0.000 C 
ATOM      2  C   UNL     1      47.600   3.414  16.212  0.00  0.00    +0.000 C 
ENDBRANCH   3   2
ENDBRANCH   4   3
ENDBRANCH   5   4
ENDBRANCH  13  12
BRANCH  15  16
ATOM     16  C   UNL     1      48.522   9.069  14.329  0.00  0.00    +0.000 C 
BRANCH  16  17
ATOM     17  C   UNL     1      47.537   8.165  13.622  0.00  0.00    +0.000 A 
ATOM     18  C   UNL     1      47.972   6.936  13.116  0.00  0.00    +0.000 A 
ATOM     19  C   UNL     1      47.174   6.202  12.232  0.00  0.00    +0.000 A 
ATOM     20  C   UNL     1      45.915   6.674  11.828  0.00  0.00    +0.000 A 
ATOM     28  C   UNL     1      45.440   7.862  12.408  0.00  0.00    +0.000 A 
ATOM     29  C   UNL     1      46.246   8.606  13.288  0.00  0.00    +0.000 A 
BRANCH  20  21
ATOM     21  C   UNL     1      45.220   6.056  10.628  0.00  0.00    +0.000 C 
BRANCH  21  22
ATOM     22  N   UNL     1      44.260   4.969  10.775  0.00  0.00    +0.000 NA
ATOM     23  C   UNL     1      43.009   5.270  11.470  0.00  0.00    +0.000 C 
ATOM     24  C   UNL     1      43.044   4.995  12.980  0.00  0.00    +0.000 C 
ATOM     25  O   UNL     1      43.519   3.675  13.277  0.00  0.00    +0.000 OA
ATOM     26  C   UNL     1      44.805   3.439  12.692  0.00  0.00    +0.000 C 
ATOM     27  C   UNL     1      44.778   3.660  11.173  0.00  0.00    +0.000 C 
ENDBRANCH  21  22
ENDBRANCH  20  21
ENDBRANCH  16  17
ENDBRANCH  15  16
TORSDOF 8
ENDMDL
MODEL 9
REMARK VINA RESULT:    -6.346      3.443      9.057
REMARK INTER + INTRA:         -10.430
REMARK INTER:                  -9.372
REMARK INTRA:                  -1.058
REMARK UNBOUND:                -1.116
REMARK  Name = 
REMARK  9 active torsions:
REMARK  status: ('A' for Active; 'I' for Inactive)
REMARK    1  A    between atoms: C_1  and  C_2
REMARK    2  A    between atoms: C_2  and  C_3
REMARK    3  A    between atoms: C_3  and  O_4
REMARK    4  A    between atoms: O_4  and  C_5
REMARK    5  A    between atoms: C_12  and  C_13
REMARK    6  A    between atoms: N_15  and  C_16
REMARK    7  A    between atoms: C_16  and  C_17
REMARK    8  A    between atoms: C_20  and  C_21
REMARK    9  A    between atoms: C_21  and  N_22
REMARK                            x       y       z     vdW  Elec       q    Type
REMARK                         _______ _______ _______ _____ _____    ______ ____
ROOT
ATOM     13  C   UNL     1      46.912   4.254  14.438  0.00  0.00    +0.000 C 
ATOM     14  O   UNL     1      47.262   3.151  14.037  0.00  0.00    +0.000 OA
ATOM     15  N   UNL     1      46.836   4.530  15.776  0.00  0.00    +0.000 N 
ATOM     31  H   UNL     1      46.480   5.429  16.074  0.00  0.00    +0.000 HD
ENDROOT
BRANCH  13  12
ATOM      5  C   UNL     1      44.114   5.041  12.590  0.00  0.00    +0.000 A 
ATOM      6  N   UNL     1      43.111   5.649  11.929  0.00  0.00    +0.000 NA
ATOM      7  C   UNL     1      43.347   6.852  11.400  0.00  0.00    +0.000 A 
ATOM      8  N   UNL     1      44.493   7.525  11.436  0.00  0.00    +0.000 NA
ATOM      9  C   UNL     1      45.455   6.898  12.137  0.00  0.00    +0.000 A 
ATOM     10  S   UNL     1      46.995   7.601  12.272  0.00  0.00    +0.000 S 
ATOM     11  C   UNL     1      47.545   6.327  13.253  0.00  0.00    +0.000 A 
ATOM     12  C   UNL     1      46.585   5.356  13.511  0.00  0.00    +0.000 A 
ATOM     30  C   UNL     1      45.353   5.671  12.786  0.00  0.00    +0.000 A 
BRANCH   5   4
ATOM      4  O   UNL     1      43.901   3.753  13.035  0.00  0.00    +0.000 OA
BRANCH   4   3
ATOM      3  C   UNL     1      43.706   2.800  11.981  0.00  0.00    +0.000 C 
BRANCH   3   2
ATOM      1  C   UNL     1      44.426   2.572   9.572  0.00  0.00    +0.000 C 
ATOM      2  C   UNL     1      44.881   2.793  11.002  0.00  0.00    +0.000 C 
ENDBRANCH   3   2
ENDBRANCH   4   3
ENDBRANCH   5   4
ENDBRANCH  13  12
BRANCH  15  16
ATOM     16  C   UNL     1      47.234   3.616  16.825  0.00  0.00    +0.000 C 
BRANCH  16  17
ATOM     17  C   UNL     1      47.731   4.418  18.007  0.00  0.00    +0.000 A 
ATOM     18  C   UNL     1      46.904   5.393  18.575  0.00  0.00    +0.000 A 
ATOM     19  C   UNL     1      47.416   6.329  19.478  0.00  0.00    +0.000 A 
ATOM     20  C   UNL     1      48.771   6.320  19.844  0.00  0.00    +0.000 A 
ATOM     28  C   UNL     1      49.581   5.285  19.346  0.00  0.00    +0.000 A 
ATOM     29  C   UNL     1      49.070   4.350  18.429  0.00  0.00    +0.000 A 
BRANCH  20  21
ATOM     21  C   UNL     1      49.380   7.524  20.540  0.00  0.00    +0.000 C 
BRANCH  21  22
ATOM     22  N   UNL     1      49.711   8.743  19.812  0.00  0.00    +0.000 NA
ATOM     23  C   UNL     1      48.720   9.818  19.822  0.00  0.00    +0.000 C 
ATOM     24  C   UNL     1      47.736   9.782  18.644  0.00  0.00    +0.000 C 
ATOM     25  O   UNL     1      48.410   9.684  17.382  0.00  0.00    +0.000 OA
ATOM     26  C   UNL     1      49.285   8.551  17.344  0.00  0.00    +0.000 C 
ATOM     27  C   UNL     1      50.309   8.596  18.485  0.00  0.00    +0.000 C 
ENDBRANCH  21  22
ENDBRANCH  20  21
ENDBRANCH  16  17
ENDBRANCH  15  16
TORSDOF 8
ENDMDL
