MODEL 1
REMARK VINA RESULT:    -5.414      0.000      0.000
REMARK INTER + INTRA:         -14.143
REMARK INTER:                 -10.478
REMARK INTRA:                  -3.665
REMARK UNBOUND:                -3.665
REMARK  Name = 
REMARK  17 active torsions:
REMARK  status: ('A' for Active; 'I' for Inactive)
REMARK    1  A    between atoms: C_1  and  C_2
REMARK    2  A    between atoms: C_2  and  C_3
REMARK    3  A    between atoms: C_3  and  C_4
REMARK    4  A    between atoms: C_4  and  C_5
REMARK    5  A    between atoms: C_5  and  C_6
REMARK    6  A    between atoms: C_6  and  C_7
REMARK    7  A    between atoms: C_7  and  C_8
REMARK    8  A    between atoms: C_8  and  C_9
REMARK    9  A    between atoms: C_9  and  C_10
REMARK   10  A    between atoms: C_10  and  C_11
REMARK   11  A    between atoms: C_11  and  C_12
REMARK   12  A    between atoms: C_12  and  N_13
REMARK   13  A    between atoms: N_13  and  C_14
REMARK   14  A    between atoms: C_14  and  C_15
REMARK   15  A    between atoms: C_18  and  C_19
REMARK   16  A    between atoms: C_19  and  N_20
REMARK   17  A    between atoms: C_21  and  C_23
REMARK                            x       y       z     vdW  Elec       q    Type
REMARK                         _______ _______ _______ _____ _____    ______ ____
ROOT
ATOM     15  C   UNL     1      51.459   3.547  17.595  0.00  0.00    +0.000 A 
ATOM     16  C   UNL     1      50.794   4.770  17.521  0.00  0.00    +0.000 A 
ATOM     17  C   UNL     1      49.431   4.816  17.240  0.00  0.00    +0.000 A 
ATOM     18  C   UNL     1      48.693   3.635  17.059  0.00  0.00    +0.000 A 
ATOM     33  C   UNL     1      49.369   2.410  17.154  0.00  0.00    +0.000 A 
ATOM     34  C   UNL     1      50.735   2.362  17.441  0.00  0.00    +0.000 A 
ENDROOT
BRANCH  15  14
ATOM     14  C   UNL     1      52.947   3.535  17.762  0.00  0.00    +0.000 C 
BRANCH  14  13
ATOM     13  N   UNL     1      53.287   3.051  19.099  0.00  0.00    +0.000 NA
ATOM     35  H   UNL     1      52.447   2.658  19.523  0.00  0.00    +0.000 HD
BRANCH  13  12
ATOM     12  C   UNL     1      53.814   4.124  19.923  0.00  0.00    +0.000 C 
BRANCH  12  11
ATOM     11  C   UNL     1      52.827   4.490  21.024  0.00  0.00    +0.000 C 
BRANCH  11  10
ATOM     10  C   UNL     1      52.358   5.914  20.834  0.00  0.00    +0.000 C 
BRANCH  10   9
ATOM      9  C   UNL     1      50.870   6.021  21.109  0.00  0.00    +0.000 C 
BRANCH   9   8
ATOM      8  C   UNL     1      50.254   4.632  21.127  0.00  0.00    +0.000 C 
BRANCH   8   7
ATOM      7  C   UNL     1      48.754   4.720  20.904  0.00  0.00    +0.000 C 
BRANCH   7   6
ATOM      6  C   UNL     1      48.335   6.172  20.743  0.00  0.00    +0.000 C 
BRANCH   6   5
ATOM      5  C   UNL     1      47.218   6.283  19.718  0.00  0.00    +0.000 C 
BRANCH   5   4
ATOM      4  C   UNL     1      47.412   7.524  18.860  0.00  0.00    +0.000 C 
BRANCH   4   3
ATOM      3  C   UNL     1      48.867   7.966  18.897  0.00  0.00    +0.000 C 
BRANCH   3   2
ATOM      1  C   UNL     1      50.426   9.828  18.311  0.00  0.00    +0.000 C 
ATOM      2  C   UNL     1      49.085   9.187  18.015  0.00  0.00    +0.000 C 
ENDBRANCH   3   2
ENDBRANCH   4   3
ENDBRANCH   5   4
ENDBRANCH   6   5
ENDBRANCH   7   6
ENDBRANCH   8   7
ENDBRANCH   9   8
ENDBRANCH  10   9
ENDBRANCH  11  10
ENDBRANCH  12  11
ENDBRANCH  13  12
ENDBRANCH  14  13
ENDBRANCH  15  14
BRANCH  18  19
ATOM     19  C   UNL     1      47.204   3.652  16.792  0.00  0.00    +0.000 C 
BRANCH  19  20
ATOM     20  N   UNL     1      46.805   4.582  15.768  0.00  0.00    +0.000 N 
ATOM     21  C   UNL     1      46.826   4.278  14.434  0.00  0.00    +0.000 C 
ATOM     22  O   UNL     1      47.187   3.191  13.993  0.00  0.00    +0.000 OA
ATOM     36  H   UNL     1      46.657   5.546  16.033  0.00  0.00    +0.000 HD
BRANCH  21  23
ATOM     23  C   UNL     1      46.292   5.332  13.566  0.00  0.00    +0.000 A 
ATOM     24  C   UNL     1      47.038   6.472  13.301  0.00  0.00    +0.000 A 
ATOM     25  S   UNL     1      46.266   7.548  12.223  0.00  0.00    +0.000 S 
ATOM     26  C   UNL     1      44.900   6.541  12.103  0.00  0.00    +0.000 A 
ATOM     27  N   UNL     1      43.830   6.889  11.333  0.00  0.00    +0.000 NA
ATOM     28  C   UNL     1      42.861   6.040  11.351  0.00  0.00    +0.000 A 
ATOM     29  N   UNL     1      42.855   4.865  12.066  0.00  0.00    +0.000 N 
ATOM     30  C   UNL     1      43.919   4.461  12.846  0.00  0.00    +0.000 A 
ATOM     31  O   UNL     1      43.900   3.397  13.431  0.00  0.00    +0.000 OA
ATOM     32  C   UNL     1      45.033   5.397  12.859  0.00  0.00    +0.000 A 
ATOM     37  H   UNL     1      42.070   4.239  12.025  0.00  0.00    +0.000 HD
ENDBRANCH  21  23
ENDBRANCH  19  20
ENDBRANCH  18  19
TORSDOF 16
ENDMDL
MODEL 2
REMARK VINA RESULT:    -5.400      3.738      9.916
REMARK INTER + INTRA:         -14.117
REMARK INTER:                 -12.255
REMARK INTRA:                  -1.862
REMARK UNBOUND:                -3.665
REMARK  Name = 
REMARK  17 active torsions:
REMARK  status: ('A' for Active; 'I' for Inactive)
REMARK    1  A    between atoms: C_1  and  C_2
REMARK    2  A    between atoms: C_2  and  C_3
REMARK    3  A    between atoms: C_3  and  C_4
REMARK    4  A    between atoms: C_4  and  C_5
REMARK    5  A    between atoms: C_5  and  C_6
REMARK    6  A    between atoms: C_6  and  C_7
REMARK    7  A    between atoms: C_7  and  C_8
REMARK    8  A    between atoms: C_8  and  C_9
REMARK    9  A    between atoms: C_9  and  C_10
REMARK   10  A    between atoms: C_10  and  C_11
REMARK   11  A    between atoms: C_11  and  C_12
REMARK   12  A    between atoms: C_12  and  N_13
REMARK   13  A    between atoms: N_13  and  C_14
REMARK   14  A    between atoms: C_14  and  C_15
REMARK   15  A    between atoms: C_18  and  C_19
REMARK   16  A    between atoms: C_19  and  N_20
REMARK   17  A    between atoms: C_21  and  C_23
REMARK                            x       y       z     vdW  Elec       q    Type
REMARK                         _______ _______ _______ _____ _____    ______ ____
ROOT
ATOM     15  C   UNL     1      47.404   5.575  13.938  0.00  0.00    +0.000 A 
ATOM     16  C   UNL     1      47.014   4.530  14.775  0.00  0.00    +0.000 A 
ATOM     17  C   UNL     1      47.452   4.484  16.096  0.00  0.00    +0.000 A 
ATOM     18  C   UNL     1      48.265   5.502  16.621  0.00  0.00    +0.000 A 
ATOM     33  C   UNL     1      48.636   6.557  15.774  0.00  0.00    +0.000 A 
ATOM     34  C   UNL     1      48.193   6.607  14.451  0.00  0.00    +0.000 A 
ENDROOT
BRANCH  15  14
ATOM     14  C   UNL     1      47.029   5.525  12.489  0.00  0.00    +0.000 C 
BRANCH  14  13
ATOM     13  N   UNL     1      46.358   6.768  12.112  0.00  0.00    +0.000 NA
ATOM     35  H   UNL     1      45.887   7.143  12.936  0.00  0.00    +0.000 HD
BRANCH  13  12
ATOM     12  C   UNL     1      45.402   6.540  11.043  0.00  0.00    +0.000 C 
BRANCH  12  11
ATOM     11  C   UNL     1      43.981   6.783  11.534  0.00  0.00    +0.000 C 
BRANCH  11  10
ATOM     10  C   UNL     1      43.194   5.493  11.475  0.00  0.00    +0.000 C 
BRANCH  10   9
ATOM      9  C   UNL     1      43.423   4.678  12.734  0.00  0.00    +0.000 C 
BRANCH   9   8
ATOM      8  C   UNL     1      43.603   3.215  12.368  0.00  0.00    +0.000 C 
BRANCH   8   7
ATOM      7  C   UNL     1      44.738   3.059  11.370  0.00  0.00    +0.000 C 
BRANCH   7   6
ATOM      6  C   UNL     1      44.192   2.617  10.023  0.00  0.00    +0.000 C 
BRANCH   6   5
ATOM      5  C   UNL     1      45.307   2.591   8.990  0.00  0.00    +0.000 C 
BRANCH   5   4
ATOM      4  C   UNL     1      45.380   3.923   8.260  0.00  0.00    +0.000 C 
BRANCH   4   3
ATOM      3  C   UNL     1      46.568   3.937   7.310  0.00  0.00    +0.000 C 
BRANCH   3   2
ATOM      1  C   UNL     1      48.057   2.054   6.618  0.00  0.00    +0.000 C 
ATOM      2  C   UNL     1      46.657   2.630   6.535  0.00  0.00    +0.000 C 
ENDBRANCH   3   2
ENDBRANCH   4   3
ENDBRANCH   5   4
ENDBRANCH   6   5
ENDBRANCH   7   6
ENDBRANCH   8   7
ENDBRANCH   9   8
ENDBRANCH  10   9
ENDBRANCH  11  10
ENDBRANCH  12  11
ENDBRANCH  13  12
ENDBRANCH  14  13
ENDBRANCH  15  14
BRANCH  18  19
ATOM     19  C   UNL     1      48.724   5.500  18.063  0.00  0.00    +0.000 C 
BRANCH  19  20
ATOM     20  N   UNL     1      49.895   4.696  18.301  0.00  0.00    +0.000 N 
ATOM     21  C   UNL     1      51.167   5.144  18.073  0.00  0.00    +0.000 C 
ATOM     22  O   UNL     1      51.423   6.265  17.644  0.00  0.00    +0.000 OA
ATOM     36  H   UNL     1      49.764   3.712  18.492  0.00  0.00    +0.000 HD
BRANCH  21  23
ATOM     23  C   UNL     1      52.219   4.203  18.470  0.00  0.00    +0.000 A 
ATOM     24  C   UNL     1      53.274   4.622  19.269  0.00  0.00    +0.000 A 
ATOM     25  S   UNL     1      54.359   3.365  19.667  0.00  0.00    +0.000 S 
ATOM     26  C   UNL     1      53.472   2.232  18.760  0.00  0.00    +0.000 A 
ATOM     27  N   UNL     1      53.875   0.933  18.662  0.00  0.00    +0.000 NA
ATOM     28  C   UNL     1      53.116   0.193  17.929  0.00  0.00    +0.000 A 
ATOM     29  N   UNL     1      51.983   0.624  17.279  0.00  0.00    +0.000 N 
ATOM     30  C   UNL     1      51.526   1.924  17.360  0.00  0.00    +0.000 A 
ATOM     31  O   UNL     1      50.499   2.263  16.809  0.00  0.00    +0.000 OA
ATOM     32  C   UNL     1      52.360   2.795  18.174  0.00  0.00    +0.000 A 
ATOM     37  H   UNL     1      51.427  -0.009  16.732  0.00  0.00    +0.000 HD
ENDBRANCH  21  23
ENDBRANCH  19  20
ENDBRANCH  18  19
TORSDOF 16
ENDMDL
MODEL 3
REMARK VINA RESULT:    -5.339      3.655      9.671
REMARK INTER + INTRA:         -13.998
REMARK INTER:                 -11.649
REMARK INTRA:                  -2.350
REMARK UNBOUND:                -3.665
REMARK  Name = 
REMARK  17 active torsions:
REMARK  status: ('A' for Active; 'I' for Inactive)
REMARK    1  A    between atoms: C_1  and  C_2
REMARK    2  A    between atoms: C_2  and  C_3
REMARK    3  A    between atoms: C_3  and  C_4
REMARK    4  A    between atoms: C_4  and  C_5
REMARK    5  A    between atoms: C_5  and  C_6
REMARK    6  A    between atoms: C_6  and  C_7
REMARK    7  A    between atoms: C_7  and  C_8
REMARK    8  A    between atoms: C_8  and  C_9
REMARK    9  A    between atoms: C_9  and  C_10
REMARK   10  A    between atoms: C_10  and  C_11
REMARK   11  A    between atoms: C_11  and  C_12
REMARK   12  A    between atoms: C_12  and  N_13
REMARK   13  A    between atoms: N_13  and  C_14
REMARK   14  A    between atoms: C_14  and  C_15
REMARK   15  A    between atoms: C_18  and  C_19
REMARK   16  A    between atoms: C_19  and  N_20
REMARK   17  A    between atoms: C_21  and  C_23
REMARK                            x       y       z     vdW  Elec       q    Type
REMARK                         _______ _______ _______ _____ _____    ______ ____
ROOT
ATOM     15  C   UNL     1      46.123   7.924  11.774  0.00  0.00    +0.000 A 
ATOM     16  C   UNL     1      46.841   6.735  11.894  0.00  0.00    +0.000 A 
ATOM     17  C   UNL     1      48.115   6.734  12.456  0.00  0.00    +0.000 A 
ATOM     18  C   UNL     1      48.688   7.920  12.943  0.00  0.00    +0.000 A 
ATOM     33  C   UNL     1      47.948   9.107  12.834  0.00  0.00    +0.000 A 
ATOM     34  C   UNL     1      46.668   9.109  12.275  0.00  0.00    +0.000 A 
ENDROOT
BRANCH  15  14
ATOM     14  C   UNL     1      44.816   7.916  11.044  0.00  0.00    +0.000 C 
BRANCH  14  13
ATOM     13  N   UNL     1      43.777   7.347  11.901  0.00  0.00    +0.000 NA
ATOM     35  H   UNL     1      44.215   6.684  12.541  0.00  0.00    +0.000 HD
BRANCH  13  12
ATOM     12  C   UNL     1      42.754   6.685  11.111  0.00  0.00    +0.000 C 
BRANCH  12  11
ATOM     11  C   UNL     1      42.298   5.401  11.792  0.00  0.00    +0.000 C 
BRANCH  11  10
ATOM     10  C   UNL     1      43.221   5.081  12.945  0.00  0.00    +0.000 C 
BRANCH  10   9
ATOM      9  C   UNL     1      43.759   3.668  12.814  0.00  0.00    +0.000 C 
BRANCH   9   8
ATOM      8  C   UNL     1      45.029   3.682  11.981  0.00  0.00    +0.000 C 
BRANCH   8   7
ATOM      7  C   UNL     1      44.757   3.106  10.601  0.00  0.00    +0.000 C 
BRANCH   7   6
ATOM      6  C   UNL     1      44.957   4.176   9.541  0.00  0.00    +0.000 C 
BRANCH   6   5
ATOM      5  C   UNL     1      44.759   3.582   8.156  0.00  0.00    +0.000 C 
BRANCH   5   4
ATOM      4  C   UNL     1      46.090   3.491   7.426  0.00  0.00    +0.000 C 
BRANCH   4   3
ATOM      3  C   UNL     1      46.707   2.116   7.627  0.00  0.00    +0.000 C 
BRANCH   3   2
ATOM      1  C   UNL     1      47.404   2.731   5.308  0.00  0.00    +0.000 C 
ATOM      2  C   UNL     1      47.376   1.630   6.350  0.00  0.00    +0.000 C 
ENDBRANCH   3   2
ENDBRANCH   4   3
ENDBRANCH   5   4
ENDBRANCH   6   5
ENDBRANCH   7   6
ENDBRANCH   8   7
ENDBRANCH   9   8
ENDBRANCH  10   9
ENDBRANCH  11  10
ENDBRANCH  12  11
ENDBRANCH  13  12
ENDBRANCH  14  13
ENDBRANCH  15  14
BRANCH  18  19
ATOM     19  C   UNL     1      50.053   7.943  13.594  0.00  0.00    +0.000 C 
BRANCH  19  20
ATOM     20  N   UNL     1      50.182   7.046  14.713  0.00  0.00    +0.000 N 
ATOM     21  C   UNL     1      49.594   7.277  15.926  0.00  0.00    +0.000 C 
ATOM     22  O   UNL     1      48.910   8.266  16.170  0.00  0.00    +0.000 OA
ATOM     36  H   UNL     1      50.860   6.301  14.648  0.00  0.00    +0.000 HD
BRANCH  21  23
ATOM     23  C   UNL     1      49.771   6.195  16.899  0.00  0.00    +0.000 A 
ATOM     24  C   UNL     1      50.796   6.247  17.833  0.00  0.00    +0.000 A 
ATOM     25  S   UNL     1      50.796   4.924  18.911  0.00  0.00    +0.000 S 
ATOM     26  C   UNL     1      49.447   4.224  18.145  0.00  0.00    +0.000 A 
ATOM     27  N   UNL     1      48.929   3.037  18.570  0.00  0.00    +0.000 NA
ATOM     28  C   UNL     1      47.920   2.620  17.885  0.00  0.00    +0.000 A 
ATOM     29  N   UNL     1      47.370   3.277  16.809  0.00  0.00    +0.000 N 
ATOM     30  C   UNL     1      47.849   4.488  16.351  0.00  0.00    +0.000 A 
ATOM     31  O   UNL     1      47.315   5.063  15.425  0.00  0.00    +0.000 OA
ATOM     32  C   UNL     1      48.995   4.991  17.094  0.00  0.00    +0.000 A 
ATOM     37  H   UNL     1      46.573   2.902  16.326  0.00  0.00    +0.000 HD
ENDBRANCH  21  23
ENDBRANCH  19  20
ENDBRANCH  18  19
TORSDOF 16
ENDMDL
MODEL 4
REMARK VINA RESULT:    -5.324      1.287      2.308
REMARK INTER + INTRA:         -13.969
REMARK INTER:                 -10.124
REMARK INTRA:                  -3.844
REMARK UNBOUND:                -3.665
REMARK  Name = 
REMARK  17 active torsions:
REMARK  status: ('A' for Active; 'I' for Inactive)
REMARK    1  A    between atoms: C_1  and  C_2
REMARK    2  A    between atoms: C_2  and  C_3
REMARK    3  A    between atoms: C_3  and  C_4
REMARK    4  A    between atoms: C_4  and  C_5
REMARK    5  A    between atoms: C_5  and  C_6
REMARK    6  A    between atoms: C_6  and  C_7
REMARK    7  A    between atoms: C_7  and  C_8
REMARK    8  A    between atoms: C_8  and  C_9
REMARK    9  A    between atoms: C_9  and  C_10
REMARK   10  A    between atoms: C_10  and  C_11
REMARK   11  A    between atoms: C_11  and  C_12
REMARK   12  A    between atoms: C_12  and  N_13
REMARK   13  A    between atoms: N_13  and  C_14
REMARK   14  A    between atoms: C_14  and  C_15
REMARK   15  A    between atoms: C_18  and  C_19
REMARK   16  A    between atoms: C_19  and  N_20
REMARK   17  A    between atoms: C_21  and  C_23
REMARK                            x       y       z     vdW  Elec       q    Type
REMARK                         _______ _______ _______ _____ _____    ______ ____
ROOT
ATOM     15  C   UNL     1      51.244   2.975  17.766  0.00  0.00    +0.000 A 
ATOM     16  C   UNL     1      50.592   2.001  17.011  0.00  0.00    +0.000 A 
ATOM     17  C   UNL     1      49.233   2.119  16.731  0.00  0.00    +0.000 A 
ATOM     18  C   UNL     1      48.501   3.234  17.171  0.00  0.00    +0.000 A 
ATOM     33  C   UNL     1      49.172   4.217  17.914  0.00  0.00    +0.000 A 
ATOM     34  C   UNL     1      50.537   4.102  18.191  0.00  0.00    +0.000 A 
ENDROOT
BRANCH  15  14
ATOM     14  C   UNL     1      52.670   2.752  18.166  0.00  0.00    +0.000 C 
BRANCH  14  13
ATOM     13  N   UNL     1      52.973   3.538  19.361  0.00  0.00    +0.000 NA
ATOM     35  H   UNL     1      52.199   4.181  19.529  0.00  0.00    +0.000 HD
BRANCH  13  12
ATOM     12  C   UNL     1      54.215   4.273  19.200  0.00  0.00    +0.000 C 
BRANCH  12  11
ATOM     11  C   UNL     1      54.022   5.452  18.254  0.00  0.00    +0.000 C 
BRANCH  11  10
ATOM     10  C   UNL     1      53.148   6.495  18.913  0.00  0.00    +0.000 C 
BRANCH  10   9
ATOM      9  C   UNL     1      52.502   7.382  17.865  0.00  0.00    +0.000 C 
BRANCH   9   8
ATOM      8  C   UNL     1      52.464   6.651  16.533  0.00  0.00    +0.000 C 
BRANCH   8   7
ATOM      7  C   UNL     1      51.122   6.869  15.855  0.00  0.00    +0.000 C 
BRANCH   7   6
ATOM      6  C   UNL     1      50.350   7.967  16.566  0.00  0.00    +0.000 C 
BRANCH   6   5
ATOM      5  C   UNL     1      48.887   7.575  16.697  0.00  0.00    +0.000 C 
BRANCH   5   4
ATOM      4  C   UNL     1      48.395   7.838  18.112  0.00  0.00    +0.000 C 
BRANCH   4   3
ATOM      3  C   UNL     1      49.185   8.977  18.739  0.00  0.00    +0.000 C 
BRANCH   3   2
ATOM      1  C   UNL     1      49.583   7.079  20.314  0.00  0.00    +0.000 C 
ATOM      2  C   UNL     1      49.733   8.572  20.100  0.00  0.00    +0.000 C 
ENDBRANCH   3   2
ENDBRANCH   4   3
ENDBRANCH   5   4
ENDBRANCH   6   5
ENDBRANCH   7   6
ENDBRANCH   8   7
ENDBRANCH   9   8
ENDBRANCH  10   9
ENDBRANCH  11  10
ENDBRANCH  12  11
ENDBRANCH  13  12
ENDBRANCH  14  13
ENDBRANCH  15  14
BRANCH  18  19
ATOM     19  C   UNL     1      47.034   3.409  16.848  0.00  0.00    +0.000 C 
BRANCH  19  20
ATOM     20  N   UNL     1      46.773   4.403  15.839  0.00  0.00    +0.000 N 
ATOM     21  C   UNL     1      46.885   4.153  14.499  0.00  0.00    +0.000 C 
ATOM     22  O   UNL     1      47.220   3.066  14.039  0.00  0.00    +0.000 OA
ATOM     36  H   UNL     1      46.657   5.362  16.136  0.00  0.00    +0.000 HD
BRANCH  21  23
ATOM     23  C   UNL     1      46.484   5.271  13.640  0.00  0.00    +0.000 A 
ATOM     24  C   UNL     1      47.347   6.336  13.419  0.00  0.00    +0.000 A 
ATOM     25  S   UNL     1      46.717   7.503  12.345  0.00  0.00    +0.000 S 
ATOM     26  C   UNL     1      45.261   6.641  12.167  0.00  0.00    +0.000 A 
ATOM     27  N   UNL     1      44.253   7.109  11.377  0.00  0.00    +0.000 NA
ATOM     28  C   UNL     1      43.205   6.360  11.351  0.00  0.00    +0.000 A 
ATOM     29  N   UNL     1      43.061   5.178  12.040  0.00  0.00    +0.000 N 
ATOM     30  C   UNL     1      44.058   4.655  12.839  0.00  0.00    +0.000 A 
ATOM     31  O   UNL     1      43.916   3.588  13.400  0.00  0.00    +0.000 OA
ATOM     32  C   UNL     1      45.258   5.475  12.902  0.00  0.00    +0.000 A 
ATOM     37  H   UNL     1      42.220   4.635  11.965  0.00  0.00    +0.000 HD
ENDBRANCH  21  23
ENDBRANCH  19  20
ENDBRANCH  18  19
TORSDOF 16
ENDMDL
MODEL 5
REMARK VINA RESULT:    -5.181      6.594     10.551
REMARK INTER + INTRA:         -13.693
REMARK INTER:                 -11.839
REMARK INTRA:                  -1.854
REMARK UNBOUND:                -3.665
REMARK  Name = 
REMARK  17 active torsions:
REMARK  status: ('A' for Active; 'I' for Inactive)
REMARK    1  A    between atoms: C_1  and  C_2
REMARK    2  A    between atoms: C_2  and  C_3
REMARK    3  A    between atoms: C_3  and  C_4
REMARK    4  A    between atoms: C_4  and  C_5
REMARK    5  A    between atoms: C_5  and  C_6
REMARK    6  A    between atoms: C_6  and  C_7
REMARK    7  A    between atoms: C_7  and  C_8
REMARK    8  A    between atoms: C_8  and  C_9
REMARK    9  A    between atoms: C_9  and  C_10
REMARK   10  A    between atoms: C_10  and  C_11
REMARK   11  A    between atoms: C_11  and  C_12
REMARK   12  A    between atoms: C_12  and  N_13
REMARK   13  A    between atoms: N_13  and  C_14
REMARK   14  A    between atoms: C_14  and  C_15
REMARK   15  A    between atoms: C_18  and  C_19
REMARK   16  A    between atoms: C_19  and  N_20
REMARK   17  A    between atoms: C_21  and  C_23
REMARK                            x       y       z     vdW  Elec       q    Type
REMARK                         _______ _______ _______ _____ _____    ______ ____
ROOT
ATOM     15  C   UNL     1      47.630   8.239  12.628  0.00  0.00    +0.000 A 
ATOM     16  C   UNL     1      48.259   7.395  11.714  0.00  0.00    +0.000 A 
ATOM     17  C   UNL     1      49.570   7.639  11.313  0.00  0.00    +0.000 A 
ATOM     18  C   UNL     1      50.295   8.718  11.844  0.00  0.00    +0.000 A 
ATOM     33  C   UNL     1      49.659   9.550  12.777  0.00  0.00    +0.000 A 
ATOM     34  C   UNL     1      48.346   9.303  13.184  0.00  0.00    +0.000 A 
ENDROOT
BRANCH  15  14
ATOM     14  C   UNL     1      46.180   8.030  12.935  0.00  0.00    +0.000 C 
BRANCH  14  13
ATOM     13  N   UNL     1      45.696   6.841  12.236  0.00  0.00    +0.000 NA
ATOM     35  H   UNL     1      44.980   7.128  11.569  0.00  0.00    +0.000 HD
BRANCH  13  12
ATOM     12  C   UNL     1      45.156   5.871  13.172  0.00  0.00    +0.000 C 
BRANCH  12  11
ATOM     11  C   UNL     1      46.080   4.666  13.289  0.00  0.00    +0.000 C 
BRANCH  11  10
ATOM     10  C   UNL     1      45.474   3.487  12.562  0.00  0.00    +0.000 C 
BRANCH  10   9
ATOM      9  C   UNL     1      43.961   3.603  12.538  0.00  0.00    +0.000 C 
BRANCH   9   8
ATOM      8  C   UNL     1      43.406   2.788  11.382  0.00  0.00    +0.000 C 
BRANCH   8   7
ATOM      7  C   UNL     1      44.338   2.870  10.186  0.00  0.00    +0.000 C 
BRANCH   7   6
ATOM      6  C   UNL     1      44.183   4.215   9.496  0.00  0.00    +0.000 C 
BRANCH   6   5
ATOM      5  C   UNL     1      45.319   4.428   8.508  0.00  0.00    +0.000 C 
BRANCH   5   4
ATOM      4  C   UNL     1      45.852   3.090   8.020  0.00  0.00    +0.000 C 
BRANCH   4   3
ATOM      3  C   UNL     1      46.682   3.283   6.760  0.00  0.00    +0.000 C 
BRANCH   3   2
ATOM      1  C   UNL     1      47.072   0.888   7.360  0.00  0.00    +0.000 C 
ATOM      2  C   UNL     1      47.456   2.016   6.422  0.00  0.00    +0.000 C 
ENDBRANCH   3   2
ENDBRANCH   4   3
ENDBRANCH   5   4
ENDBRANCH   6   5
ENDBRANCH   7   6
ENDBRANCH   8   7
ENDBRANCH   9   8
ENDBRANCH  10   9
ENDBRANCH  11  10
ENDBRANCH  12  11
ENDBRANCH  13  12
ENDBRANCH  14  13
ENDBRANCH  15  14
BRANCH  18  19
ATOM     19  C   UNL     1      51.733   8.986  11.458  0.00  0.00    +0.000 C 
BRANCH  19  20
ATOM     20  N   UNL     1      52.067   8.565  10.122  0.00  0.00    +0.000 N 
ATOM     21  C   UNL     1      53.258   8.866   9.520  0.00  0.00    +0.000 C 
ATOM     22  O   UNL     1      54.143   9.522  10.061  0.00  0.00    +0.000 OA
ATOM     36  H   UNL     1      51.333   8.170   9.552  0.00  0.00    +0.000 HD
BRANCH  21  23
ATOM     23  C   UNL     1      53.435   8.263   8.196  0.00  0.00    +0.000 A 
ATOM     24  C   UNL     1      53.478   9.058   7.059  0.00  0.00    +0.000 A 
ATOM     25  S   UNL     1      53.750   8.172   5.625  0.00  0.00    +0.000 S 
ATOM     26  C   UNL     1      53.786   6.698   6.473  0.00  0.00    +0.000 A 
ATOM     27  N   UNL     1      53.969   5.512   5.824  0.00  0.00    +0.000 NA
ATOM     28  C   UNL     1      53.957   4.477   6.591  0.00  0.00    +0.000 A 
ATOM     29  N   UNL     1      53.781   4.507   7.955  0.00  0.00    +0.000 N 
ATOM     30  C   UNL     1      53.608   5.682   8.659  0.00  0.00    +0.000 A 
ATOM     31  O   UNL     1      53.498   5.678   9.868  0.00  0.00    +0.000 OA
ATOM     32  C   UNL     1      53.608   6.876   7.828  0.00  0.00    +0.000 A 
ATOM     37  H   UNL     1      53.795   3.662   8.497  0.00  0.00    +0.000 HD
ENDBRANCH  21  23
ENDBRANCH  19  20
ENDBRANCH  18  19
TORSDOF 16
ENDMDL
MODEL 6
REMARK VINA RESULT:    -5.179      2.779      4.210
REMARK INTER + INTRA:         -13.688
REMARK INTER:                 -10.380
REMARK INTRA:                  -3.309
REMARK UNBOUND:                -3.665
REMARK  Name = 
REMARK  17 active torsions:
REMARK  status: ('A' for Active; 'I' for Inactive)
REMARK    1  A    between atoms: C_1  and  C_2
REMARK    2  A    between atoms: C_2  and  C_3
REMARK    3  A    between atoms: C_3  and  C_4
REMARK    4  A    between atoms: C_4  and  C_5
REMARK    5  A    between atoms: C_5  and  C_6
REMARK    6  A    between atoms: C_6  and  C_7
REMARK    7  A    between atoms: C_7  and  C_8
REMARK    8  A    between atoms: C_8  and  C_9
REMARK    9  A    between atoms: C_9  and  C_10
REMARK   10  A    between atoms: C_10  and  C_11
REMARK   11  A    between atoms: C_11  and  C_12
REMARK   12  A    between atoms: C_12  and  N_13
REMARK   13  A    between atoms: N_13  and  C_14
REMARK   14  A    between atoms: C_14  and  C_15
REMARK   15  A    between atoms: C_18  and  C_19
REMARK   16  A    between atoms: C_19  and  N_20
REMARK   17  A    between atoms: C_21  and  C_23
REMARK                            x       y       z     vdW  Elec       q    Type
REMARK                         _______ _______ _______ _____ _____    ______ ____
ROOT
ATOM     15  C   UNL     1      50.000   7.432  15.872  0.00  0.00    +0.000 A 
ATOM     16  C   UNL     1      49.725   8.681  15.316  0.00  0.00    +0.000 A 
ATOM     17  C   UNL     1      48.697   8.829  14.389  0.00  0.00    +0.000 A 
ATOM     18  C   UNL     1      47.897   7.734  14.021  0.00  0.00    +0.000 A 
ATOM     33  C   UNL     1      48.171   6.487  14.601  0.00  0.00    +0.000 A 
ATOM     34  C   UNL     1      49.199   6.339  15.535  0.00  0.00    +0.000 A 
ENDROOT
BRANCH  15  14
ATOM     14  C   UNL     1      51.196   7.279  16.760  0.00  0.00    +0.000 C 
BRANCH  14  13
ATOM     13  N   UNL     1      51.887   6.031  16.441  0.00  0.00    +0.000 NA
ATOM     35  H   UNL     1      51.193   5.341  16.154  0.00  0.00    +0.000 HD
BRANCH  13  12
ATOM     12  C   UNL     1      52.639   5.544  17.585  0.00  0.00    +0.000 C 
BRANCH  12  11
ATOM     11  C   UNL     1      52.449   4.042  17.752  0.00  0.00    +0.000 C 
BRANCH  11  10
ATOM     10  C   UNL     1      50.981   3.732  17.937  0.00  0.00    +0.000 C 
BRANCH  10   9
ATOM      9  C   UNL     1      50.622   2.438  17.231  0.00  0.00    +0.000 C 
BRANCH   9   8
ATOM      8  C   UNL     1      49.135   2.424  16.919  0.00  0.00    +0.000 C 
BRANCH   8   7
ATOM      7  C   UNL     1      48.357   3.094  18.038  0.00  0.00    +0.000 C 
BRANCH   7   6
ATOM      6  C   UNL     1      47.213   3.911  17.462  0.00  0.00    +0.000 C 
BRANCH   6   5
ATOM      5  C   UNL     1      47.044   5.201  18.248  0.00  0.00    +0.000 C 
BRANCH   5   4
ATOM      4  C   UNL     1      48.184   5.365  19.241  0.00  0.00    +0.000 C 
BRANCH   4   3
ATOM      3  C   UNL     1      48.410   6.839  19.542  0.00  0.00    +0.000 C 
BRANCH   3   2
ATOM      1  C   UNL     1      48.063   9.122  18.588  0.00  0.00    +0.000 C 
ATOM      2  C   UNL     1      47.513   7.712  18.676  0.00  0.00    +0.000 C 
ENDBRANCH   3   2
ENDBRANCH   4   3
ENDBRANCH   5   4
ENDBRANCH   6   5
ENDBRANCH   7   6
ENDBRANCH   8   7
ENDBRANCH   9   8
ENDBRANCH  10   9
ENDBRANCH  11  10
ENDBRANCH  12  11
ENDBRANCH  13  12
ENDBRANCH  14  13
ENDBRANCH  15  14
BRANCH  18  19
ATOM     19  C   UNL     1      46.748   7.872  13.046  0.00  0.00    +0.000 C 
BRANCH  19  20
ATOM     20  N   UNL     1      46.129   6.622  12.692  0.00  0.00    +0.000 N 
ATOM     21  C   UNL     1      45.046   6.533  11.862  0.00  0.00    +0.000 C 
ATOM     22  O   UNL     1      44.504   7.508  11.349  0.00  0.00    +0.000 OA
ATOM     36  H   UNL     1      46.407   5.794  13.200  0.00  0.00    +0.000 HD
BRANCH  21  23
ATOM     23  C   UNL     1      44.630   5.162  11.555  0.00  0.00    +0.000 A 
ATOM     24  C   UNL     1      43.876   4.433  12.465  0.00  0.00    +0.000 A 
ATOM     25  S   UNL     1      43.444   2.882  11.896  0.00  0.00    +0.000 S 
ATOM     26  C   UNL     1      44.276   3.123  10.432  0.00  0.00    +0.000 A 
ATOM     27  N   UNL     1      44.322   2.152   9.476  0.00  0.00    +0.000 NA
ATOM     28  C   UNL     1      45.001   2.467   8.427  0.00  0.00    +0.000 A 
ATOM     29  N   UNL     1      45.644   3.668   8.235  0.00  0.00    +0.000 N 
ATOM     30  C   UNL     1      45.614   4.687   9.164  0.00  0.00    +0.000 A 
ATOM     31  O   UNL     1      46.157   5.751   8.947  0.00  0.00    +0.000 OA
ATOM     32  C   UNL     1      44.862   4.368  10.369  0.00  0.00    +0.000 A 
ATOM     37  H   UNL     1      46.147   3.855   7.386  0.00  0.00    +0.000 HD
ENDBRANCH  21  23
ENDBRANCH  19  20
ENDBRANCH  18  19
TORSDOF 16
ENDMDL
MODEL 7
REMARK VINA RESULT:    -5.155      3.768      6.182
REMARK INTER + INTRA:         -13.642
REMARK INTER:                 -10.113
REMARK INTRA:                  -3.529
REMARK UNBOUND:                -3.665
REMARK  Name = 
REMARK  17 active torsions:
REMARK  status: ('A' for Active; 'I' for Inactive)
REMARK    1  A    between atoms: C_1  and  C_2
REMARK    2  A    between atoms: C_2  and  C_3
REMARK    3  A    between atoms: C_3  and  C_4
REMARK    4  A    between atoms: C_4  and  C_5
REMARK    5  A    between atoms: C_5  and  C_6
REMARK    6  A    between atoms: C_6  and  C_7
REMARK    7  A    between atoms: C_7  and  C_8
REMARK    8  A    between atoms: C_8  and  C_9
REMARK    9  A    between atoms: C_9  and  C_10
REMARK   10  A    between atoms: C_10  and  C_11
REMARK   11  A    between atoms: C_11  and  C_12
REMARK   12  A    between atoms: C_12  and  N_13
REMARK   13  A    between atoms: N_13  and  C_14
REMARK   14  A    between atoms: C_14  and  C_15
REMARK   15  A    between atoms: C_18  and  C_19
REMARK   16  A    between atoms: C_19  and  N_20
REMARK   17  A    between atoms: C_21  and  C_23
REMARK                            x       y       z     vdW  Elec       q    Type
REMARK                         _______ _______ _______ _____ _____    ______ ____
ROOT
ATOM     15  C   UNL     1      50.457   8.753  11.322  0.00  0.00    +0.000 A 
ATOM     16  C   UNL     1      50.016   7.449  11.541  0.00  0.00    +0.000 A 
ATOM     17  C   UNL     1      48.779   7.213  12.136  0.00  0.00    +0.000 A 
ATOM     18  C   UNL     1      47.939   8.279  12.497  0.00  0.00    +0.000 A 
ATOM     33  C   UNL     1      48.386   9.586  12.256  0.00  0.00    +0.000 A 
ATOM     34  C   UNL     1      49.624   9.824  11.654  0.00  0.00    +0.000 A 
ENDROOT
BRANCH  15  14
ATOM     14  C   UNL     1      51.845   8.976  10.807  0.00  0.00    +0.000 C 
BRANCH  14  13
ATOM     13  N   UNL     1      52.657   9.612  11.842  0.00  0.00    +0.000 NA
ATOM     35  H   UNL     1      53.431  10.100  11.391  0.00  0.00    +0.000 HD
BRANCH  13  12
ATOM     12  C   UNL     1      53.163   8.629  12.785  0.00  0.00    +0.000 C 
BRANCH  12  11
ATOM     11  C   UNL     1      52.868   9.058  14.217  0.00  0.00    +0.000 C 
BRANCH  11  10
ATOM     10  C   UNL     1      51.692   8.272  14.751  0.00  0.00    +0.000 C 
BRANCH  10   9
ATOM      9  C   UNL     1      50.562   9.208  15.135  0.00  0.00    +0.000 C 
BRANCH   9   8
ATOM      8  C   UNL     1      49.503   8.440  15.908  0.00  0.00    +0.000 C 
BRANCH   8   7
ATOM      7  C   UNL     1      49.581   6.960  15.574  0.00  0.00    +0.000 C 
BRANCH   7   6
ATOM      6  C   UNL     1      48.456   6.209  16.267  0.00  0.00    +0.000 C 
BRANCH   6   5
ATOM      5  C   UNL     1      47.790   5.251  15.293  0.00  0.00    +0.000 C 
BRANCH   5   4
ATOM      4  C   UNL     1      47.594   3.890  15.943  0.00  0.00    +0.000 C 
BRANCH   4   3
ATOM      3  C   UNL     1      47.525   4.036  17.456  0.00  0.00    +0.000 C 
BRANCH   3   2
ATOM      1  C   UNL     1      49.485   2.508  17.197  0.00  0.00    +0.000 C 
ATOM      2  C   UNL     1      48.406   3.001  18.141  0.00  0.00    +0.000 C 
ENDBRANCH   3   2
ENDBRANCH   4   3
ENDBRANCH   5   4
ENDBRANCH   6   5
ENDBRANCH   7   6
ENDBRANCH   8   7
ENDBRANCH   9   8
ENDBRANCH  10   9
ENDBRANCH  11  10
ENDBRANCH  12  11
ENDBRANCH  13  12
ENDBRANCH  14  13
ENDBRANCH  15  14
BRANCH  18  19
ATOM     19  C   UNL     1      46.574   8.054  13.110  0.00  0.00    +0.000 C 
BRANCH  19  20
ATOM     20  N   UNL     1      45.990   6.780  12.779  0.00  0.00    +0.000 N 
ATOM     21  C   UNL     1      45.028   6.627  11.819  0.00  0.00    +0.000 C 
ATOM     22  O   UNL     1      44.577   7.558  11.158  0.00  0.00    +0.000 OA
ATOM     36  H   UNL     1      46.182   5.997  13.388  0.00  0.00    +0.000 HD
BRANCH  21  23
ATOM     23  C   UNL     1      44.635   5.237  11.573  0.00  0.00    +0.000 A 
ATOM     24  C   UNL     1      43.895   4.536  12.515  0.00  0.00    +0.000 A 
ATOM     25  S   UNL     1      43.490   2.954  12.015  0.00  0.00    +0.000 S 
ATOM     26  C   UNL     1      44.316   3.145  10.540  0.00  0.00    +0.000 A 
ATOM     27  N   UNL     1      44.377   2.134   9.628  0.00  0.00    +0.000 NA
ATOM     28  C   UNL     1      45.050   2.415   8.565  0.00  0.00    +0.000 A 
ATOM     29  N   UNL     1      45.672   3.617   8.319  0.00  0.00    +0.000 N 
ATOM     30  C   UNL     1      45.625   4.675   9.204  0.00  0.00    +0.000 A 
ATOM     31  O   UNL     1      46.150   5.738   8.939  0.00  0.00    +0.000 OA
ATOM     32  C   UNL     1      44.880   4.396  10.422  0.00  0.00    +0.000 A 
ATOM     37  H   UNL     1      46.171   3.775   7.462  0.00  0.00    +0.000 HD
ENDBRANCH  21  23
ENDBRANCH  19  20
ENDBRANCH  18  19
TORSDOF 16
ENDMDL
MODEL 8
REMARK VINA RESULT:    -5.135      3.175      5.382
REMARK INTER + INTRA:         -13.604
REMARK INTER:                 -10.666
REMARK INTRA:                  -2.937
REMARK UNBOUND:                -3.665
REMARK  Name = 
REMARK  17 active torsions:
REMARK  status: ('A' for Active; 'I' for Inactive)
REMARK    1  A    between atoms: C_1  and  C_2
REMARK    2  A    between atoms: C_2  and  C_3
REMARK    3  A    between atoms: C_3  and  C_4
REMARK    4  A    between atoms: C_4  and  C_5
REMARK    5  A    between atoms: C_5  and  C_6
REMARK    6  A    between atoms: C_6  and  C_7
REMARK    7  A    between atoms: C_7  and  C_8
REMARK    8  A    between atoms: C_8  and  C_9
REMARK    9  A    between atoms: C_9  and  C_10
REMARK   10  A    between atoms: C_10  and  C_11
REMARK   11  A    between atoms: C_11  and  C_12
REMARK   12  A    between atoms: C_12  and  N_13
REMARK   13  A    between atoms: N_13  and  C_14
REMARK   14  A    between atoms: C_14  and  C_15
REMARK   15  A    between atoms: C_18  and  C_19
REMARK   16  A    between atoms: C_19  and  N_20
REMARK   17  A    between atoms: C_21  and  C_23
REMARK                            x       y       z     vdW  Elec       q    Type
REMARK                         _______ _______ _______ _____ _____    ______ ____
ROOT
ATOM     15  C   UNL     1      50.154   8.592  13.596  0.00  0.00    +0.000 A 
ATOM     16  C   UNL     1      49.942   8.300  12.249  0.00  0.00    +0.000 A 
ATOM     17  C   UNL     1      48.650   8.127  11.759  0.00  0.00    +0.000 A 
ATOM     18  C   UNL     1      47.535   8.275  12.602  0.00  0.00    +0.000 A 
ATOM     33  C   UNL     1      47.760   8.586  13.950  0.00  0.00    +0.000 A 
ATOM     34  C   UNL     1      49.055   8.765  14.442  0.00  0.00    +0.000 A 
ENDROOT
BRANCH  15  14
ATOM     14  C   UNL     1      51.555   8.637  14.120  0.00  0.00    +0.000 C 
BRANCH  14  13
ATOM     13  N   UNL     1      51.854   7.396  14.832  0.00  0.00    +0.000 NA
ATOM     35  H   UNL     1      50.988   6.867  14.936  0.00  0.00    +0.000 HD
BRANCH  13  12
ATOM     12  C   UNL     1      52.438   7.669  16.134  0.00  0.00    +0.000 C 
BRANCH  12  11
ATOM     11  C   UNL     1      51.457   7.321  17.245  0.00  0.00    +0.000 C 
BRANCH  11  10
ATOM     10  C   UNL     1      50.802   5.991  16.948  0.00  0.00    +0.000 C 
BRANCH  10   9
ATOM      9  C   UNL     1      51.699   4.851  17.392  0.00  0.00    +0.000 C 
BRANCH   9   8
ATOM      8  C   UNL     1      51.002   4.044  18.474  0.00  0.00    +0.000 C 
BRANCH   8   7
ATOM      7  C   UNL     1      49.548   4.470  18.591  0.00  0.00    +0.000 C 
BRANCH   7   6
ATOM      6  C   UNL     1      48.636   3.266  18.424  0.00  0.00    +0.000 C 
BRANCH   6   5
ATOM      5  C   UNL     1      48.421   2.975  16.947  0.00  0.00    +0.000 C 
BRANCH   5   4
ATOM      4  C   UNL     1      47.206   3.732  16.433  0.00  0.00    +0.000 C 
BRANCH   4   3
ATOM      3  C   UNL     1      47.643   4.890  15.550  0.00  0.00    +0.000 C 
BRANCH   3   2
ATOM      1  C   UNL     1      46.858   3.550  13.593  0.00  0.00    +0.000 C 
ATOM      2  C   UNL     1      46.846   4.915  14.253  0.00  0.00    +0.000 C 
ENDBRANCH   3   2
ENDBRANCH   4   3
ENDBRANCH   5   4
ENDBRANCH   6   5
ENDBRANCH   7   6
ENDBRANCH   8   7
ENDBRANCH   9   8
ENDBRANCH  10   9
ENDBRANCH  11  10
ENDBRANCH  12  11
ENDBRANCH  13  12
ENDBRANCH  14  13
ENDBRANCH  15  14
BRANCH  18  19
ATOM     19  C   UNL     1      46.119   8.132  12.090  0.00  0.00    +0.000 C 
BRANCH  19  20
ATOM     20  N   UNL     1      45.709   6.768  11.881  0.00  0.00    +0.000 N 
ATOM     21  C   UNL     1      44.449   6.421  11.475  0.00  0.00    +0.000 C 
ATOM     22  O   UNL     1      43.559   7.238  11.257  0.00  0.00    +0.000 OA
ATOM     36  H   UNL     1      46.325   6.033  12.199  0.00  0.00    +0.000 HD
BRANCH  21  23
ATOM     23  C   UNL     1      44.266   4.987  11.231  0.00  0.00    +0.000 A 
ATOM     24  C   UNL     1      43.515   4.213  12.105  0.00  0.00    +0.000 A 
ATOM     25  S   UNL     1      43.373   2.585  11.614  0.00  0.00    +0.000 S 
ATOM     26  C   UNL     1      44.336   2.854  10.238  0.00  0.00    +0.000 A 
ATOM     27  N   UNL     1      44.631   1.844   9.371  0.00  0.00    +0.000 NA
ATOM     28  C   UNL     1      45.383   2.190   8.385  0.00  0.00    +0.000 A 
ATOM     29  N   UNL     1      45.873   3.457   8.172  0.00  0.00    +0.000 N 
ATOM     30  C   UNL     1      45.590   4.516   9.010  0.00  0.00    +0.000 A 
ATOM     31  O   UNL     1      46.004   5.633   8.773  0.00  0.00    +0.000 OA
ATOM     32  C   UNL     1      44.748   4.165  10.144  0.00  0.00    +0.000 A 
ATOM     37  H   UNL     1      46.446   3.664   7.373  0.00  0.00    +0.000 HD
ENDBRANCH  21  23
ENDBRANCH  19  20
ENDBRANCH  18  19
TORSDOF 16
ENDMDL
MODEL 9
REMARK VINA RESULT:    -5.123      1.512      2.451
REMARK INTER + INTRA:         -13.580
REMARK INTER:                 -10.391
REMARK INTRA:                  -3.189
REMARK UNBOUND:                -3.665
REMARK  Name = 
REMARK  17 active torsions:
REMARK  status: ('A' for Active; 'I' for Inactive)
REMARK    1  A    between atoms: C_1  and  C_2
REMARK    2  A    between atoms: C_2  and  C_3
REMARK    3  A    between atoms: C_3  and  C_4
REMARK    4  A    between atoms: C_4  and  C_5
REMARK    5  A    between atoms: C_5  and  C_6
REMARK    6  A    between atoms: C_6  and  C_7
REMARK    7  A    between atoms: C_7  and  C_8
REMARK    8  A    between atoms: C_8  and  C_9
REMARK    9  A    between atoms: C_9  and  C_10
REMARK   10  A    between atoms: C_10  and  C_11
REMARK   11  A    between atoms: C_11  and  C_12
REMARK   12  A    between atoms: C_12  and  N_13
REMARK   13  A    between atoms: N_13  and  C_14
REMARK   14  A    between atoms: C_14  and  C_15
REMARK   15  A    between atoms: C_18  and  C_19
REMARK   16  A    between atoms: C_19  and  N_20
REMARK   17  A    between atoms: C_21  and  C_23
REMARK                            x       y       z     vdW  Elec       q    Type
REMARK                         _______ _______ _______ _____ _____    ______ ____
ROOT
ATOM     15  C   UNL     1      51.311   2.973  17.738  0.00  0.00    +0.000 A 
ATOM     16  C   UNL     1      50.634   2.009  16.992  0.00  0.00    +0.000 A 
ATOM     17  C   UNL     1      49.272   2.142  16.737  0.00  0.00    +0.000 A 
ATOM     18  C   UNL     1      48.560   3.263  17.196  0.00  0.00    +0.000 A 
ATOM     33  C   UNL     1      49.255   4.235  17.930  0.00  0.00    +0.000 A 
ATOM     34  C   UNL     1      50.623   4.105  18.181  0.00  0.00    +0.000 A 
ENDROOT
BRANCH  15  14
ATOM     14  C   UNL     1      52.741   2.734  18.110  0.00  0.00    +0.000 C 
BRANCH  14  13
ATOM     13  N   UNL     1      52.910   2.914  19.551  0.00  0.00    +0.000 NA
ATOM     35  H   UNL     1      51.995   3.095  19.963  0.00  0.00    +0.000 HD
BRANCH  13  12
ATOM     12  C   UNL     1      53.818   4.011  19.836  0.00  0.00    +0.000 C 
BRANCH  12  11
ATOM     11  C   UNL     1      53.187   4.988  20.819  0.00  0.00    +0.000 C 
BRANCH  11  10
ATOM     10  C   UNL     1      53.207   6.383  20.234  0.00  0.00    +0.000 C 
BRANCH  10   9
ATOM      9  C   UNL     1      51.799   6.943  20.159  0.00  0.00    +0.000 C 
BRANCH   9   8
ATOM      8  C   UNL     1      51.633   7.731  18.871  0.00  0.00    +0.000 C 
BRANCH   8   7
ATOM      7  C   UNL     1      52.775   7.425  17.917  0.00  0.00    +0.000 C 
BRANCH   7   6
ATOM      6  C   UNL     1      52.239   6.769  16.655  0.00  0.00    +0.000 C 
BRANCH   6   5
ATOM      5  C   UNL     1      51.902   7.828  15.619  0.00  0.00    +0.000 C 
BRANCH   5   4
ATOM      4  C   UNL     1      50.579   7.501  14.943  0.00  0.00    +0.000 C 
BRANCH   4   3
ATOM      3  C   UNL     1      49.539   7.114  15.983  0.00  0.00    +0.000 C 
BRANCH   3   2
ATOM      1  C   UNL     1      48.350   9.221  15.360  0.00  0.00    +0.000 C 
ATOM      2  C   UNL     1      48.813   8.345  16.507  0.00  0.00    +0.000 C 
ENDBRANCH   3   2
ENDBRANCH   4   3
ENDBRANCH   5   4
ENDBRANCH   6   5
ENDBRANCH   7   6
ENDBRANCH   8   7
ENDBRANCH   9   8
ENDBRANCH  10   9
ENDBRANCH  11  10
ENDBRANCH  12  11
ENDBRANCH  13  12
ENDBRANCH  14  13
ENDBRANCH  15  14
BRANCH  18  19
ATOM     19  C   UNL     1      47.088   3.455  16.901  0.00  0.00    +0.000 C 
BRANCH  19  20
ATOM     20  N   UNL     1      46.822   4.417  15.864  0.00  0.00    +0.000 N 
ATOM     21  C   UNL     1      46.904   4.120  14.531  0.00  0.00    +0.000 C 
ATOM     22  O   UNL     1      47.214   3.012  14.102  0.00  0.00    +0.000 OA
ATOM     36  H   UNL     1      46.725   5.387  16.129  0.00  0.00    +0.000 HD
BRANCH  21  23
ATOM     23  C   UNL     1      46.502   5.213  13.642  0.00  0.00    +0.000 A 
ATOM     24  C   UNL     1      47.379   6.252  13.359  0.00  0.00    +0.000 A 
ATOM     25  S   UNL     1      46.743   7.392  12.260  0.00  0.00    +0.000 S 
ATOM     26  C   UNL     1      45.267   6.553  12.151  0.00  0.00    +0.000 A 
ATOM     27  N   UNL     1      44.247   7.013  11.371  0.00  0.00    +0.000 NA
ATOM     28  C   UNL     1      43.185   6.285  11.400  0.00  0.00    +0.000 A 
ATOM     29  N   UNL     1      43.036   5.132  12.135  0.00  0.00    +0.000 N 
ATOM     30  C   UNL     1      44.043   4.618  12.927  0.00  0.00    +0.000 A 
ATOM     31  O   UNL     1      43.896   3.576  13.531  0.00  0.00    +0.000 OA
ATOM     32  C   UNL     1      45.261   5.416  12.928  0.00  0.00    +0.000 A 
ATOM     37  H   UNL     1      42.183   4.604  12.102  0.00  0.00    +0.000 HD
ENDBRANCH  21  23
ENDBRANCH  19  20
ENDBRANCH  18  19
TORSDOF 16
ENDMDL
