MODEL 1
REMARK VINA RESULT:    -6.990      0.000      0.000
REMARK INTER + INTRA:         -10.258
REMARK INTER:                  -9.441
REMARK INTRA:                  -0.817
REMARK UNBOUND:                -0.817
REMARK  Name = 
REMARK  7 active torsions:
REMARK  status: ('A' for Active; 'I' for Inactive)
REMARK    1  A    between atoms: C_1  and  O_2
REMARK    2  A    between atoms: O_2  and  C_3
REMARK    3  A    between atoms: C_10  and  C_11
REMARK    4  A    between atoms: N_13  and  C_14
REMARK    5  A    between atoms: C_14  and  C_15
REMARK    6  A    between atoms: C_18  and  C_19
REMARK    7  A    between atoms: C_19  and  N_20
REMARK                            x       y       z     vdW  Elec       q    Type
REMARK                         _______ _______ _______ _____ _____    ______ ____
ROOT
ATOM     11  C   UNL     1      46.826   4.218  14.498  0.00  0.00    +0.000 C 
ATOM     12  O   UNL     1      47.161   3.137  14.009  0.00  0.00    +0.000 OA
ATOM     13  N   UNL     1      46.858   4.435  15.846  0.00  0.00    +0.000 N 
ATOM     29  H   UNL     1      46.580   5.334  16.228  0.00  0.00    +0.000 HD
ENDROOT
BRANCH  11  10
ATOM      3  C   UNL     1      43.961   4.893  12.692  0.00  0.00    +0.000 A 
ATOM      4  N   UNL     1      42.993   5.400  11.900  0.00  0.00    +0.000 NA
ATOM      5  C   UNL     1      43.204   6.578  11.316  0.00  0.00    +0.000 A 
ATOM      6  N   UNL     1      44.292   7.336  11.422  0.00  0.00    +0.000 NA
ATOM      7  C   UNL     1      45.236   6.795  12.209  0.00  0.00    +0.000 A 
ATOM      8  S   UNL     1      46.688   7.636  12.458  0.00  0.00    +0.000 S 
ATOM      9  C   UNL     1      47.277   6.414  13.477  0.00  0.00    +0.000 A 
ATOM     10  C   UNL     1      46.406   5.346  13.644  0.00  0.00    +0.000 A 
ATOM     28  C   UNL     1      45.174   5.577  12.885  0.00  0.00    +0.000 A 
BRANCH   3   2
ATOM      1  C   UNL     1      43.688   2.606  12.342  0.00  0.00    +0.000 C 
ATOM      2  O   UNL     1      43.712   3.673  13.292  0.00  0.00    +0.000 OA
ENDBRANCH   3   2
ENDBRANCH  11  10
BRANCH  13  14
ATOM     14  C   UNL     1      47.235   3.409  16.792  0.00  0.00    +0.000 C 
BRANCH  14  15
ATOM     15  C   UNL     1      48.722   3.395  17.073  0.00  0.00    +0.000 A 
ATOM     16  C   UNL     1      49.461   2.203  17.017  0.00  0.00    +0.000 A 
ATOM     17  C   UNL     1      50.852   2.183  17.258  0.00  0.00    +0.000 A 
ATOM     18  C   UNL     1      51.551   3.350  17.604  0.00  0.00    +0.000 A 
ATOM     26  C   UNL     1      50.805   4.540  17.665  0.00  0.00    +0.000 A 
ATOM     27  C   UNL     1      49.416   4.562  17.413  0.00  0.00    +0.000 A 
BRANCH  18  19
ATOM     19  C   UNL     1      53.011   3.292  18.089  0.00  0.00    +0.000 C 
BRANCH  19  20
ATOM     20  N   UNL     1      53.321   2.838  19.466  0.00  0.00    +0.000 NA
ATOM     21  C   UNL     1      53.197   3.966  20.447  0.00  0.00    +0.000 C 
ATOM     22  C   UNL     1      54.288   5.052  20.306  0.00  0.00    +0.000 C 
ATOM     23  O   UNL     1      55.596   4.478  20.423  0.00  0.00    +0.000 OA
ATOM     24  C   UNL     1      55.775   3.401  19.493  0.00  0.00    +0.000 C 
ATOM     25  C   UNL     1      54.692   2.318  19.646  0.00  0.00    +0.000 C 
ENDBRANCH  19  20
ENDBRANCH  18  19
ENDBRANCH  14  15
ENDBRANCH  13  14
TORSDOF 6
ENDMDL
MODEL 2
REMARK VINA RESULT:    -6.665      4.388      9.541
REMARK INTER + INTRA:          -9.820
REMARK INTER:                  -9.157
REMARK INTRA:                  -0.663
REMARK UNBOUND:                -0.817
REMARK  Name = 
REMARK  7 active torsions:
REMARK  status: ('A' for Active; 'I' for Inactive)
REMARK    1  A    between atoms: C_1  and  O_2
REMARK    2  A    between atoms: O_2  and  C_3
REMARK    3  A    between atoms: C_10  and  C_11
REMARK    4  A    between atoms: N_13  and  C_14
REMARK    5  A    between atoms: C_14  and  C_15
REMARK    6  A    between atoms: C_18  and  C_19
REMARK    7  A    between atoms: C_19  and  N_20
REMARK                            x       y       z     vdW  Elec       q    Type
REMARK                         _______ _______ _______ _____ _____    ______ ____
ROOT
ATOM     11  C   UNL     1      46.152   4.537  14.037  0.00  0.00    +0.000 C 
ATOM     12  O   UNL     1      46.094   3.405  13.553  0.00  0.00    +0.000 OA
ATOM     13  N   UNL     1      45.239   5.501  13.715  0.00  0.00    +0.000 N 
ATOM     29  H   UNL     1      45.305   6.427  14.126  0.00  0.00    +0.000 HD
ENDROOT
BRANCH  11  10
ATOM      3  C   UNL     1      48.366   7.175  14.291  0.00  0.00    +0.000 A 
ATOM      4  N   UNL     1      49.330   8.056  14.629  0.00  0.00    +0.000 NA
ATOM      5  C   UNL     1      50.038   7.828  15.735  0.00  0.00    +0.000 A 
ATOM      6  N   UNL     1      49.904   6.800  16.568  0.00  0.00    +0.000 NA
ATOM      7  C   UNL     1      48.943   5.941  16.193  0.00  0.00    +0.000 A 
ATOM      8  S   UNL     1      48.636   4.574  17.150  0.00  0.00    +0.000 S 
ATOM      9  C   UNL     1      47.398   4.063  16.109  0.00  0.00    +0.000 A 
ATOM     10  C   UNL     1      47.195   4.898  15.018  0.00  0.00    +0.000 A 
ATOM     28  C   UNL     1      48.122   6.031  15.071  0.00  0.00    +0.000 A 
BRANCH   3   2
ATOM      1  C   UNL     1      48.490   7.656  12.015  0.00  0.00    +0.000 C 
ATOM      2  O   UNL     1      47.641   7.441  13.145  0.00  0.00    +0.000 OA
ENDBRANCH   3   2
ENDBRANCH  11  10
BRANCH  13  14
ATOM     14  C   UNL     1      44.180   5.282  12.757  0.00  0.00    +0.000 C 
BRANCH  14  15
ATOM     15  C   UNL     1      44.703   5.023  11.360  0.00  0.00    +0.000 A 
ATOM     16  C   UNL     1      44.312   3.884  10.638  0.00  0.00    +0.000 A 
ATOM     17  C   UNL     1      44.780   3.644   9.327  0.00  0.00    +0.000 A 
ATOM     18  C   UNL     1      45.687   4.513   8.703  0.00  0.00    +0.000 A 
ATOM     26  C   UNL     1      46.080   5.648   9.433  0.00  0.00    +0.000 A 
ATOM     27  C   UNL     1      45.605   5.895  10.740  0.00  0.00    +0.000 A 
BRANCH  18  19
ATOM     19  C   UNL     1      46.371   4.137   7.376  0.00  0.00    +0.000 C 
BRANCH  19  20
ATOM     20  N   UNL     1      45.943   2.925   6.636  0.00  0.00    +0.000 NA
ATOM     21  C   UNL     1      46.423   1.679   7.319  0.00  0.00    +0.000 C 
ATOM     22  C   UNL     1      47.953   1.468   7.253  0.00  0.00    +0.000 C 
ATOM     23  O   UNL     1      48.407   1.455   5.894  0.00  0.00    +0.000 OA
ATOM     24  C   UNL     1      47.989   2.636   5.196  0.00  0.00    +0.000 C 
ATOM     25  C   UNL     1      46.464   2.835   5.257  0.00  0.00    +0.000 C 
ENDBRANCH  19  20
ENDBRANCH  18  19
ENDBRANCH  14  15
ENDBRANCH  13  14
TORSDOF 6
ENDMDL
MODEL 3
REMARK VINA RESULT:    -6.664      2.948      9.387
REMARK INTER + INTRA:          -9.819
REMARK INTER:                  -8.845
REMARK INTRA:                  -0.974
REMARK UNBOUND:                -0.817
REMARK  Name = 
REMARK  7 active torsions:
REMARK  status: ('A' for Active; 'I' for Inactive)
REMARK    1  A    between atoms: C_1  and  O_2
REMARK    2  A    between atoms: O_2  and  C_3
REMARK    3  A    between atoms: C_10  and  C_11
REMARK    4  A    between atoms: N_13  and  C_14
REMARK    5  A    between atoms: C_14  and  C_15
REMARK    6  A    between atoms: C_18  and  C_19
REMARK    7  A    between atoms: C_19  and  N_20
REMARK                            x       y       z     vdW  Elec       q    Type
REMARK                         _______ _______ _______ _____ _____    ______ ____
ROOT
ATOM     11  C   UNL     1      50.052   6.015  17.496  0.00  0.00    +0.000 C 
ATOM     12  O   UNL     1      49.100   6.247  18.244  0.00  0.00    +0.000 OA
ATOM     13  N   UNL     1      50.195   6.658  16.299  0.00  0.00    +0.000 N 
ATOM     29  H   UNL     1      50.988   6.453  15.699  0.00  0.00    +0.000 HD
ENDROOT
BRANCH  11  10
ATOM      3  C   UNL     1      50.388   2.598  17.127  0.00  0.00    +0.000 A 
ATOM      4  N   UNL     1      50.772   1.304  17.137  0.00  0.00    +0.000 NA
ATOM      5  C   UNL     1      51.944   0.995  17.689  0.00  0.00    +0.000 A 
ATOM      6  N   UNL     1      52.804   1.838  18.254  0.00  0.00    +0.000 NA
ATOM      7  C   UNL     1      52.384   3.112  18.234  0.00  0.00    +0.000 A 
ATOM      8  S   UNL     1      53.367   4.319  18.908  0.00  0.00    +0.000 S 
ATOM      9  C   UNL     1      52.243   5.526  18.509  0.00  0.00    +0.000 A 
ATOM     10  C   UNL     1      51.104   5.051  17.872  0.00  0.00    +0.000 A 
ATOM     28  C   UNL     1      51.190   3.598  17.702  0.00  0.00    +0.000 A 
BRANCH   3   2
ATOM      1  C   UNL     1      48.103   2.879  17.488  0.00  0.00    +0.000 C 
ATOM      2  O   UNL     1      49.172   2.891  16.539  0.00  0.00    +0.000 OA
ENDBRANCH   3   2
ENDBRANCH  11  10
BRANCH  13  14
ATOM     14  C   UNL     1      49.228   7.612  15.806  0.00  0.00    +0.000 C 
BRANCH  14  15
ATOM     15  C   UNL     1      48.317   7.024  14.750  0.00  0.00    +0.000 A 
ATOM     16  C   UNL     1      47.895   5.687  14.819  0.00  0.00    +0.000 A 
ATOM     17  C   UNL     1      47.030   5.134  13.849  0.00  0.00    +0.000 A 
ATOM     18  C   UNL     1      46.585   5.887  12.751  0.00  0.00    +0.000 A 
ATOM     26  C   UNL     1      47.016   7.223  12.684  0.00  0.00    +0.000 A 
ATOM     27  C   UNL     1      47.873   7.780  13.659  0.00  0.00    +0.000 A 
BRANCH  18  19
ATOM     19  C   UNL     1      45.835   5.226  11.580  0.00  0.00    +0.000 C 
BRANCH  19  20
ATOM     20  N   UNL     1      44.379   5.449  11.408  0.00  0.00    +0.000 NA
ATOM     21  C   UNL     1      43.605   4.860  12.551  0.00  0.00    +0.000 C 
ATOM     22  C   UNL     1      43.605   3.315  12.587  0.00  0.00    +0.000 C 
ATOM     23  O   UNL     1      43.099   2.777  11.359  0.00  0.00    +0.000 OA
ATOM     24  C   UNL     1      43.817   3.295  10.231  0.00  0.00    +0.000 C 
ATOM     25  C   UNL     1      43.805   4.834  10.194  0.00  0.00    +0.000 C 
ENDBRANCH  19  20
ENDBRANCH  18  19
ENDBRANCH  14  15
ENDBRANCH  13  14
TORSDOF 6
ENDMDL
MODEL 4
REMARK VINA RESULT:    -6.083      3.789      5.141
REMARK INTER + INTRA:          -9.034
REMARK INTER:                  -8.016
REMARK INTRA:                  -1.018
REMARK UNBOUND:                -0.817
REMARK  Name = 
REMARK  7 active torsions:
REMARK  status: ('A' for Active; 'I' for Inactive)
REMARK    1  A    between atoms: C_1  and  O_2
REMARK    2  A    between atoms: O_2  and  C_3
REMARK    3  A    between atoms: C_10  and  C_11
REMARK    4  A    between atoms: N_13  and  C_14
REMARK    5  A    between atoms: C_14  and  C_15
REMARK    6  A    between atoms: C_18  and  C_19
REMARK    7  A    between atoms: C_19  and  N_20
REMARK                            x       y       z     vdW  Elec       q    Type
REMARK                         _______ _______ _______ _____ _____    ______ ____
ROOT
ATOM     11  C   UNL     1      46.178   6.900  11.384  0.00  0.00    +0.000 C 
ATOM     12  O   UNL     1      45.477   7.835  11.776  0.00  0.00    +0.000 OA
ATOM     13  N   UNL     1      47.536   6.915  11.527  0.00  0.00    +0.000 N 
ATOM     29  H   UNL     1      48.095   6.134  11.199  0.00  0.00    +0.000 HD
ENDROOT
BRANCH  11  10
ATOM      3  C   UNL     1      44.407   4.215  12.641  0.00  0.00    +0.000 A 
ATOM      4  N   UNL     1      43.726   3.069  12.849  0.00  0.00    +0.000 NA
ATOM      5  C   UNL     1      43.457   2.292  11.801  0.00  0.00    +0.000 A 
ATOM      6  N   UNL     1      43.796   2.518  10.535  0.00  0.00    +0.000 NA
ATOM      7  C   UNL     1      44.480   3.661  10.369  0.00  0.00    +0.000 A 
ATOM      8  S   UNL     1      44.983   4.105   8.811  0.00  0.00    +0.000 S 
ATOM      9  C   UNL     1      45.694   5.531   9.394  0.00  0.00    +0.000 A 
ATOM     10  C   UNL     1      45.579   5.701  10.768  0.00  0.00    +0.000 A 
ATOM     28  C   UNL     1      44.844   4.577  11.354  0.00  0.00    +0.000 A 
BRANCH   3   2
ATOM      1  C   UNL     1      45.976   4.783  14.267  0.00  0.00    +0.000 C 
ATOM      2  O   UNL     1      44.664   5.007  13.744  0.00  0.00    +0.000 OA
ENDBRANCH   3   2
ENDBRANCH  11  10
BRANCH  13  14
ATOM     14  C   UNL     1      48.248   8.036  12.099  0.00  0.00    +0.000 C 
BRANCH  14  15
ATOM     15  C   UNL     1      48.443   7.899  13.594  0.00  0.00    +0.000 A 
ATOM     16  C   UNL     1      49.045   6.758  14.146  0.00  0.00    +0.000 A 
ATOM     17  C   UNL     1      49.249   6.629  15.537  0.00  0.00    +0.000 A 
ATOM     18  C   UNL     1      48.823   7.621  16.434  0.00  0.00    +0.000 A 
ATOM     26  C   UNL     1      48.216   8.759  15.876  0.00  0.00    +0.000 A 
ATOM     27  C   UNL     1      48.021   8.893  14.484  0.00  0.00    +0.000 A 
BRANCH  18  19
ATOM     19  C   UNL     1      48.837   7.383  17.955  0.00  0.00    +0.000 C 
BRANCH  19  20
ATOM     20  N   UNL     1      47.678   6.735  18.617  0.00  0.00    +0.000 NA
ATOM     21  C   UNL     1      47.829   6.757  20.109  0.00  0.00    +0.000 C 
ATOM     22  C   UNL     1      48.951   5.841  20.647  0.00  0.00    +0.000 C 
ATOM     23  O   UNL     1      48.751   4.488  20.222  0.00  0.00    +0.000 OA
ATOM     24  C   UNL     1      48.617   4.406  18.797  0.00  0.00    +0.000 C 
ATOM     25  C   UNL     1      47.491   5.312  18.268  0.00  0.00    +0.000 C 
ENDBRANCH  19  20
ENDBRANCH  18  19
ENDBRANCH  14  15
ENDBRANCH  13  14
TORSDOF 6
ENDMDL
MODEL 5
REMARK VINA RESULT:    -6.049      3.827      9.089
REMARK INTER + INTRA:          -8.987
REMARK INTER:                  -7.711
REMARK INTRA:                  -1.277
REMARK UNBOUND:                -0.817
REMARK  Name = 
REMARK  7 active torsions:
REMARK  status: ('A' for Active; 'I' for Inactive)
REMARK    1  A    between atoms: C_1  and  O_2
REMARK    2  A    between atoms: O_2  and  C_3
REMARK    3  A    between atoms: C_10  and  C_11
REMARK    4  A    between atoms: N_13  and  C_14
REMARK    5  A    between atoms: C_14  and  C_15
REMARK    6  A    between atoms: C_18  and  C_19
REMARK    7  A    between atoms: C_19  and  N_20
REMARK                            x       y       z     vdW  Elec       q    Type
REMARK                         _______ _______ _______ _____ _____    ______ ____
ROOT
ATOM     11  C   UNL     1      48.686   8.486  16.914  0.00  0.00    +0.000 C 
ATOM     12  O   UNL     1      48.000   9.510  16.952  0.00  0.00    +0.000 OA
ATOM     13  N   UNL     1      49.348   8.111  15.779  0.00  0.00    +0.000 N 
ATOM     29  H   UNL     1      49.909   7.264  15.770  0.00  0.00    +0.000 HD
ENDROOT
BRANCH  11  10
ATOM      3  C   UNL     1      48.510   5.078  17.438  0.00  0.00    +0.000 A 
ATOM      4  N   UNL     1      48.486   3.821  17.929  0.00  0.00    +0.000 NA
ATOM      5  C   UNL     1      48.719   3.643  19.228  0.00  0.00    +0.000 A 
ATOM      6  N   UNL     1      48.976   4.590  20.127  0.00  0.00    +0.000 NA
ATOM      7  C   UNL     1      48.981   5.825  19.604  0.00  0.00    +0.000 A 
ATOM      8  S   UNL     1      49.299   7.150  20.615  0.00  0.00    +0.000 S 
ATOM      9  C   UNL     1      49.153   8.236  19.319  0.00  0.00    +0.000 A 
ATOM     10  C   UNL     1      48.853   7.632  18.105  0.00  0.00    +0.000 A 
ATOM     28  C   UNL     1      48.754   6.180  18.276  0.00  0.00    +0.000 A 
BRANCH   3   2
ATOM      1  C   UNL     1      47.282   4.321  15.608  0.00  0.00    +0.000 C 
ATOM      2  O   UNL     1      48.275   5.232  16.085  0.00  0.00    +0.000 OA
ENDBRANCH   3   2
ENDBRANCH  11  10
BRANCH  13  14
ATOM     14  C   UNL     1      49.254   8.850  14.541  0.00  0.00    +0.000 C 
BRANCH  14  15
ATOM     15  C   UNL     1      48.196   8.297  13.611  0.00  0.00    +0.000 A 
ATOM     16  C   UNL     1      46.885   8.796  13.625  0.00  0.00    +0.000 A 
ATOM     17  C   UNL     1      45.895   8.300  12.747  0.00  0.00    +0.000 A 
ATOM     18  C   UNL     1      46.170   7.256  11.850  0.00  0.00    +0.000 A 
ATOM     26  C   UNL     1      47.484   6.755  11.846  0.00  0.00    +0.000 A 
ATOM     27  C   UNL     1      48.476   7.258  12.715  0.00  0.00    +0.000 A 
BRANCH  18  19
ATOM     19  C   UNL     1      45.044   6.562  11.062  0.00  0.00    +0.000 C 
BRANCH  19  20
ATOM     20  N   UNL     1      43.933   5.896  11.783  0.00  0.00    +0.000 NA
ATOM     21  C   UNL     1      44.451   5.043  12.903  0.00  0.00    +0.000 C 
ATOM     22  C   UNL     1      45.219   3.785  12.438  0.00  0.00    +0.000 C 
ATOM     23  O   UNL     1      44.403   2.977  11.581  0.00  0.00    +0.000 OA
ATOM     24  C   UNL     1      43.893   3.741  10.480  0.00  0.00    +0.000 C 
ATOM     25  C   UNL     1      43.120   4.987  10.949  0.00  0.00    +0.000 C 
ENDBRANCH  19  20
ENDBRANCH  18  19
ENDBRANCH  14  15
ENDBRANCH  13  14
TORSDOF 6
ENDMDL
MODEL 6
REMARK VINA RESULT:    -5.988      6.486     10.202
REMARK INTER + INTRA:          -8.906
REMARK INTER:                  -8.128
REMARK INTRA:                  -0.778
REMARK UNBOUND:                -0.817
REMARK  Name = 
REMARK  7 active torsions:
REMARK  status: ('A' for Active; 'I' for Inactive)
REMARK    1  A    between atoms: C_1  and  O_2
REMARK    2  A    between atoms: O_2  and  C_3
REMARK    3  A    between atoms: C_10  and  C_11
REMARK    4  A    between atoms: N_13  and  C_14
REMARK    5  A    between atoms: C_14  and  C_15
REMARK    6  A    between atoms: C_18  and  C_19
REMARK    7  A    between atoms: C_19  and  N_20
REMARK                            x       y       z     vdW  Elec       q    Type
REMARK                         _______ _______ _______ _____ _____    ______ ____
ROOT
ATOM     11  C   UNL     1      52.575   7.923  10.164  0.00  0.00    +0.000 C 
ATOM     12  O   UNL     1      52.670   9.018   9.606  0.00  0.00    +0.000 OA
ATOM     13  N   UNL     1      51.636   7.691  11.129  0.00  0.00    +0.000 N 
ATOM     29  H   UNL     1      51.573   6.781  11.575  0.00  0.00    +0.000 HD
ENDROOT
BRANCH  11  10
ATOM      3  C   UNL     1      53.057   6.151   7.239  0.00  0.00    +0.000 A 
ATOM      4  N   UNL     1      53.431   5.296   6.265  0.00  0.00    +0.000 NA
ATOM      5  C   UNL     1      54.353   4.377   6.548  0.00  0.00    +0.000 A 
ATOM      6  N   UNL     1      54.964   4.196   7.716  0.00  0.00    +0.000 NA
ATOM      7  C   UNL     1      54.559   5.057   8.661  0.00  0.00    +0.000 A 
ATOM      8  S   UNL     1      55.244   4.968  10.211  0.00  0.00    +0.000 S 
ATOM      9  C   UNL     1      54.304   6.272  10.755  0.00  0.00    +0.000 A 
ATOM     10  C   UNL     1      53.451   6.795   9.792  0.00  0.00    +0.000 A 
ATOM     28  C   UNL     1      53.607   6.067   8.530  0.00  0.00    +0.000 A 
BRANCH   3   2
ATOM      1  C   UNL     1      52.678   8.221   6.238  0.00  0.00    +0.000 C 
ATOM      2  O   UNL     1      52.105   7.100   6.916  0.00  0.00    +0.000 OA
ENDBRANCH   3   2
ENDBRANCH  11  10
BRANCH  13  14
ATOM     14  C   UNL     1      50.728   8.715  11.596  0.00  0.00    +0.000 C 
BRANCH  14  15
ATOM     15  C   UNL     1      49.374   8.159  11.981  0.00  0.00    +0.000 A 
ATOM     16  C   UNL     1      49.243   6.862  12.502  0.00  0.00    +0.000 A 
ATOM     17  C   UNL     1      47.986   6.342  12.882  0.00  0.00    +0.000 A 
ATOM     18  C   UNL     1      46.806   7.085  12.719  0.00  0.00    +0.000 A 
ATOM     26  C   UNL     1      46.943   8.380  12.190  0.00  0.00    +0.000 A 
ATOM     27  C   UNL     1      48.201   8.905  11.820  0.00  0.00    +0.000 A 
BRANCH  18  19
ATOM     19  C   UNL     1      45.422   6.441  12.915  0.00  0.00    +0.000 C 
BRANCH  19  20
ATOM     20  N   UNL     1      44.713   5.835  11.762  0.00  0.00    +0.000 NA
ATOM     21  C   UNL     1      43.282   5.541  12.104  0.00  0.00    +0.000 C 
ATOM     22  C   UNL     1      43.096   4.395  13.125  0.00  0.00    +0.000 C 
ATOM     23  O   UNL     1      43.717   3.191  12.658  0.00  0.00    +0.000 OA
ATOM     24  C   UNL     1      45.096   3.412  12.331  0.00  0.00    +0.000 C 
ATOM     25  C   UNL     1      45.274   4.547  11.307  0.00  0.00    +0.000 C 
ENDBRANCH  19  20
ENDBRANCH  18  19
ENDBRANCH  14  15
ENDBRANCH  13  14
TORSDOF 6
ENDMDL
MODEL 7
REMARK VINA RESULT:    -5.945      3.406      9.614
REMARK INTER + INTRA:          -8.847
REMARK INTER:                  -7.854
REMARK INTRA:                  -0.993
REMARK UNBOUND:                -0.817
REMARK  Name = 
REMARK  7 active torsions:
REMARK  status: ('A' for Active; 'I' for Inactive)
REMARK    1  A    between atoms: C_1  and  O_2
REMARK    2  A    between atoms: O_2  and  C_3
REMARK    3  A    between atoms: C_10  and  C_11
REMARK    4  A    between atoms: N_13  and  C_14
REMARK    5  A    between atoms: C_14  and  C_15
REMARK    6  A    between atoms: C_18  and  C_19
REMARK    7  A    between atoms: C_19  and  N_20
REMARK                            x       y       z     vdW  Elec       q    Type
REMARK                         _______ _______ _______ _____ _____    ______ ____
ROOT
ATOM     11  C   UNL     1      51.768   7.774  15.697  0.00  0.00    +0.000 C 
ATOM     12  O   UNL     1      51.247   8.703  16.319  0.00  0.00    +0.000 OA
ATOM     13  N   UNL     1      51.586   7.623  14.351  0.00  0.00    +0.000 N 
ATOM     29  H   UNL     1      52.026   6.853  13.858  0.00  0.00    +0.000 HD
ENDROOT
BRANCH  11  10
ATOM      3  C   UNL     1      51.192   4.753  17.267  0.00  0.00    +0.000 A 
ATOM      4  N   UNL     1      51.260   3.586  17.940  0.00  0.00    +0.000 NA
ATOM      5  C   UNL     1      52.449   3.170  18.370  0.00  0.00    +0.000 A 
ATOM      6  N   UNL     1      53.615   3.791  18.211  0.00  0.00    +0.000 NA
ATOM      7  C   UNL     1      53.506   4.952  17.546  0.00  0.00    +0.000 A 
ATOM      8  S   UNL     1      54.902   5.871  17.252  0.00  0.00    +0.000 S 
ATOM      9  C   UNL     1      54.007   7.058  16.433  0.00  0.00    +0.000 A 
ATOM     10  C   UNL     1      52.644   6.797  16.372  0.00  0.00    +0.000 A 
ATOM     28  C   UNL     1      52.343   5.527  17.038  0.00  0.00    +0.000 A 
BRANCH   3   2
ATOM      1  C   UNL     1      49.249   5.917  17.814  0.00  0.00    +0.000 C 
ATOM      2  O   UNL     1      49.946   5.156  16.824  0.00  0.00    +0.000 OA
ENDBRANCH   3   2
ENDBRANCH  11  10
BRANCH  13  14
ATOM     14  C   UNL     1      50.740   8.502  13.575  0.00  0.00    +0.000 C 
BRANCH  14  15
ATOM     15  C   UNL     1      49.457   7.832  13.133  0.00  0.00    +0.000 A 
ATOM     16  C   UNL     1      48.690   7.070  14.028  0.00  0.00    +0.000 A 
ATOM     17  C   UNL     1      47.481   6.457  13.630  0.00  0.00    +0.000 A 
ATOM     18  C   UNL     1      47.014   6.550  12.310  0.00  0.00    +0.000 A 
ATOM     26  C   UNL     1      47.790   7.308  11.416  0.00  0.00    +0.000 A 
ATOM     27  C   UNL     1      48.993   7.930  11.816  0.00  0.00    +0.000 A 
BRANCH  18  19
ATOM     19  C   UNL     1      45.828   5.699  11.821  0.00  0.00    +0.000 C 
BRANCH  19  20
ATOM     20  N   UNL     1      45.152   4.760  12.749  0.00  0.00    +0.000 NA
ATOM     21  C   UNL     1      45.227   3.351  12.239  0.00  0.00    +0.000 C 
ATOM     22  C   UNL     1      44.377   3.088  10.975  0.00  0.00    +0.000 C 
ATOM     23  O   UNL     1      43.004   3.423  11.207  0.00  0.00    +0.000 OA
ATOM     24  C   UNL     1      42.872   4.770  11.681  0.00  0.00    +0.000 C 
ATOM     25  C   UNL     1      43.713   5.024  12.946  0.00  0.00    +0.000 C 
ENDBRANCH  19  20
ENDBRANCH  18  19
ENDBRANCH  14  15
ENDBRANCH  13  14
TORSDOF 6
ENDMDL
MODEL 8
REMARK VINA RESULT:    -5.878      3.808      9.341
REMARK INTER + INTRA:          -8.756
REMARK INTER:                  -7.845
REMARK INTRA:                  -0.912
REMARK UNBOUND:                -0.817
REMARK  Name = 
REMARK  7 active torsions:
REMARK  status: ('A' for Active; 'I' for Inactive)
REMARK    1  A    between atoms: C_1  and  O_2
REMARK    2  A    between atoms: O_2  and  C_3
REMARK    3  A    between atoms: C_10  and  C_11
REMARK    4  A    between atoms: N_13  and  C_14
REMARK    5  A    between atoms: C_14  and  C_15
REMARK    6  A    between atoms: C_18  and  C_19
REMARK    7  A    between atoms: C_19  and  N_20
REMARK                            x       y       z     vdW  Elec       q    Type
REMARK                         _______ _______ _______ _____ _____    ______ ____
ROOT
ATOM     11  C   UNL     1      49.222   8.188  16.695  0.00  0.00    +0.000 C 
ATOM     12  O   UNL     1      50.262   7.997  16.062  0.00  0.00    +0.000 OA
ATOM     13  N   UNL     1      48.127   8.764  16.116  0.00  0.00    +0.000 N 
ATOM     29  H   UNL     1      47.280   8.911  16.656  0.00  0.00    +0.000 HD
ENDROOT
BRANCH  11  10
ATOM      3  C   UNL     1      48.989   5.117  18.256  0.00  0.00    +0.000 A 
ATOM      4  N   UNL     1      48.867   4.082  19.114  0.00  0.00    +0.000 NA
ATOM      5  C   UNL     1      48.764   4.345  20.415  0.00  0.00    +0.000 A 
ATOM      6  N   UNL     1      48.764   5.547  20.986  0.00  0.00    +0.000 NA
ATOM      7  C   UNL     1      48.877   6.550  20.102  0.00  0.00    +0.000 A 
ATOM      8  S   UNL     1      48.901   8.150  20.665  0.00  0.00    +0.000 S 
ATOM      9  C   UNL     1      49.067   8.754  19.088  0.00  0.00    +0.000 A 
ATOM     10  C   UNL     1      49.098   7.772  18.106  0.00  0.00    +0.000 A 
ATOM     28  C   UNL     1      48.989   6.445  18.717  0.00  0.00    +0.000 A 
BRANCH   3   2
ATOM      1  C   UNL     1      47.848   4.434  16.343  0.00  0.00    +0.000 C 
ATOM      2  O   UNL     1      49.103   4.814  16.913  0.00  0.00    +0.000 OA
ENDBRANCH   3   2
ENDBRANCH  11  10
BRANCH  13  14
ATOM     14  C   UNL     1      48.124   9.231  14.748  0.00  0.00    +0.000 C 
BRANCH  14  15
ATOM     15  C   UNL     1      47.446   8.260  13.805  0.00  0.00    +0.000 A 
ATOM     16  C   UNL     1      47.861   6.923  13.718  0.00  0.00    +0.000 A 
ATOM     17  C   UNL     1      47.223   6.005  12.855  0.00  0.00    +0.000 A 
ATOM     18  C   UNL     1      46.169   6.400  12.016  0.00  0.00    +0.000 A 
ATOM     26  C   UNL     1      45.762   7.743  12.103  0.00  0.00    +0.000 A 
ATOM     27  C   UNL     1      46.393   8.659  12.973  0.00  0.00    +0.000 A 
BRANCH  18  19
ATOM     19  C   UNL     1      45.629   5.467  10.918  0.00  0.00    +0.000 C 
BRANCH  19  20
ATOM     20  N   UNL     1      44.167   5.342  10.700  0.00  0.00    +0.000 NA
ATOM     21  C   UNL     1      43.454   5.043  11.986  0.00  0.00    +0.000 C 
ATOM     22  C   UNL     1      43.731   3.631  12.551  0.00  0.00    +0.000 C 
ATOM     23  O   UNL     1      43.394   2.623  11.590  0.00  0.00    +0.000 OA
ATOM     24  C   UNL     1      44.064   2.852  10.342  0.00  0.00    +0.000 C 
ATOM     25  C   UNL     1      43.776   4.255   9.779  0.00  0.00    +0.000 C 
ENDBRANCH  19  20
ENDBRANCH  18  19
ENDBRANCH  14  15
ENDBRANCH  13  14
TORSDOF 6
ENDMDL
MODEL 9
REMARK VINA RESULT:    -4.672      0.822      1.232
REMARK INTER + INTRA:          -7.128
REMARK INTER:                  -6.327
REMARK INTRA:                  -0.801
REMARK UNBOUND:                -0.817
REMARK  Name = 
REMARK  7 active torsions:
REMARK  status: ('A' for Active; 'I' for Inactive)
REMARK    1  A    between atoms: C_1  and  O_2
REMARK    2  A    between atoms: O_2  and  C_3
REMARK    3  A    between atoms: C_10  and  C_11
REMARK    4  A    between atoms: N_13  and  C_14
REMARK    5  A    between atoms: C_14  and  C_15
REMARK    6  A    between atoms: C_18  and  C_19
REMARK    7  A    between atoms: C_19  and  N_20
REMARK                            x       y       z     vdW  Elec       q    Type
REMARK                         _______ _______ _______ _____ _____    ______ ____
ROOT
ATOM     11  C   UNL     1      46.867   4.189  14.569  0.00  0.00    +0.000 C 
ATOM     12  O   UNL     1      47.165   3.096  14.080  0.00  0.00    +0.000 OA
ATOM     13  N   UNL     1      46.868   4.393  15.919  0.00  0.00    +0.000 N 
ATOM     29  H   UNL     1      46.622   5.301  16.301  0.00  0.00    +0.000 HD
ENDROOT
BRANCH  11  10
ATOM      3  C   UNL     1      44.097   5.011  12.679  0.00  0.00    +0.000 A 
ATOM      4  N   UNL     1      43.179   5.568  11.861  0.00  0.00    +0.000 NA
ATOM      5  C   UNL     1      43.463   6.740  11.296  0.00  0.00    +0.000 A 
ATOM      6  N   UNL     1      44.581   7.446  11.445  0.00  0.00    +0.000 NA
ATOM      7  C   UNL     1      45.472   6.855  12.256  0.00  0.00    +0.000 A 
ATOM      8  S   UNL     1      46.952   7.626  12.560  0.00  0.00    +0.000 S 
ATOM      9  C   UNL     1      47.452   6.370  13.585  0.00  0.00    +0.000 A 
ATOM     10  C   UNL     1      46.527   5.342  13.713  0.00  0.00    +0.000 A 
ATOM     28  C   UNL     1      45.333   5.636  12.917  0.00  0.00    +0.000 A 
BRANCH   3   2
ATOM      1  C   UNL     1      43.538   2.784  12.279  0.00  0.00    +0.000 C 
ATOM      2  O   UNL     1      43.772   3.798  13.258  0.00  0.00    +0.000 OA
ENDBRANCH   3   2
ENDBRANCH  11  10
BRANCH  13  14
ATOM     14  C   UNL     1      47.167   3.343  16.866  0.00  0.00    +0.000 C 
BRANCH  14  15
ATOM     15  C   UNL     1      48.643   3.254  17.190  0.00  0.00    +0.000 A 
ATOM     16  C   UNL     1      49.401   2.130  16.826  0.00  0.00    +0.000 A 
ATOM     17  C   UNL     1      50.782   2.047  17.106  0.00  0.00    +0.000 A 
ATOM     18  C   UNL     1      51.451   3.069  17.798  0.00  0.00    +0.000 A 
ATOM     26  C   UNL     1      50.687   4.189  18.166  0.00  0.00    +0.000 A 
ATOM     27  C   UNL     1      49.307   4.278  17.876  0.00  0.00    +0.000 A 
BRANCH  18  19
ATOM     19  C   UNL     1      52.893   2.880  18.303  0.00  0.00    +0.000 C 
BRANCH  19  20
ATOM     20  N   UNL     1      54.036   3.368  17.493  0.00  0.00    +0.000 NA
ATOM     21  C   UNL     1      55.339   2.876  18.048  0.00  0.00    +0.000 C 
ATOM     22  C   UNL     1      55.728   3.503  19.406  0.00  0.00    +0.000 C 
ATOM     23  O   UNL     1      55.775   4.932  19.312  0.00  0.00    +0.000 OA
ATOM     24  C   UNL     1      54.543   5.459  18.800  0.00  0.00    +0.000 C 
ATOM     25  C   UNL     1      54.167   4.838  17.443  0.00  0.00    +0.000 C 
ENDBRANCH  19  20
ENDBRANCH  18  19
ENDBRANCH  14  15
ENDBRANCH  13  14
TORSDOF 6
ENDMDL
