MODEL 1
REMARK VINA RESULT:    -7.964      0.000      0.000
REMARK INTER + INTRA:         -10.341
REMARK INTER:                 -10.059
REMARK INTRA:                  -0.281
REMARK UNBOUND:                -0.281
REMARK  Name = 
REMARK  5 active torsions:
REMARK  status: ('A' for Active; 'I' for Inactive)
REMARK    1  A    between atoms: N_1  and  C_2
REMARK    2  A    between atoms: C_2  and  C_3
REMARK    3  A    between atoms: C_7  and  C_8
REMARK    4  A    between atoms: C_8  and  N_9
REMARK    5  A    between atoms: C_13  and  C_14
REMARK                            x       y       z     vdW  Elec       q    Type
REMARK                         _______ _______ _______ _____ _____    ______ ____
ROOT
ATOM      9  N   UNL     1      43.923   3.630  10.430  0.00  0.00    +0.000 N 
ATOM     10  C   UNL     1      44.827   3.324   9.399  0.00  0.00    +0.000 A 
ATOM     11  C   UNL     1      45.147   1.990   9.160  0.00  0.00    +0.000 A 
ATOM     12  C   UNL     1      46.047   1.668   8.139  0.00  0.00    +0.000 A 
ATOM     13  C   UNL     1      46.616   2.684   7.371  0.00  0.00    +0.000 A 
ATOM     17  C   UNL     1      46.261   3.983   7.692  0.00  0.00    +0.000 A 
ATOM     18  N   UNL     1      45.394   4.316   8.681  0.00  0.00    +0.000 NA
ATOM     22  H   UNL     1      43.059   3.117  10.283  0.00  0.00    +0.000 HD
ENDROOT
BRANCH  13  14
ATOM     14  C   UNL     1      47.547   2.339   6.270  0.00  0.00    +0.000 C 
ATOM     15  N   UNL     1      47.514   3.070   5.115  0.00  0.00    +0.000 N 
ATOM     16  O   UNL     1      48.335   1.405   6.378  0.00  0.00    +0.000 OA
ATOM     23  H   UNL     1      46.905   3.848   4.917  0.00  0.00    +0.000 HD
ATOM     24  H   UNL     1      48.158   2.789   4.385  0.00  0.00    +0.000 HD
ENDBRANCH  13  14
BRANCH   9   8
ATOM      8  C   UNL     1      43.673   5.062  10.558  0.00  0.00    +0.000 C 
BRANCH   8   7
ATOM      3  C   UNL     1      46.201   5.480  13.402  0.00  0.00    +0.000 A 
ATOM      4  C   UNL     1      46.610   6.806  13.192  0.00  0.00    +0.000 A 
ATOM      5  C   UNL     1      46.041   7.573  12.177  0.00  0.00    +0.000 A 
ATOM      6  C   UNL     1      45.067   7.020  11.346  0.00  0.00    +0.000 A 
ATOM      7  C   UNL     1      44.648   5.695  11.525  0.00  0.00    +0.000 A 
ATOM     19  C   UNL     1      45.214   4.939  12.565  0.00  0.00    +0.000 A 
BRANCH   3   2
ATOM      2  C   UNL     1      46.853   4.636  14.465  0.00  0.00    +0.000 C 
BRANCH   2   1
ATOM      1  N   UNL     1      47.228   3.319  13.962  0.00  0.00    +0.000 NA
ATOM     20  H   UNL     1      48.043   2.990  14.475  0.00  0.00    +0.000 HD
ATOM     21  H   UNL     1      47.520   3.417  12.991  0.00  0.00    +0.000 HD
ENDBRANCH   2   1
ENDBRANCH   3   2
ENDBRANCH   8   7
ENDBRANCH   9   8
TORSDOF 5
ENDMDL
MODEL 2
REMARK VINA RESULT:    -7.886      2.574      6.759
REMARK INTER + INTRA:         -10.242
REMARK INTER:                  -9.945
REMARK INTRA:                  -0.296
REMARK UNBOUND:                -0.281
REMARK  Name = 
REMARK  5 active torsions:
REMARK  status: ('A' for Active; 'I' for Inactive)
REMARK    1  A    between atoms: N_1  and  C_2
REMARK    2  A    between atoms: C_2  and  C_3
REMARK    3  A    between atoms: C_7  and  C_8
REMARK    4  A    between atoms: C_8  and  N_9
REMARK    5  A    between atoms: C_13  and  C_14
REMARK                            x       y       z     vdW  Elec       q    Type
REMARK                         _______ _______ _______ _____ _____    ______ ____
ROOT
ATOM      9  N   UNL     1      45.009   5.329   9.774  0.00  0.00    +0.000 N 
ATOM     10  C   UNL     1      45.513   5.158  11.073  0.00  0.00    +0.000 A 
ATOM     11  C   UNL     1      46.306   6.161  11.625  0.00  0.00    +0.000 A 
ATOM     12  C   UNL     1      46.817   6.005  12.917  0.00  0.00    +0.000 A 
ATOM     13  C   UNL     1      46.530   4.848  13.640  0.00  0.00    +0.000 A 
ATOM     17  C   UNL     1      45.755   3.892  13.008  0.00  0.00    +0.000 A 
ATOM     18  N   UNL     1      45.253   4.022  11.755  0.00  0.00    +0.000 NA
ATOM     22  H   UNL     1      44.495   6.205   9.725  0.00  0.00    +0.000 HD
ENDROOT
BRANCH  13  14
ATOM     14  C   UNL     1      47.050   4.697  15.021  0.00  0.00    +0.000 C 
ATOM     15  N   UNL     1      47.868   5.664  15.535  0.00  0.00    +0.000 N 
ATOM     16  O   UNL     1      46.764   3.715  15.700  0.00  0.00    +0.000 OA
ATOM     23  H   UNL     1      48.172   6.502  15.065  0.00  0.00    +0.000 HD
ATOM     24  H   UNL     1      48.210   5.511  16.476  0.00  0.00    +0.000 HD
ENDBRANCH  13  14
BRANCH   9   8
ATOM      8  C   UNL     1      44.187   4.208   9.331  0.00  0.00    +0.000 C 
BRANCH   8   7
ATOM      3  C   UNL     1      46.563   2.718   6.726  0.00  0.00    +0.000 A 
ATOM      4  C   UNL     1      46.707   1.414   7.223  0.00  0.00    +0.000 A 
ATOM      5  C   UNL     1      46.007   1.003   8.356  0.00  0.00    +0.000 A 
ATOM      6  C   UNL     1      45.166   1.897   9.019  0.00  0.00    +0.000 A 
ATOM      7  C   UNL     1      45.013   3.209   8.552  0.00  0.00    +0.000 A 
ATOM     19  C   UNL     1      45.706   3.604   7.397  0.00  0.00    +0.000 A 
BRANCH   3   2
ATOM      2  C   UNL     1      47.359   3.176   5.532  0.00  0.00    +0.000 C 
BRANCH   2   1
ATOM      1  N   UNL     1      48.383   2.208   5.155  0.00  0.00    +0.000 NA
ATOM     20  H   UNL     1      49.229   2.709   4.892  0.00  0.00    +0.000 HD
ATOM     21  H   UNL     1      48.069   1.715   4.321  0.00  0.00    +0.000 HD
ENDBRANCH   2   1
ENDBRANCH   3   2
ENDBRANCH   8   7
ENDBRANCH   9   8
TORSDOF 5
ENDMDL
MODEL 3
REMARK VINA RESULT:    -7.612      1.552      2.285
REMARK INTER + INTRA:          -9.896
REMARK INTER:                  -9.733
REMARK INTRA:                  -0.162
REMARK UNBOUND:                -0.281
REMARK  Name = 
REMARK  5 active torsions:
REMARK  status: ('A' for Active; 'I' for Inactive)
REMARK    1  A    between atoms: N_1  and  C_2
REMARK    2  A    between atoms: C_2  and  C_3
REMARK    3  A    between atoms: C_7  and  C_8
REMARK    4  A    between atoms: C_8  and  N_9
REMARK    5  A    between atoms: C_13  and  C_14
REMARK                            x       y       z     vdW  Elec       q    Type
REMARK                         _______ _______ _______ _____ _____    ______ ____
ROOT
ATOM      9  N   UNL     1      43.872   3.453  10.451  0.00  0.00    +0.000 N 
ATOM     10  C   UNL     1      44.781   3.188   9.413  0.00  0.00    +0.000 A 
ATOM     11  C   UNL     1      45.137   1.868   9.150  0.00  0.00    +0.000 A 
ATOM     12  C   UNL     1      46.041   1.587   8.121  0.00  0.00    +0.000 A 
ATOM     13  C   UNL     1      46.579   2.631   7.369  0.00  0.00    +0.000 A 
ATOM     17  C   UNL     1      46.190   3.914   7.712  0.00  0.00    +0.000 A 
ATOM     18  N   UNL     1      45.318   4.207   8.709  0.00  0.00    +0.000 NA
ATOM     22  H   UNL     1      43.022   2.918  10.298  0.00  0.00    +0.000 HD
ENDROOT
BRANCH  13  14
ATOM     14  C   UNL     1      47.516   2.330   6.259  0.00  0.00    +0.000 C 
ATOM     15  N   UNL     1      47.476   3.095   5.128  0.00  0.00    +0.000 N 
ATOM     16  O   UNL     1      48.313   1.401   6.340  0.00  0.00    +0.000 OA
ATOM     23  H   UNL     1      46.859   3.873   4.952  0.00  0.00    +0.000 HD
ATOM     24  H   UNL     1      48.124   2.844   4.390  0.00  0.00    +0.000 HD
ENDBRANCH  13  14
BRANCH   9   8
ATOM      8  C   UNL     1      43.583   4.875  10.604  0.00  0.00    +0.000 C 
BRANCH   8   7
ATOM      3  C   UNL     1      45.679   7.572  12.332  0.00  0.00    +0.000 A 
ATOM      4  C   UNL     1      46.347   6.803  13.296  0.00  0.00    +0.000 A 
ATOM      5  C   UNL     1      46.164   5.423  13.357  0.00  0.00    +0.000 A 
ATOM      6  C   UNL     1      45.295   4.794  12.465  0.00  0.00    +0.000 A 
ATOM      7  C   UNL     1      44.605   5.539  11.499  0.00  0.00    +0.000 A 
ATOM     19  C   UNL     1      44.815   6.926  11.434  0.00  0.00    +0.000 A 
BRANCH   3   2
ATOM      2  C   UNL     1      45.838   9.070  12.301  0.00  0.00    +0.000 C 
BRANCH   2   1
ATOM      1  N   UNL     1      44.601   9.757  12.655  0.00  0.00    +0.000 NA
ATOM     20  H   UNL     1      44.060   9.162  13.278  0.00  0.00    +0.000 HD
ATOM     21  H   UNL     1      44.043   9.871  11.810  0.00  0.00    +0.000 HD
ENDBRANCH   2   1
ENDBRANCH   3   2
ENDBRANCH   8   7
ENDBRANCH   9   8
TORSDOF 5
ENDMDL
MODEL 4
REMARK VINA RESULT:    -7.502      2.597      6.630
REMARK INTER + INTRA:          -9.757
REMARK INTER:                  -9.383
REMARK INTRA:                  -0.375
REMARK UNBOUND:                -0.281
REMARK  Name = 
REMARK  5 active torsions:
REMARK  status: ('A' for Active; 'I' for Inactive)
REMARK    1  A    between atoms: N_1  and  C_2
REMARK    2  A    between atoms: C_2  and  C_3
REMARK    3  A    between atoms: C_7  and  C_8
REMARK    4  A    between atoms: C_8  and  N_9
REMARK    5  A    between atoms: C_13  and  C_14
REMARK                            x       y       z     vdW  Elec       q    Type
REMARK                         _______ _______ _______ _____ _____    ______ ____
ROOT
ATOM      9  N   UNL     1      44.166   4.054  10.609  0.00  0.00    +0.000 N 
ATOM     10  C   UNL     1      45.077   4.789  11.385  0.00  0.00    +0.000 A 
ATOM     11  C   UNL     1      45.106   4.584  12.762  0.00  0.00    +0.000 A 
ATOM     12  C   UNL     1      46.005   5.308  13.551  0.00  0.00    +0.000 A 
ATOM     13  C   UNL     1      46.864   6.229  12.952  0.00  0.00    +0.000 A 
ATOM     17  C   UNL     1      46.753   6.388  11.581  0.00  0.00    +0.000 A 
ATOM     18  N   UNL     1      45.885   5.698  10.801  0.00  0.00    +0.000 NA
ATOM     22  H   UNL     1      44.302   3.062  10.781  0.00  0.00    +0.000 HD
ENDROOT
BRANCH  13  14
ATOM     14  C   UNL     1      47.838   6.976  13.785  0.00  0.00    +0.000 C 
ATOM     15  N   UNL     1      47.424   8.094  14.453  0.00  0.00    +0.000 N 
ATOM     16  O   UNL     1      49.006   6.610  13.873  0.00  0.00    +0.000 OA
ATOM     23  H   UNL     1      46.496   8.487  14.445  0.00  0.00    +0.000 HD
ATOM     24  H   UNL     1      48.127   8.579  14.998  0.00  0.00    +0.000 HD
ENDBRANCH  13  14
BRANCH   9   8
ATOM      8  C   UNL     1      44.256   4.362   9.186  0.00  0.00    +0.000 C 
BRANCH   8   7
ATOM      3  C   UNL     1      46.505   2.641   6.610  0.00  0.00    +0.000 A 
ATOM      4  C   UNL     1      46.642   1.372   7.192  0.00  0.00    +0.000 A 
ATOM      5  C   UNL     1      45.977   1.058   8.376  0.00  0.00    +0.000 A 
ATOM      6  C   UNL     1      45.178   2.014   9.003  0.00  0.00    +0.000 A 
ATOM      7  C   UNL     1      45.033   3.293   8.451  0.00  0.00    +0.000 A 
ATOM     19  C   UNL     1      45.691   3.591   7.246  0.00  0.00    +0.000 A 
BRANCH   3   2
ATOM      2  C   UNL     1      47.265   2.997   5.359  0.00  0.00    +0.000 C 
BRANCH   2   1
ATOM      1  N   UNL     1      48.485   2.208   5.219  0.00  0.00    +0.000 NA
ATOM     20  H   UNL     1      48.427   1.662   4.363  0.00  0.00    +0.000 HD
ATOM     21  H   UNL     1      48.525   1.539   5.987  0.00  0.00    +0.000 HD
ENDBRANCH   2   1
ENDBRANCH   3   2
ENDBRANCH   8   7
ENDBRANCH   9   8
TORSDOF 5
ENDMDL
MODEL 5
REMARK VINA RESULT:    -7.245      3.083      6.484
REMARK INTER + INTRA:          -9.433
REMARK INTER:                  -9.400
REMARK INTRA:                  -0.033
REMARK UNBOUND:                -0.281
REMARK  Name = 
REMARK  5 active torsions:
REMARK  status: ('A' for Active; 'I' for Inactive)
REMARK    1  A    between atoms: N_1  and  C_2
REMARK    2  A    between atoms: C_2  and  C_3
REMARK    3  A    between atoms: C_7  and  C_8
REMARK    4  A    between atoms: C_8  and  N_9
REMARK    5  A    between atoms: C_13  and  C_14
REMARK                            x       y       z     vdW  Elec       q    Type
REMARK                         _______ _______ _______ _____ _____    ______ ____
ROOT
ATOM      9  N   UNL     1      44.911   2.984  11.533  0.00  0.00    +0.000 N 
ATOM     10  C   UNL     1      45.122   4.320  11.910  0.00  0.00    +0.000 A 
ATOM     11  C   UNL     1      45.823   4.585  13.084  0.00  0.00    +0.000 A 
ATOM     12  C   UNL     1      46.040   5.909  13.475  0.00  0.00    +0.000 A 
ATOM     13  C   UNL     1      45.552   6.953  12.688  0.00  0.00    +0.000 A 
ATOM     17  C   UNL     1      44.846   6.600  11.551  0.00  0.00    +0.000 A 
ATOM     18  N   UNL     1      44.621   5.322  11.158  0.00  0.00    +0.000 NA
ATOM     22  H   UNL     1      45.804   2.502  11.486  0.00  0.00    +0.000 HD
ENDROOT
BRANCH  13  14
ATOM     14  C   UNL     1      45.808   8.357  13.089  0.00  0.00    +0.000 C 
ATOM     15  N   UNL     1      46.733   8.615  14.062  0.00  0.00    +0.000 N 
ATOM     16  O   UNL     1      45.196   9.284  12.569  0.00  0.00    +0.000 OA
ATOM     23  H   UNL     1      47.284   7.933  14.559  0.00  0.00    +0.000 HD
ATOM     24  H   UNL     1      46.865   9.587  14.313  0.00  0.00    +0.000 HD
ENDBRANCH  13  14
BRANCH   9   8
ATOM      8  C   UNL     1      44.174   2.857  10.280  0.00  0.00    +0.000 C 
BRANCH   8   7
ATOM      3  C   UNL     1      46.632   1.704   7.581  0.00  0.00    +0.000 A 
ATOM      4  C   UNL     1      46.705   2.859   6.786  0.00  0.00    +0.000 A 
ATOM      5  C   UNL     1      46.010   4.012   7.144  0.00  0.00    +0.000 A 
ATOM      6  C   UNL     1      45.217   4.023   8.291  0.00  0.00    +0.000 A 
ATOM      7  C   UNL     1      45.116   2.881   9.097  0.00  0.00    +0.000 A 
ATOM     19  C   UNL     1      45.839   1.731   8.738  0.00  0.00    +0.000 A 
BRANCH   3   2
ATOM      2  C   UNL     1      47.342   0.442   7.166  0.00  0.00    +0.000 C 
BRANCH   2   1
ATOM      1  N   UNL     1      46.684  -0.751   7.689  0.00  0.00    +0.000 NA
ATOM     20  H   UNL     1      45.677  -0.627   7.621  0.00  0.00    +0.000 HD
ATOM     21  H   UNL     1      46.899  -0.827   8.682  0.00  0.00    +0.000 HD
ENDBRANCH   2   1
ENDBRANCH   3   2
ENDBRANCH   8   7
ENDBRANCH   9   8
TORSDOF 5
ENDMDL
MODEL 6
REMARK VINA RESULT:    -6.832      1.896      2.599
REMARK INTER + INTRA:          -8.911
REMARK INTER:                  -8.619
REMARK INTRA:                  -0.292
REMARK UNBOUND:                -0.281
REMARK  Name = 
REMARK  5 active torsions:
REMARK  status: ('A' for Active; 'I' for Inactive)
REMARK    1  A    between atoms: N_1  and  C_2
REMARK    2  A    between atoms: C_2  and  C_3
REMARK    3  A    between atoms: C_7  and  C_8
REMARK    4  A    between atoms: C_8  and  N_9
REMARK    5  A    between atoms: C_13  and  C_14
REMARK                            x       y       z     vdW  Elec       q    Type
REMARK                         _______ _______ _______ _____ _____    ______ ____
ROOT
ATOM      9  N   UNL     1      44.853   5.511   9.819  0.00  0.00    +0.000 N 
ATOM     10  C   UNL     1      45.383   4.380   9.176  0.00  0.00    +0.000 A 
ATOM     11  C   UNL     1      45.931   4.525   7.904  0.00  0.00    +0.000 A 
ATOM     12  C   UNL     1      46.462   3.409   7.249  0.00  0.00    +0.000 A 
ATOM     13  C   UNL     1      46.435   2.162   7.874  0.00  0.00    +0.000 A 
ATOM     17  C   UNL     1      45.850   2.103   9.127  0.00  0.00    +0.000 A 
ATOM     18  N   UNL     1      45.327   3.173   9.777  0.00  0.00    +0.000 NA
ATOM     22  H   UNL     1      45.562   6.238   9.858  0.00  0.00    +0.000 HD
ENDROOT
BRANCH  13  14
ATOM     14  C   UNL     1      47.024   0.985   7.191  0.00  0.00    +0.000 C 
ATOM     15  N   UNL     1      46.707  -0.269   7.631  0.00  0.00    +0.000 N 
ATOM     16  O   UNL     1      47.795   1.123   6.247  0.00  0.00    +0.000 OA
ATOM     23  H   UNL     1      46.095  -0.497   8.399  0.00  0.00    +0.000 HD
ATOM     24  H   UNL     1      47.144  -1.042   7.144  0.00  0.00    +0.000 HD
ENDBRANCH  13  14
BRANCH   9   8
ATOM      8  C   UNL     1      44.325   5.214  11.146  0.00  0.00    +0.000 C 
BRANCH   8   7
ATOM      3  C   UNL     1      47.014   6.798  13.362  0.00  0.00    +0.000 A 
ATOM      4  C   UNL     1      47.234   5.764  14.284  0.00  0.00    +0.000 A 
ATOM      5  C   UNL     1      46.560   4.550  14.163  0.00  0.00    +0.000 A 
ATOM      6  C   UNL     1      45.643   4.360  13.129  0.00  0.00    +0.000 A 
ATOM      7  C   UNL     1      45.396   5.380  12.201  0.00  0.00    +0.000 A 
ATOM     19  C   UNL     1      46.097   6.591  12.321  0.00  0.00    +0.000 A 
BRANCH   3   2
ATOM      2  C   UNL     1      47.705   8.128  13.523  0.00  0.00    +0.000 C 
BRANCH   2   1
ATOM      1  N   UNL     1      47.273   8.824  14.731  0.00  0.00    +0.000 NA
ATOM     20  H   UNL     1      46.523   9.467  14.490  0.00  0.00    +0.000 HD
ATOM     21  H   UNL     1      48.046   9.395  15.068  0.00  0.00    +0.000 HD
ENDBRANCH   2   1
ENDBRANCH   3   2
ENDBRANCH   8   7
ENDBRANCH   9   8
TORSDOF 5
ENDMDL
MODEL 7
REMARK VINA RESULT:    -6.471      3.677      6.063
REMARK INTER + INTRA:          -8.455
REMARK INTER:                  -8.140
REMARK INTRA:                  -0.315
REMARK UNBOUND:                -0.281
REMARK  Name = 
REMARK  5 active torsions:
REMARK  status: ('A' for Active; 'I' for Inactive)
REMARK    1  A    between atoms: N_1  and  C_2
REMARK    2  A    between atoms: C_2  and  C_3
REMARK    3  A    between atoms: C_7  and  C_8
REMARK    4  A    between atoms: C_8  and  N_9
REMARK    5  A    between atoms: C_13  and  C_14
REMARK                            x       y       z     vdW  Elec       q    Type
REMARK                         _______ _______ _______ _____ _____    ______ ____
ROOT
ATOM      9  N   UNL     1      47.152   5.193  15.101  0.00  0.00    +0.000 N 
ATOM     10  C   UNL     1      46.511   4.895  13.888  0.00  0.00    +0.000 A 
ATOM     11  C   UNL     1      46.411   5.888  12.918  0.00  0.00    +0.000 A 
ATOM     12  C   UNL     1      45.774   5.609  11.705  0.00  0.00    +0.000 A 
ATOM     13  C   UNL     1      45.243   4.339  11.479  0.00  0.00    +0.000 A 
ATOM     17  C   UNL     1      45.364   3.419  12.505  0.00  0.00    +0.000 A 
ATOM     18  N   UNL     1      45.975   3.672  13.689  0.00  0.00    +0.000 NA
ATOM     22  H   UNL     1      48.086   5.546  14.910  0.00  0.00    +0.000 HD
ENDROOT
BRANCH  13  14
ATOM     14  C   UNL     1      44.593   4.035  10.181  0.00  0.00    +0.000 C 
ATOM     15  N   UNL     1      44.863   4.825   9.099  0.00  0.00    +0.000 N 
ATOM     16  O   UNL     1      43.812   3.096  10.070  0.00  0.00    +0.000 OA
ATOM     23  H   UNL     1      45.478   5.624   9.079  0.00  0.00    +0.000 HD
ATOM     24  H   UNL     1      44.385   4.589   8.237  0.00  0.00    +0.000 HD
ENDBRANCH  13  14
BRANCH   9   8
ATOM      8  C   UNL     1      47.193   4.057  16.016  0.00  0.00    +0.000 C 
BRANCH   8   7
ATOM      3  C   UNL     1      50.488   2.642  17.356  0.00  0.00    +0.000 A 
ATOM      4  C   UNL     1      51.120   3.819  17.785  0.00  0.00    +0.000 A 
ATOM      5  C   UNL     1      50.472   5.049  17.690  0.00  0.00    +0.000 A 
ATOM      6  C   UNL     1      49.189   5.122  17.148  0.00  0.00    +0.000 A 
ATOM      7  C   UNL     1      48.539   3.965  16.701  0.00  0.00    +0.000 A 
ATOM     19  C   UNL     1      49.193   2.728  16.822  0.00  0.00    +0.000 A 
BRANCH   3   2
ATOM      2  C   UNL     1      51.209   1.320  17.411  0.00  0.00    +0.000 C 
BRANCH   2   1
ATOM      1  N   UNL     1      52.408   1.387  18.240  0.00  0.00    +0.000 NA
ATOM     20  H   UNL     1      52.242   0.870  19.100  0.00  0.00    +0.000 HD
ATOM     21  H   UNL     1      52.557   2.358  18.511  0.00  0.00    +0.000 HD
ENDBRANCH   2   1
ENDBRANCH   3   2
ENDBRANCH   8   7
ENDBRANCH   9   8
TORSDOF 5
ENDMDL
MODEL 8
REMARK VINA RESULT:    -6.423      3.106      6.987
REMARK INTER + INTRA:          -8.394
REMARK INTER:                  -7.994
REMARK INTRA:                  -0.399
REMARK UNBOUND:                -0.281
REMARK  Name = 
REMARK  5 active torsions:
REMARK  status: ('A' for Active; 'I' for Inactive)
REMARK    1  A    between atoms: N_1  and  C_2
REMARK    2  A    between atoms: C_2  and  C_3
REMARK    3  A    between atoms: C_7  and  C_8
REMARK    4  A    between atoms: C_8  and  N_9
REMARK    5  A    between atoms: C_13  and  C_14
REMARK                            x       y       z     vdW  Elec       q    Type
REMARK                         _______ _______ _______ _____ _____    ______ ____
ROOT
ATOM      9  N   UNL     1      45.987   6.363  10.968  0.00  0.00    +0.000 N 
ATOM     10  C   UNL     1      46.701   6.325  12.176  0.00  0.00    +0.000 A 
ATOM     11  C   UNL     1      47.847   7.106  12.305  0.00  0.00    +0.000 A 
ATOM     12  C   UNL     1      48.571   7.078  13.501  0.00  0.00    +0.000 A 
ATOM     13  C   UNL     1      48.142   6.267  14.552  0.00  0.00    +0.000 A 
ATOM     17  C   UNL     1      47.008   5.505  14.330  0.00  0.00    +0.000 A 
ATOM     18  N   UNL     1      46.294   5.516  13.177  0.00  0.00    +0.000 NA
ATOM     22  H   UNL     1      45.742   7.326  10.753  0.00  0.00    +0.000 HD
ENDROOT
BRANCH  13  14
ATOM     14  C   UNL     1      48.895   6.261  15.829  0.00  0.00    +0.000 C 
ATOM     15  N   UNL     1      48.206   6.225  17.009  0.00  0.00    +0.000 N 
ATOM     16  O   UNL     1      50.121   6.298  15.840  0.00  0.00    +0.000 OA
ATOM     23  H   UNL     1      47.204   6.202  17.117  0.00  0.00    +0.000 HD
ATOM     24  H   UNL     1      48.761   6.236  17.856  0.00  0.00    +0.000 HD
ENDBRANCH  13  14
BRANCH   9   8
ATOM      8  C   UNL     1      44.806   5.506  10.979  0.00  0.00    +0.000 C 
BRANCH   8   7
ATOM      3  C   UNL     1      45.887   3.529   7.885  0.00  0.00    +0.000 A 
ATOM      4  C   UNL     1      45.371   2.261   8.195  0.00  0.00    +0.000 A 
ATOM      5  C   UNL     1      44.640   2.057   9.363  0.00  0.00    +0.000 A 
ATOM      6  C   UNL     1      44.429   3.114  10.248  0.00  0.00    +0.000 A 
ATOM      7  C   UNL     1      44.942   4.388   9.970  0.00  0.00    +0.000 A 
ATOM     19  C   UNL     1      45.659   4.586   8.779  0.00  0.00    +0.000 A 
BRANCH   3   2
ATOM      2  C   UNL     1      46.721   3.736   6.648  0.00  0.00    +0.000 C 
BRANCH   2   1
ATOM      1  N   UNL     1      47.990   3.020   6.720  0.00  0.00    +0.000 NA
ATOM     20  H   UNL     1      48.175   2.774   7.689  0.00  0.00    +0.000 HD
ATOM     21  H   UNL     1      48.734   3.655   6.437  0.00  0.00    +0.000 HD
ENDBRANCH   2   1
ENDBRANCH   3   2
ENDBRANCH   8   7
ENDBRANCH   9   8
TORSDOF 5
ENDMDL
MODEL 9
REMARK VINA RESULT:    -6.220      4.496      8.294
REMARK INTER + INTRA:          -8.138
REMARK INTER:                  -7.861
REMARK INTRA:                  -0.277
REMARK UNBOUND:                -0.281
REMARK  Name = 
REMARK  5 active torsions:
REMARK  status: ('A' for Active; 'I' for Inactive)
REMARK    1  A    between atoms: N_1  and  C_2
REMARK    2  A    between atoms: C_2  and  C_3
REMARK    3  A    between atoms: C_7  and  C_8
REMARK    4  A    between atoms: C_8  and  N_9
REMARK    5  A    between atoms: C_13  and  C_14
REMARK                            x       y       z     vdW  Elec       q    Type
REMARK                         _______ _______ _______ _____ _____    ______ ____
ROOT
ATOM      9  N   UNL     1      46.751   4.166  14.937  0.00  0.00    +0.000 N 
ATOM     10  C   UNL     1      47.535   4.300  16.095  0.00  0.00    +0.000 A 
ATOM     11  C   UNL     1      47.305   3.440  17.166  0.00  0.00    +0.000 A 
ATOM     12  C   UNL     1      48.075   3.561  18.327  0.00  0.00    +0.000 A 
ATOM     13  C   UNL     1      49.064   4.542  18.402  0.00  0.00    +0.000 A 
ATOM     17  C   UNL     1      49.209   5.369  17.302  0.00  0.00    +0.000 A 
ATOM     18  N   UNL     1      48.469   5.270  16.169  0.00  0.00    +0.000 NA
ATOM     22  H   UNL     1      46.814   3.210  14.597  0.00  0.00    +0.000 HD
ENDROOT
BRANCH  13  14
ATOM     14  C   UNL     1      49.899   4.650  19.623  0.00  0.00    +0.000 C 
ATOM     15  N   UNL     1      49.363   4.302  20.831  0.00  0.00    +0.000 N 
ATOM     16  O   UNL     1      51.055   5.056  19.563  0.00  0.00    +0.000 OA
ATOM     23  H   UNL     1      48.427   3.967  20.996  0.00  0.00    +0.000 HD
ATOM     24  H   UNL     1      49.965   4.406  21.638  0.00  0.00    +0.000 HD
ENDBRANCH  13  14
BRANCH   9   8
ATOM      8  C   UNL     1      47.109   5.122  13.895  0.00  0.00    +0.000 C 
BRANCH   8   7
ATOM      3  C   UNL     1      44.403   4.168  11.361  0.00  0.00    +0.000 A 
ATOM      4  C   UNL     1      43.826   5.423  11.114  0.00  0.00    +0.000 A 
ATOM      5  C   UNL     1      44.334   6.571  11.718  0.00  0.00    +0.000 A 
ATOM      6  C   UNL     1      45.417   6.479  12.592  0.00  0.00    +0.000 A 
ATOM      7  C   UNL     1      46.006   5.237  12.867  0.00  0.00    +0.000 A 
ATOM     19  C   UNL     1      45.498   4.090  12.235  0.00  0.00    +0.000 A 
BRANCH   3   2
ATOM      2  C   UNL     1      43.820   2.921  10.749  0.00  0.00    +0.000 C 
BRANCH   2   1
ATOM      1  N   UNL     1      43.042   2.152  11.714  0.00  0.00    +0.000 NA
ATOM     20  H   UNL     1      43.671   1.777  12.420  0.00  0.00    +0.000 HD
ATOM     21  H   UNL     1      42.636   1.351  11.234  0.00  0.00    +0.000 HD
ENDBRANCH   2   1
ENDBRANCH   3   2
ENDBRANCH   8   7
ENDBRANCH   9   8
TORSDOF 5
ENDMDL
