MODEL 1
REMARK VINA RESULT:    -6.895      0.000      0.000
REMARK INTER + INTRA:          -7.362
REMARK INTER:                  -7.298
REMARK INTRA:                  -0.063
REMARK UNBOUND:                -0.063
REMARK  Name = 
REMARK  1 active torsions:
REMARK  status: ('A' for Active; 'I' for Inactive)
REMARK    1  A    between atoms: C_2  and  C_4
REMARK                            x       y       z     vdW  Elec       q    Type
REMARK                         _______ _______ _______ _____ _____    ______ ____
ROOT
ATOM      4  C   UNL     1      46.220   2.081   8.042  0.00  0.00    +0.000 A 
ATOM      5  C   UNL     1      46.318   3.394   7.571  0.00  0.00    +0.000 A 
ATOM      6  C   UNL     1      45.583   4.422   8.170  0.00  0.00    +0.000 A 
ATOM      7  C   UNL     1      44.754   4.138   9.274  0.00  0.00    +0.000 A 
ATOM      8  N   UNL     1      43.997   5.058   9.979  0.00  0.00    +0.000 NA
ATOM      9  C   UNL     1      43.390   4.471  10.977  0.00  0.00    +0.000 A 
ATOM     10  N   UNL     1      42.631   5.137  11.860  0.00  0.00    +0.000 N 
ATOM     11  S   UNL     1      43.618   2.777  11.094  0.00  0.00    +0.000 S 
ATOM     12  C   UNL     1      44.676   2.824   9.736  0.00  0.00    +0.000 A 
ATOM     13  C   UNL     1      45.394   1.773   9.134  0.00  0.00    +0.000 A 
ATOM     16  H   UNL     1      42.358   6.080  11.612  0.00  0.00    +0.000 HD
ATOM     17  H   UNL     1      41.975   4.629  12.440  0.00  0.00    +0.000 HD
ENDROOT
BRANCH   4   2
ATOM      1  N   UNL     1      46.740  -0.268   7.656  0.00  0.00    +0.000 N 
ATOM      2  C   UNL     1      47.041   1.035   7.376  0.00  0.00    +0.000 C 
ATOM      3  O   UNL     1      47.930   1.325   6.584  0.00  0.00    +0.000 OA
ATOM     14  H   UNL     1      47.237  -0.963   7.112  0.00  0.00    +0.000 HD
ATOM     15  H   UNL     1      45.872  -0.545   8.088  0.00  0.00    +0.000 HD
ENDBRANCH   4   2
TORSDOF 1
ENDMDL
MODEL 2
REMARK VINA RESULT:    -6.715      2.939      5.003
REMARK INTER + INTRA:          -7.171
REMARK INTER:                  -7.107
REMARK INTRA:                  -0.064
REMARK UNBOUND:                -0.063
REMARK  Name = 
REMARK  1 active torsions:
REMARK  status: ('A' for Active; 'I' for Inactive)
REMARK    1  A    between atoms: C_2  and  C_4
REMARK                            x       y       z     vdW  Elec       q    Type
REMARK                         _______ _______ _______ _____ _____    ______ ____
ROOT
ATOM      4  C   UNL     1      44.328   3.313  10.151  0.00  0.00    +0.000 A 
ATOM      5  C   UNL     1      44.699   4.602   9.759  0.00  0.00    +0.000 A 
ATOM      6  C   UNL     1      45.658   4.794   8.759  0.00  0.00    +0.000 A 
ATOM      7  C   UNL     1      46.238   3.679   8.122  0.00  0.00    +0.000 A 
ATOM      8  N   UNL     1      47.173   3.722   7.102  0.00  0.00    +0.000 NA
ATOM      9  C   UNL     1      47.459   2.510   6.703  0.00  0.00    +0.000 A 
ATOM     10  N   UNL     1      48.297   2.257   5.686  0.00  0.00    +0.000 N 
ATOM     11  S   UNL     1      46.694   1.243   7.566  0.00  0.00    +0.000 S 
ATOM     12  C   UNL     1      45.848   2.400   8.520  0.00  0.00    +0.000 A 
ATOM     13  C   UNL     1      44.899   2.187   9.538  0.00  0.00    +0.000 A 
ATOM     16  H   UNL     1      48.878   3.023   5.369  0.00  0.00    +0.000 HD
ATOM     17  H   UNL     1      48.696   1.332   5.584  0.00  0.00    +0.000 HD
ENDROOT
BRANCH   4   2
ATOM      1  N   UNL     1      42.685   4.319  11.643  0.00  0.00    +0.000 N 
ATOM      2  C   UNL     1      43.288   3.173  11.205  0.00  0.00    +0.000 C 
ATOM      3  O   UNL     1      42.961   2.077  11.643  0.00  0.00    +0.000 OA
ATOM     14  H   UNL     1      41.907   4.193  12.279  0.00  0.00    +0.000 HD
ATOM     15  H   UNL     1      42.739   5.189  11.137  0.00  0.00    +0.000 HD
ENDBRANCH   4   2
TORSDOF 1
ENDMDL
MODEL 3
REMARK VINA RESULT:    -6.430      1.683      2.164
REMARK INTER + INTRA:          -6.869
REMARK INTER:                  -6.821
REMARK INTRA:                  -0.049
REMARK UNBOUND:                -0.063
REMARK  Name = 
REMARK  1 active torsions:
REMARK  status: ('A' for Active; 'I' for Inactive)
REMARK    1  A    between atoms: C_2  and  C_4
REMARK                            x       y       z     vdW  Elec       q    Type
REMARK                         _______ _______ _______ _____ _____    ______ ____
ROOT
ATOM      4  C   UNL     1      46.417   2.770   7.455  0.00  0.00    +0.000 A 
ATOM      5  C   UNL     1      45.977   1.549   7.972  0.00  0.00    +0.000 A 
ATOM      6  C   UNL     1      45.109   1.511   9.069  0.00  0.00    +0.000 A 
ATOM      7  C   UNL     1      44.652   2.715   9.641  0.00  0.00    +0.000 A 
ATOM      8  N   UNL     1      43.772   2.826  10.704  0.00  0.00    +0.000 NA
ATOM      9  C   UNL     1      43.516   4.085  10.946  0.00  0.00    +0.000 A 
ATOM     10  N   UNL     1      42.650   4.484  11.891  0.00  0.00    +0.000 N 
ATOM     11  S   UNL     1      44.364   5.217   9.979  0.00  0.00    +0.000 S 
ATOM     12  C   UNL     1      45.094   3.925   9.104  0.00  0.00    +0.000 A 
ATOM     13  C   UNL     1      45.983   3.982   8.014  0.00  0.00    +0.000 A 
ATOM     16  H   UNL     1      42.356   3.789  12.566  0.00  0.00    +0.000 HD
ATOM     17  H   UNL     1      42.680   5.438  12.228  0.00  0.00    +0.000 HD
ENDROOT
BRANCH   4   2
ATOM      1  N   UNL     1      48.650   2.516   6.514  0.00  0.00    +0.000 N 
ATOM      2  C   UNL     1      47.324   2.745   6.276  0.00  0.00    +0.000 C 
ATOM      3  O   UNL     1      46.899   2.891   5.137  0.00  0.00    +0.000 OA
ATOM     14  H   UNL     1      49.231   2.395   5.693  0.00  0.00    +0.000 HD
ATOM     15  H   UNL     1      48.990   2.142   7.387  0.00  0.00    +0.000 HD
ENDBRANCH   4   2
TORSDOF 1
ENDMDL
MODEL 4
REMARK VINA RESULT:    -6.026      3.065      5.557
REMARK INTER + INTRA:          -6.441
REMARK INTER:                  -6.377
REMARK INTRA:                  -0.064
REMARK UNBOUND:                -0.063
REMARK  Name = 
REMARK  1 active torsions:
REMARK  status: ('A' for Active; 'I' for Inactive)
REMARK    1  A    between atoms: C_2  and  C_4
REMARK                            x       y       z     vdW  Elec       q    Type
REMARK                         _______ _______ _______ _____ _____    ______ ____
ROOT
ATOM      4  C   UNL     1      43.700   4.613  10.623  0.00  0.00    +0.000 A 
ATOM      5  C   UNL     1      43.518   3.313  11.102  0.00  0.00    +0.000 A 
ATOM      6  C   UNL     1      44.155   2.231  10.485  0.00  0.00    +0.000 A 
ATOM      7  C   UNL     1      45.009   2.456   9.386  0.00  0.00    +0.000 A 
ATOM      8  N   UNL     1      45.723   1.488   8.702  0.00  0.00    +0.000 NA
ATOM      9  C   UNL     1      46.458   2.042   7.774  0.00  0.00    +0.000 A 
ATOM     10  N   UNL     1      47.295   1.343   6.992  0.00  0.00    +0.000 N 
ATOM     11  S   UNL     1      46.287   3.738   7.605  0.00  0.00    +0.000 S 
ATOM     12  C   UNL     1      45.186   3.762   8.928  0.00  0.00    +0.000 A 
ATOM     13  C   UNL     1      44.538   4.860   9.525  0.00  0.00    +0.000 A 
ATOM     16  H   UNL     1      47.186   0.336   6.990  0.00  0.00    +0.000 HD
ATOM     17  H   UNL     1      47.633   1.750   6.129  0.00  0.00    +0.000 HD
ENDROOT
BRANCH   4   2
ATOM      1  N   UNL     1      43.340   6.999  10.967  0.00  0.00    +0.000 N 
ATOM      2  C   UNL     1      43.011   5.724  11.333  0.00  0.00    +0.000 C 
ATOM      3  O   UNL     1      42.161   5.509  12.188  0.00  0.00    +0.000 OA
ATOM     14  H   UNL     1      42.784   7.736  11.383  0.00  0.00    +0.000 HD
ATOM     15  H   UNL     1      43.829   7.210  10.111  0.00  0.00    +0.000 HD
ENDBRANCH   4   2
TORSDOF 1
ENDMDL
MODEL 5
REMARK VINA RESULT:    -5.430      5.110      6.409
REMARK INTER + INTRA:          -5.811
REMARK INTER:                  -5.763
REMARK INTRA:                  -0.049
REMARK UNBOUND:                -0.063
REMARK  Name = 
REMARK  1 active torsions:
REMARK  status: ('A' for Active; 'I' for Inactive)
REMARK    1  A    between atoms: C_2  and  C_4
REMARK                            x       y       z     vdW  Elec       q    Type
REMARK                         _______ _______ _______ _____ _____    ______ ____
ROOT
ATOM      4  C   UNL     1      44.661   5.636  11.868  0.00  0.00    +0.000 A 
ATOM      5  C   UNL     1      44.880   4.846  13.000  0.00  0.00    +0.000 A 
ATOM      6  C   UNL     1      46.092   4.917  13.694  0.00  0.00    +0.000 A 
ATOM      7  C   UNL     1      47.093   5.812  13.265  0.00  0.00    +0.000 A 
ATOM      8  N   UNL     1      48.322   6.006  13.871  0.00  0.00    +0.000 NA
ATOM      9  C   UNL     1      48.986   6.946  13.251  0.00  0.00    +0.000 A 
ATOM     10  N   UNL     1      50.189   7.379  13.658  0.00  0.00    +0.000 N 
ATOM     11  S   UNL     1      48.225   7.602  11.863  0.00  0.00    +0.000 S 
ATOM     12  C   UNL     1      46.852   6.599  12.139  0.00  0.00    +0.000 A 
ATOM     13  C   UNL     1      45.646   6.528  11.416  0.00  0.00    +0.000 A 
ATOM     16  H   UNL     1      50.675   6.808  14.339  0.00  0.00    +0.000 HD
ATOM     17  H   UNL     1      50.778   7.897  13.019  0.00  0.00    +0.000 HD
ENDROOT
BRANCH   4   2
ATOM      1  N   UNL     1      42.321   6.291  11.677  0.00  0.00    +0.000 N 
ATOM      2  C   UNL     1      43.344   5.530  11.185  0.00  0.00    +0.000 C 
ATOM      3  O   UNL     1      43.187   4.816  10.202  0.00  0.00    +0.000 OA
ATOM     14  H   UNL     1      41.467   6.288  11.134  0.00  0.00    +0.000 HD
ATOM     15  H   UNL     1      42.473   7.066  12.304  0.00  0.00    +0.000 HD
ENDBRANCH   4   2
TORSDOF 1
ENDMDL
MODEL 6
REMARK VINA RESULT:    -5.405      4.766      6.443
REMARK INTER + INTRA:          -5.784
REMARK INTER:                  -5.729
REMARK INTRA:                  -0.055
REMARK UNBOUND:                -0.063
REMARK  Name = 
REMARK  1 active torsions:
REMARK  status: ('A' for Active; 'I' for Inactive)
REMARK    1  A    between atoms: C_2  and  C_4
REMARK                            x       y       z     vdW  Elec       q    Type
REMARK                         _______ _______ _______ _____ _____    ______ ____
ROOT
ATOM      4  C   UNL     1      45.538   7.695  12.465  0.00  0.00    +0.000 A 
ATOM      5  C   UNL     1      46.519   6.947  13.122  0.00  0.00    +0.000 A 
ATOM      6  C   UNL     1      46.384   5.562  13.262  0.00  0.00    +0.000 A 
ATOM      7  C   UNL     1      45.261   4.909  12.714  0.00  0.00    +0.000 A 
ATOM      8  N   UNL     1      45.015   3.548  12.752  0.00  0.00    +0.000 NA
ATOM      9  C   UNL     1      43.914   3.271  12.103  0.00  0.00    +0.000 A 
ATOM     10  N   UNL     1      43.463   2.019  11.933  0.00  0.00    +0.000 N 
ATOM     11  S   UNL     1      43.063   4.619  11.474  0.00  0.00    +0.000 S 
ATOM     12  C   UNL     1      44.297   5.671  12.053  0.00  0.00    +0.000 A 
ATOM     13  C   UNL     1      44.407   7.069  11.920  0.00  0.00    +0.000 A 
ATOM     16  H   UNL     1      43.882   1.299  12.508  0.00  0.00    +0.000 HD
ATOM     17  H   UNL     1      42.498   1.865  11.671  0.00  0.00    +0.000 HD
ENDROOT
BRANCH   4   2
ATOM      1  N   UNL     1      44.670   9.970  12.555  0.00  0.00    +0.000 N 
ATOM      2  C   UNL     1      45.749   9.161  12.331  0.00  0.00    +0.000 C 
ATOM      3  O   UNL     1      46.848   9.629  12.063  0.00  0.00    +0.000 OA
ATOM     14  H   UNL     1      44.859  10.965  12.566  0.00  0.00    +0.000 HD
ATOM     15  H   UNL     1      43.836   9.647  13.020  0.00  0.00    +0.000 HD
ENDBRANCH   4   2
TORSDOF 1
ENDMDL
MODEL 7
REMARK VINA RESULT:    -5.384      4.630      5.929
REMARK INTER + INTRA:          -5.762
REMARK INTER:                  -5.697
REMARK INTRA:                  -0.066
REMARK UNBOUND:                -0.063
REMARK  Name = 
REMARK  1 active torsions:
REMARK  status: ('A' for Active; 'I' for Inactive)
REMARK    1  A    between atoms: C_2  and  C_4
REMARK                            x       y       z     vdW  Elec       q    Type
REMARK                         _______ _______ _______ _____ _____    ______ ____
ROOT
ATOM      4  C   UNL     1      46.807   4.831  14.200  0.00  0.00    +0.000 A 
ATOM      5  C   UNL     1      47.151   6.043  13.594  0.00  0.00    +0.000 A 
ATOM      6  C   UNL     1      46.718   6.338  12.297  0.00  0.00    +0.000 A 
ATOM      7  C   UNL     1      45.906   5.418  11.604  0.00  0.00    +0.000 A 
ATOM      8  N   UNL     1      45.384   5.592  10.334  0.00  0.00    +0.000 NA
ATOM      9  C   UNL     1      44.632   4.572  10.013  0.00  0.00    +0.000 A 
ATOM     10  N   UNL     1      43.955   4.501   8.857  0.00  0.00    +0.000 N 
ATOM     11  S   UNL     1      44.560   3.308  11.168  0.00  0.00    +0.000 S 
ATOM     12  C   UNL     1      45.566   4.218  12.229  0.00  0.00    +0.000 A 
ATOM     13  C   UNL     1      46.008   3.895  13.526  0.00  0.00    +0.000 A 
ATOM     16  H   UNL     1      44.210   5.163   8.134  0.00  0.00    +0.000 HD
ATOM     17  H   UNL     1      43.612   3.606   8.530  0.00  0.00    +0.000 HD
ENDROOT
BRANCH   4   2
ATOM      1  N   UNL     1      48.069   5.544  16.159  0.00  0.00    +0.000 N 
ATOM      2  C   UNL     1      47.282   4.583  15.588  0.00  0.00    +0.000 C 
ATOM      3  O   UNL     1      46.957   3.578  16.207  0.00  0.00    +0.000 OA
ATOM     14  H   UNL     1      48.291   5.408  17.138  0.00  0.00    +0.000 HD
ATOM     15  H   UNL     1      48.142   6.478  15.789  0.00  0.00    +0.000 HD
ENDBRANCH   4   2
TORSDOF 1
ENDMDL
MODEL 8
REMARK VINA RESULT:    -5.334      4.224      4.998
REMARK INTER + INTRA:          -5.709
REMARK INTER:                  -5.645
REMARK INTRA:                  -0.064
REMARK UNBOUND:                -0.063
REMARK  Name = 
REMARK  1 active torsions:
REMARK  status: ('A' for Active; 'I' for Inactive)
REMARK    1  A    between atoms: C_2  and  C_4
REMARK                            x       y       z     vdW  Elec       q    Type
REMARK                         _______ _______ _______ _____ _____    ______ ____
ROOT
ATOM      4  C   UNL     1      45.068   4.560  10.998  0.00  0.00    +0.000 A 
ATOM      5  C   UNL     1      45.573   5.803  10.609  0.00  0.00    +0.000 A 
ATOM      6  C   UNL     1      46.387   6.543  11.473  0.00  0.00    +0.000 A 
ATOM      7  C   UNL     1      46.724   6.019  12.737  0.00  0.00    +0.000 A 
ATOM      8  N   UNL     1      47.540   6.626  13.675  0.00  0.00    +0.000 NA
ATOM      9  C   UNL     1      47.688   5.846  14.714  0.00  0.00    +0.000 A 
ATOM     10  N   UNL     1      48.474   6.160  15.755  0.00  0.00    +0.000 N 
ATOM     11  S   UNL     1      46.805   4.378  14.674  0.00  0.00    +0.000 S 
ATOM     12  C   UNL     1      46.218   4.772  13.104  0.00  0.00    +0.000 A 
ATOM     13  C   UNL     1      45.381   4.022  12.255  0.00  0.00    +0.000 A 
ATOM     16  H   UNL     1      48.787   7.121  15.820  0.00  0.00    +0.000 HD
ATOM     17  H   UNL     1      48.356   5.676  16.636  0.00  0.00    +0.000 HD
ENDROOT
BRANCH   4   2
ATOM      1  N   UNL     1      44.073   4.355   8.782  0.00  0.00    +0.000 N 
ATOM      2  C   UNL     1      44.223   3.813  10.028  0.00  0.00    +0.000 C 
ATOM      3  O   UNL     1      43.708   2.740  10.318  0.00  0.00    +0.000 OA
ATOM     14  H   UNL     1      43.587   3.780   8.105  0.00  0.00    +0.000 HD
ATOM     15  H   UNL     1      44.676   5.083   8.430  0.00  0.00    +0.000 HD
ENDBRANCH   4   2
TORSDOF 1
ENDMDL
MODEL 9
REMARK VINA RESULT:    -5.242      4.135      6.105
REMARK INTER + INTRA:          -5.612
REMARK INTER:                  -5.553
REMARK INTRA:                  -0.059
REMARK UNBOUND:                -0.063
REMARK  Name = 
REMARK  1 active torsions:
REMARK  status: ('A' for Active; 'I' for Inactive)
REMARK    1  A    between atoms: C_2  and  C_4
REMARK                            x       y       z     vdW  Elec       q    Type
REMARK                         _______ _______ _______ _____ _____    ______ ____
ROOT
ATOM      4  C   UNL     1      45.443   6.908  12.266  0.00  0.00    +0.000 A 
ATOM      5  C   UNL     1      45.389   5.959  13.290  0.00  0.00    +0.000 A 
ATOM      6  C   UNL     1      45.183   4.606  12.996  0.00  0.00    +0.000 A 
ATOM      7  C   UNL     1      45.054   4.193  11.655  0.00  0.00    +0.000 A 
ATOM      8  N   UNL     1      44.878   2.891  11.221  0.00  0.00    +0.000 NA
ATOM      9  C   UNL     1      44.851   2.852   9.914  0.00  0.00    +0.000 A 
ATOM     10  N   UNL     1      44.746   1.708   9.221  0.00  0.00    +0.000 N 
ATOM     11  S   UNL     1      44.957   4.368   9.123  0.00  0.00    +0.000 S 
ATOM     12  C   UNL     1      45.121   5.154  10.646  0.00  0.00    +0.000 A 
ATOM     13  C   UNL     1      45.308   6.522  10.924  0.00  0.00    +0.000 A 
ATOM     16  H   UNL     1      44.467   0.883   9.737  0.00  0.00    +0.000 HD
ATOM     17  H   UNL     1      44.462   1.735   8.250  0.00  0.00    +0.000 HD
ENDROOT
BRANCH   4   2
ATOM      1  N   UNL     1      46.447   8.561  13.749  0.00  0.00    +0.000 N 
ATOM      2  C   UNL     1      45.683   8.328  12.640  0.00  0.00    +0.000 C 
ATOM      3  O   UNL     1      45.244   9.252  11.967  0.00  0.00    +0.000 OA
ATOM     14  H   UNL     1      46.689   9.528  13.924  0.00  0.00    +0.000 HD
ATOM     15  H   UNL     1      47.028   7.851  14.168  0.00  0.00    +0.000 HD
ENDBRANCH   4   2
TORSDOF 1
ENDMDL
