MODEL 1
REMARK VINA RESULT:    -7.685      0.000      0.000
REMARK INTER + INTRA:         -10.157
REMARK INTER:                  -9.482
REMARK INTRA:                  -0.675
REMARK UNBOUND:                -0.675
REMARK  Name = 
REMARK  4 active torsions:
REMARK  status: ('A' for Active; 'I' for Inactive)
REMARK    1  A    between atoms: C_2  and  C_4
REMARK    2  A    between atoms: N_11  and  C_12
REMARK    3  A    between atoms: C_12  and  C_13
REMARK    4  A    between atoms: N_15  and  C_16
REMARK                            x       y       z     vdW  Elec       q    Type
REMARK                         _______ _______ _______ _____ _____    ______ ____
ROOT
ATOM      4  C   UNL     1      46.499   2.874   7.600  0.00  0.00    +0.000 A 
ATOM      5  C   UNL     1      46.403   4.246   7.825  0.00  0.00    +0.000 A 
ATOM      6  N   UNL     1      45.597   4.841   8.743  0.00  0.00    +0.000 NA
ATOM      7  C   UNL     1      44.908   3.956   9.490  0.00  0.00    +0.000 A 
ATOM      8  C   UNL     1      44.955   2.566   9.402  0.00  0.00    +0.000 A 
ATOM      9  C   UNL     1      44.091   2.055  10.406  0.00  0.00    +0.000 A 
ATOM     10  C   UNL     1      43.526   3.131  11.056  0.00  0.00    +0.000 A 
ATOM     11  N   UNL     1      44.007   4.279  10.475  0.00  0.00    +0.000 N 
ATOM     22  C   UNL     1      45.780   1.999   8.418  0.00  0.00    +0.000 A 
ENDROOT
BRANCH   4   2
ATOM      1  N   UNL     1      47.392   3.158   5.360  0.00  0.00    +0.000 N 
ATOM      2  C   UNL     1      47.350   2.391   6.492  0.00  0.00    +0.000 C 
ATOM      3  O   UNL     1      48.021   1.374   6.596  0.00  0.00    +0.000 OA
ATOM     23  H   UNL     1      48.063   2.883   4.652  0.00  0.00    +0.000 HD
ATOM     24  H   UNL     1      47.045   4.107   5.325  0.00  0.00    +0.000 HD
ENDBRANCH   4   2
BRANCH  11  12
ATOM     12  C   UNL     1      43.682   5.630  10.894  0.00  0.00    +0.000 C 
BRANCH  12  13
ATOM     13  C   UNL     1      44.550   6.179  12.010  0.00  0.00    +0.000 C 
ATOM     14  O   UNL     1      44.199   6.039  13.184  0.00  0.00    +0.000 OA
ATOM     15  N   UNL     1      45.754   6.776  11.679  0.00  0.00    +0.000 N 
ATOM     25  H   UNL     1      46.100   6.683  10.728  0.00  0.00    +0.000 HD
BRANCH  15  16
ATOM     16  C   UNL     1      46.645   7.276  12.730  0.00  0.00    +0.000 C 
ATOM     17  C   UNL     1      46.476   8.777  12.990  0.00  0.00    +0.000 C 
ATOM     18  C   UNL     1      47.295   9.648  12.047  0.00  0.00    +0.000 C 
ATOM     19  N   UNL     1      48.704   9.259  12.035  0.00  0.00    +0.000 NA
ATOM     20  C   UNL     1      48.846   7.878  11.575  0.00  0.00    +0.000 C 
ATOM     21  C   UNL     1      48.113   6.896  12.485  0.00  0.00    +0.000 C 
ATOM     26  H   UNL     1      49.092   9.346  12.973  0.00  0.00    +0.000 HD
ENDBRANCH  15  16
ENDBRANCH  12  13
ENDBRANCH  11  12
TORSDOF 4
ENDMDL
MODEL 2
REMARK VINA RESULT:    -7.165      3.025      7.293
REMARK INTER + INTRA:          -9.515
REMARK INTER:                  -9.170
REMARK INTRA:                  -0.346
REMARK UNBOUND:                -0.675
REMARK  Name = 
REMARK  4 active torsions:
REMARK  status: ('A' for Active; 'I' for Inactive)
REMARK    1  A    between atoms: C_2  and  C_4
REMARK    2  A    between atoms: N_11  and  C_12
REMARK    3  A    between atoms: C_12  and  C_13
REMARK    4  A    between atoms: N_15  and  C_16
REMARK                            x       y       z     vdW  Elec       q    Type
REMARK                         _______ _______ _______ _____ _____    ______ ____
ROOT
ATOM      4  C   UNL     1      48.187   5.669  15.511  0.00  0.00    +0.000 A 
ATOM      5  C   UNL     1      47.481   4.472  15.603  0.00  0.00    +0.000 A 
ATOM      6  N   UNL     1      46.580   4.014  14.695  0.00  0.00    +0.000 NA
ATOM      7  C   UNL     1      46.459   4.820  13.621  0.00  0.00    +0.000 A 
ATOM      8  C   UNL     1      47.143   6.011  13.385  0.00  0.00    +0.000 A 
ATOM      9  C   UNL     1      46.718   6.492  12.118  0.00  0.00    +0.000 A 
ATOM     10  C   UNL     1      45.778   5.609  11.632  0.00  0.00    +0.000 A 
ATOM     11  N   UNL     1      45.609   4.614  12.563  0.00  0.00    +0.000 N 
ATOM     22  C   UNL     1      48.041   6.458  14.367  0.00  0.00    +0.000 A 
ENDROOT
BRANCH   4   2
ATOM      1  N   UNL     1      48.511   6.905  17.576  0.00  0.00    +0.000 N 
ATOM      2  C   UNL     1      49.056   6.073  16.636  0.00  0.00    +0.000 C 
ATOM      3  O   UNL     1      50.197   5.649  16.748  0.00  0.00    +0.000 OA
ATOM     23  H   UNL     1      49.072   7.084  18.400  0.00  0.00    +0.000 HD
ATOM     24  H   UNL     1      47.518   7.084  17.643  0.00  0.00    +0.000 HD
ENDBRANCH   4   2
BRANCH  11  12
ATOM     12  C   UNL     1      44.730   3.468  12.415  0.00  0.00    +0.000 C 
BRANCH  12  13
ATOM     13  C   UNL     1      44.325   3.155  10.987  0.00  0.00    +0.000 C 
ATOM     14  O   UNL     1      43.205   3.476  10.583  0.00  0.00    +0.000 OA
ATOM     15  N   UNL     1      45.255   2.564  10.150  0.00  0.00    +0.000 N 
ATOM     25  H   UNL     1      46.223   2.509  10.456  0.00  0.00    +0.000 HD
BRANCH  15  16
ATOM     16  C   UNL     1      44.921   2.288   8.750  0.00  0.00    +0.000 C 
ATOM     17  C   UNL     1      45.662   1.069   8.189  0.00  0.00    +0.000 C 
ATOM     18  C   UNL     1      47.054   1.398   7.667  0.00  0.00    +0.000 C 
ATOM     19  N   UNL     1      47.027   2.500   6.707  0.00  0.00    +0.000 NA
ATOM     20  C   UNL     1      46.509   3.712   7.340  0.00  0.00    +0.000 C 
ATOM     21  C   UNL     1      45.084   3.523   7.853  0.00  0.00    +0.000 C 
ATOM     26  H   UNL     1      46.436   2.251   5.916  0.00  0.00    +0.000 HD
ENDBRANCH  15  16
ENDBRANCH  12  13
ENDBRANCH  11  12
TORSDOF 4
ENDMDL
MODEL 3
REMARK VINA RESULT:    -6.955      2.471      6.625
REMARK INTER + INTRA:          -9.257
REMARK INTER:                  -8.782
REMARK INTRA:                  -0.475
REMARK UNBOUND:                -0.675
REMARK  Name = 
REMARK  4 active torsions:
REMARK  status: ('A' for Active; 'I' for Inactive)
REMARK    1  A    between atoms: C_2  and  C_4
REMARK    2  A    between atoms: N_11  and  C_12
REMARK    3  A    between atoms: C_12  and  C_13
REMARK    4  A    between atoms: N_15  and  C_16
REMARK                            x       y       z     vdW  Elec       q    Type
REMARK                         _______ _______ _______ _____ _____    ______ ____
ROOT
ATOM      4  C   UNL     1      45.336   8.367  12.222  0.00  0.00    +0.000 A 
ATOM      5  C   UNL     1      44.232   7.545  12.006  0.00  0.00    +0.000 A 
ATOM      6  N   UNL     1      44.198   6.201  12.206  0.00  0.00    +0.000 NA
ATOM      7  C   UNL     1      45.351   5.714  12.706  0.00  0.00    +0.000 A 
ATOM      8  C   UNL     1      46.503   6.435  13.015  0.00  0.00    +0.000 A 
ATOM      9  C   UNL     1      47.444   5.511  13.543  0.00  0.00    +0.000 A 
ATOM     10  C   UNL     1      46.861   4.263  13.519  0.00  0.00    +0.000 A 
ATOM     11  N   UNL     1      45.602   4.393  12.984  0.00  0.00    +0.000 N 
ATOM     22  C   UNL     1      46.500   7.815  12.762  0.00  0.00    +0.000 A 
ENDROOT
BRANCH   4   2
ATOM      1  N   UNL     1      44.042  10.417  12.075  0.00  0.00    +0.000 N 
ATOM      2  C   UNL     1      45.242   9.797  11.858  0.00  0.00    +0.000 C 
ATOM      3  O   UNL     1      46.205  10.412  11.424  0.00  0.00    +0.000 OA
ATOM     23  H   UNL     1      44.018  11.419  11.932  0.00  0.00    +0.000 HD
ATOM     24  H   UNL     1      43.308  10.012  12.640  0.00  0.00    +0.000 HD
ENDBRANCH   4   2
BRANCH  11  12
ATOM     12  C   UNL     1      44.646   3.312  12.819  0.00  0.00    +0.000 C 
BRANCH  12  13
ATOM     13  C   UNL     1      44.177   3.089  11.393  0.00  0.00    +0.000 C 
ATOM     14  O   UNL     1      42.986   3.245  11.109  0.00  0.00    +0.000 OA
ATOM     15  N   UNL     1      45.116   2.770  10.430  0.00  0.00    +0.000 N 
ATOM     25  H   UNL     1      46.103   2.858  10.661  0.00  0.00    +0.000 HD
BRANCH  15  16
ATOM     16  C   UNL     1      44.712   2.592   9.032  0.00  0.00    +0.000 C 
ATOM     17  C   UNL     1      45.305   1.330   8.396  0.00  0.00    +0.000 C 
ATOM     18  C   UNL     1      46.707   1.538   7.838  0.00  0.00    +0.000 C 
ATOM     19  N   UNL     1      46.765   2.679   6.926  0.00  0.00    +0.000 NA
ATOM     20  C   UNL     1      46.395   3.909   7.627  0.00  0.00    +0.000 C 
ATOM     21  C   UNL     1      44.975   3.844   8.181  0.00  0.00    +0.000 C 
ATOM     26  H   UNL     1      46.127   2.528   6.147  0.00  0.00    +0.000 HD
ENDBRANCH  15  16
ENDBRANCH  12  13
ENDBRANCH  11  12
TORSDOF 4
ENDMDL
MODEL 4
REMARK VINA RESULT:    -6.835      3.322      7.368
REMARK INTER + INTRA:          -9.109
REMARK INTER:                  -8.506
REMARK INTRA:                  -0.603
REMARK UNBOUND:                -0.675
REMARK  Name = 
REMARK  4 active torsions:
REMARK  status: ('A' for Active; 'I' for Inactive)
REMARK    1  A    between atoms: C_2  and  C_4
REMARK    2  A    between atoms: N_11  and  C_12
REMARK    3  A    between atoms: C_12  and  C_13
REMARK    4  A    between atoms: N_15  and  C_16
REMARK                            x       y       z     vdW  Elec       q    Type
REMARK                         _______ _______ _______ _____ _____    ______ ____
ROOT
ATOM      4  C   UNL     1      47.695   4.458  16.207  0.00  0.00    +0.000 A 
ATOM      5  C   UNL     1      47.163   4.151  14.957  0.00  0.00    +0.000 A 
ATOM      6  N   UNL     1      47.206   4.954  13.861  0.00  0.00    +0.000 NA
ATOM      7  C   UNL     1      47.883   6.100  14.075  0.00  0.00    +0.000 A 
ATOM      8  C   UNL     1      48.504   6.500  15.257  0.00  0.00    +0.000 A 
ATOM      9  C   UNL     1      49.116   7.756  15.002  0.00  0.00    +0.000 A 
ATOM     10  C   UNL     1      48.835   8.099  13.697  0.00  0.00    +0.000 A 
ATOM     11  N   UNL     1      48.064   7.101  13.153  0.00  0.00    +0.000 N 
ATOM     22  C   UNL     1      48.406   5.650  16.370  0.00  0.00    +0.000 A 
ENDROOT
BRANCH   4   2
ATOM      1  N   UNL     1      48.471   3.417  18.259  0.00  0.00    +0.000 N 
ATOM      2  C   UNL     1      47.475   3.518  17.326  0.00  0.00    +0.000 C 
ATOM      3  O   UNL     1      46.432   2.891  17.440  0.00  0.00    +0.000 OA
ATOM     23  H   UNL     1      48.267   2.860  19.080  0.00  0.00    +0.000 HD
ATOM     24  H   UNL     1      49.231   4.080  18.326  0.00  0.00    +0.000 HD
ENDBRANCH   4   2
BRANCH  11  12
ATOM     12  C   UNL     1      47.585   7.065  11.783  0.00  0.00    +0.000 C 
BRANCH  12  13
ATOM     13  C   UNL     1      46.101   6.789  11.633  0.00  0.00    +0.000 C 
ATOM     14  O   UNL     1      45.289   7.703  11.793  0.00  0.00    +0.000 OA
ATOM     15  N   UNL     1      45.698   5.519  11.261  0.00  0.00    +0.000 N 
ATOM     25  H   UNL     1      46.401   4.858  10.937  0.00  0.00    +0.000 HD
BRANCH  15  16
ATOM     16  C   UNL     1      44.277   5.222  11.060  0.00  0.00    +0.000 C 
ATOM     17  C   UNL     1      43.595   4.684  12.323  0.00  0.00    +0.000 C 
ATOM     18  C   UNL     1      43.760   3.180  12.502  0.00  0.00    +0.000 C 
ATOM     19  N   UNL     1      43.345   2.443  11.310  0.00  0.00    +0.000 NA
ATOM     20  C   UNL     1      44.165   2.830  10.162  0.00  0.00    +0.000 C 
ATOM     21  C   UNL     1      44.033   4.316   9.843  0.00  0.00    +0.000 C 
ATOM     26  H   UNL     1      42.366   2.638  11.110  0.00  0.00    +0.000 HD
ENDBRANCH  15  16
ENDBRANCH  12  13
ENDBRANCH  11  12
TORSDOF 4
ENDMDL
MODEL 5
REMARK VINA RESULT:    -6.780      6.139      8.714
REMARK INTER + INTRA:          -9.041
REMARK INTER:                  -8.637
REMARK INTRA:                  -0.404
REMARK UNBOUND:                -0.675
REMARK  Name = 
REMARK  4 active torsions:
REMARK  status: ('A' for Active; 'I' for Inactive)
REMARK    1  A    between atoms: C_2  and  C_4
REMARK    2  A    between atoms: N_11  and  C_12
REMARK    3  A    between atoms: C_12  and  C_13
REMARK    4  A    between atoms: N_15  and  C_16
REMARK                            x       y       z     vdW  Elec       q    Type
REMARK                         _______ _______ _______ _____ _____    ______ ____
ROOT
ATOM      4  C   UNL     1      51.691   2.195  17.549  0.00  0.00    +0.000 A 
ATOM      5  C   UNL     1      50.535   1.659  16.988  0.00  0.00    +0.000 A 
ATOM      6  N   UNL     1      49.383   2.339  16.751  0.00  0.00    +0.000 NA
ATOM      7  C   UNL     1      49.470   3.647  17.065  0.00  0.00    +0.000 A 
ATOM      8  C   UNL     1      50.580   4.314  17.581  0.00  0.00    +0.000 A 
ATOM      9  C   UNL     1      50.218   5.680  17.721  0.00  0.00    +0.000 A 
ATOM     10  C   UNL     1      48.906   5.806  17.318  0.00  0.00    +0.000 A 
ATOM     11  N   UNL     1      48.454   4.562  16.948  0.00  0.00    +0.000 N 
ATOM     22  C   UNL     1      51.737   3.562  17.837  0.00  0.00    +0.000 A 
ENDROOT
BRANCH   4   2
ATOM      1  N   UNL     1      52.529   0.016  18.218  0.00  0.00    +0.000 N 
ATOM      2  C   UNL     1      52.829   1.296  17.836  0.00  0.00    +0.000 C 
ATOM      3  O   UNL     1      53.986   1.662  17.697  0.00  0.00    +0.000 OA
ATOM     23  H   UNL     1      53.308  -0.625  18.301  0.00  0.00    +0.000 HD
ATOM     24  H   UNL     1      51.607  -0.386  18.118  0.00  0.00    +0.000 HD
ENDBRANCH   4   2
BRANCH  11  12
ATOM     12  C   UNL     1      47.129   4.272  16.428  0.00  0.00    +0.000 C 
BRANCH  12  13
ATOM     13  C   UNL     1      46.929   4.616  14.964  0.00  0.00    +0.000 C 
ATOM     14  O   UNL     1      47.878   5.040  14.300  0.00  0.00    +0.000 OA
ATOM     15  N   UNL     1      45.690   4.387  14.394  0.00  0.00    +0.000 N 
ATOM     25  H   UNL     1      45.005   3.846  14.915  0.00  0.00    +0.000 HD
BRANCH  15  16
ATOM     16  C   UNL     1      45.468   4.661  12.971  0.00  0.00    +0.000 C 
ATOM     17  C   UNL     1      44.419   5.752  12.731  0.00  0.00    +0.000 C 
ATOM     18  C   UNL     1      42.990   5.224  12.729  0.00  0.00    +0.000 C 
ATOM     19  N   UNL     1      42.826   4.106  11.803  0.00  0.00    +0.000 NA
ATOM     20  C   UNL     1      43.693   2.994  12.190  0.00  0.00    +0.000 C 
ATOM     21  C   UNL     1      45.168   3.387  12.168  0.00  0.00    +0.000 C 
ATOM     26  H   UNL     1      43.060   4.405  10.858  0.00  0.00    +0.000 HD
ENDBRANCH  15  16
ENDBRANCH  12  13
ENDBRANCH  11  12
TORSDOF 4
ENDMDL
MODEL 6
REMARK VINA RESULT:    -6.485      4.092      6.342
REMARK INTER + INTRA:          -8.677
REMARK INTER:                  -7.929
REMARK INTRA:                  -0.749
REMARK UNBOUND:                -0.675
REMARK  Name = 
REMARK  4 active torsions:
REMARK  status: ('A' for Active; 'I' for Inactive)
REMARK    1  A    between atoms: C_2  and  C_4
REMARK    2  A    between atoms: N_11  and  C_12
REMARK    3  A    between atoms: C_12  and  C_13
REMARK    4  A    between atoms: N_15  and  C_16
REMARK                            x       y       z     vdW  Elec       q    Type
REMARK                         _______ _______ _______ _____ _____    ______ ____
ROOT
ATOM      4  C   UNL     1      44.680   4.554  12.274  0.00  0.00    +0.000 A 
ATOM      5  C   UNL     1      45.888   4.200  12.872  0.00  0.00    +0.000 A 
ATOM      6  N   UNL     1      46.857   5.066  13.268  0.00  0.00    +0.000 NA
ATOM      7  C   UNL     1      46.518   6.357  13.078  0.00  0.00    +0.000 A 
ATOM      8  C   UNL     1      45.326   6.842  12.544  0.00  0.00    +0.000 A 
ATOM      9  C   UNL     1      45.403   8.260  12.569  0.00  0.00    +0.000 A 
ATOM     10  C   UNL     1      46.634   8.600  13.088  0.00  0.00    +0.000 A 
ATOM     11  N   UNL     1      47.312   7.439  13.368  0.00  0.00    +0.000 N 
ATOM     22  C   UNL     1      44.368   5.907  12.121  0.00  0.00    +0.000 A 
ENDROOT
BRANCH   4   2
ATOM      1  N   UNL     1      43.786   2.309  12.510  0.00  0.00    +0.000 N 
ATOM      2  C   UNL     1      43.774   3.483  11.808  0.00  0.00    +0.000 C 
ATOM      3  O   UNL     1      43.015   3.652  10.865  0.00  0.00    +0.000 OA
ATOM     23  H   UNL     1      43.084   1.624  12.258  0.00  0.00    +0.000 HD
ATOM     24  H   UNL     1      44.218   2.215  13.419  0.00  0.00    +0.000 HD
ENDBRANCH   4   2
BRANCH  11  12
ATOM     12  C   UNL     1      48.635   7.363  13.962  0.00  0.00    +0.000 C 
BRANCH  12  13
ATOM     13  C   UNL     1      48.649   7.153  15.464  0.00  0.00    +0.000 C 
ATOM     14  O   UNL     1      48.794   8.119  16.216  0.00  0.00    +0.000 OA
ATOM     15  N   UNL     1      48.438   5.877  15.955  0.00  0.00    +0.000 N 
ATOM     25  H   UNL     1      48.116   5.154  15.316  0.00  0.00    +0.000 HD
BRANCH  15  16
ATOM     16  C   UNL     1      48.397   5.638  17.401  0.00  0.00    +0.000 C 
ATOM     17  C   UNL     1      49.757   5.229  17.977  0.00  0.00    +0.000 C 
ATOM     18  C   UNL     1      50.036   3.736  17.860  0.00  0.00    +0.000 C 
ATOM     19  N   UNL     1      48.950   2.935  18.421  0.00  0.00    +0.000 NA
ATOM     20  C   UNL     1      47.702   3.196  17.703  0.00  0.00    +0.000 C 
ATOM     21  C   UNL     1      47.283   4.660  17.803  0.00  0.00    +0.000 C 
ATOM     26  H   UNL     1      48.829   3.164  19.406  0.00  0.00    +0.000 HD
ENDBRANCH  15  16
ENDBRANCH  12  13
ENDBRANCH  11  12
TORSDOF 4
ENDMDL
MODEL 7
REMARK VINA RESULT:    -6.177      4.656      6.006
REMARK INTER + INTRA:          -8.297
REMARK INTER:                  -7.919
REMARK INTRA:                  -0.378
REMARK UNBOUND:                -0.675
REMARK  Name = 
REMARK  4 active torsions:
REMARK  status: ('A' for Active; 'I' for Inactive)
REMARK    1  A    between atoms: C_2  and  C_4
REMARK    2  A    between atoms: N_11  and  C_12
REMARK    3  A    between atoms: C_12  and  C_13
REMARK    4  A    between atoms: N_15  and  C_16
REMARK                            x       y       z     vdW  Elec       q    Type
REMARK                         _______ _______ _______ _____ _____    ______ ____
ROOT
ATOM      4  C   UNL     1      45.005   4.138  11.108  0.00  0.00    +0.000 A 
ATOM      5  C   UNL     1      45.158   3.304  12.213  0.00  0.00    +0.000 A 
ATOM      6  N   UNL     1      45.880   3.594  13.327  0.00  0.00    +0.000 NA
ATOM      7  C   UNL     1      46.417   4.830  13.299  0.00  0.00    +0.000 A 
ATOM      8  C   UNL     1      46.295   5.775  12.283  0.00  0.00    +0.000 A 
ATOM      9  C   UNL     1      46.997   6.935  12.706  0.00  0.00    +0.000 A 
ATOM     10  C   UNL     1      47.544   6.664  13.941  0.00  0.00    +0.000 A 
ATOM     11  N   UNL     1      47.209   5.375  14.279  0.00  0.00    +0.000 N 
ATOM     22  C   UNL     1      45.564   5.419  11.139  0.00  0.00    +0.000 A 
ENDROOT
BRANCH   4   2
ATOM      1  N   UNL     1      44.189   4.462   8.844  0.00  0.00    +0.000 N 
ATOM      2  C   UNL     1      44.268   3.634   9.930  0.00  0.00    +0.000 C 
ATOM      3  O   UNL     1      43.788   2.510   9.908  0.00  0.00    +0.000 OA
ATOM     23  H   UNL     1      43.784   4.067   8.003  0.00  0.00    +0.000 HD
ATOM     24  H   UNL     1      44.763   5.287   8.738  0.00  0.00    +0.000 HD
ENDBRANCH   4   2
BRANCH  11  12
ATOM     12  C   UNL     1      47.564   4.716  15.524  0.00  0.00    +0.000 C 
BRANCH  12  13
ATOM     13  C   UNL     1      48.475   5.519  16.433  0.00  0.00    +0.000 C 
ATOM     14  O   UNL     1      49.697   5.466  16.277  0.00  0.00    +0.000 OA
ATOM     15  N   UNL     1      47.900   6.342  17.386  0.00  0.00    +0.000 N 
ATOM     25  H   UNL     1      46.900   6.516  17.342  0.00  0.00    +0.000 HD
BRANCH  15  16
ATOM     16  C   UNL     1      48.743   7.170  18.253  0.00  0.00    +0.000 C 
ATOM     17  C   UNL     1      48.916   6.579  19.657  0.00  0.00    +0.000 C 
ATOM     18  C   UNL     1      47.784   6.946  20.608  0.00  0.00    +0.000 C 
ATOM     19  N   UNL     1      47.561   8.390  20.655  0.00  0.00    +0.000 NA
ATOM     20  C   UNL     1      47.188   8.889  19.332  0.00  0.00    +0.000 C 
ATOM     21  C   UNL     1      48.280   8.634  18.298  0.00  0.00    +0.000 C 
ATOM     26  H   UNL     1      48.410   8.858  20.968  0.00  0.00    +0.000 HD
ENDBRANCH  15  16
ENDBRANCH  12  13
ENDBRANCH  11  12
TORSDOF 4
ENDMDL
MODEL 8
REMARK VINA RESULT:    -6.143      2.461      7.032
REMARK INTER + INTRA:          -8.255
REMARK INTER:                  -7.994
REMARK INTRA:                  -0.261
REMARK UNBOUND:                -0.675
REMARK  Name = 
REMARK  4 active torsions:
REMARK  status: ('A' for Active; 'I' for Inactive)
REMARK    1  A    between atoms: C_2  and  C_4
REMARK    2  A    between atoms: N_11  and  C_12
REMARK    3  A    between atoms: C_12  and  C_13
REMARK    4  A    between atoms: N_15  and  C_16
REMARK                            x       y       z     vdW  Elec       q    Type
REMARK                         _______ _______ _______ _____ _____    ______ ____
ROOT
ATOM      4  C   UNL     1      48.672   6.867  14.154  0.00  0.00    +0.000 A 
ATOM      5  C   UNL     1      48.493   7.513  12.932  0.00  0.00    +0.000 A 
ATOM      6  N   UNL     1      47.649   7.115  11.945  0.00  0.00    +0.000 NA
ATOM      7  C   UNL     1      46.924   6.028  12.278  0.00  0.00    +0.000 A 
ATOM      8  C   UNL     1      46.970   5.326  13.481  0.00  0.00    +0.000 A 
ATOM      9  C   UNL     1      46.012   4.281  13.391  0.00  0.00    +0.000 A 
ATOM     10  C   UNL     1      45.432   4.355  12.142  0.00  0.00    +0.000 A 
ATOM     11  N   UNL     1      46.012   5.401  11.466  0.00  0.00    +0.000 N 
ATOM     22  C   UNL     1      47.880   5.757  14.458  0.00  0.00    +0.000 A 
ENDROOT
BRANCH   4   2
ATOM      1  N   UNL     1      50.985   7.453  14.602  0.00  0.00    +0.000 N 
ATOM      2  C   UNL     1      49.707   7.370  15.082  0.00  0.00    +0.000 C 
ATOM      3  O   UNL     1      49.427   7.739  16.213  0.00  0.00    +0.000 OA
ATOM     23  H   UNL     1      51.665   7.904  15.203  0.00  0.00    +0.000 HD
ATOM     24  H   UNL     1      51.210   7.382  13.619  0.00  0.00    +0.000 HD
ENDBRANCH   4   2
BRANCH  11  12
ATOM     12  C   UNL     1      45.654   5.834  10.127  0.00  0.00    +0.000 C 
BRANCH  12  13
ATOM     13  C   UNL     1      45.218   4.722   9.192  0.00  0.00    +0.000 C 
ATOM     14  O   UNL     1      44.056   4.310   9.233  0.00  0.00    +0.000 OA
ATOM     15  N   UNL     1      46.128   4.237   8.271  0.00  0.00    +0.000 N 
ATOM     25  H   UNL     1      46.999   4.743   8.131  0.00  0.00    +0.000 HD
BRANCH  15  16
ATOM     16  C   UNL     1      45.733   3.195   7.318  0.00  0.00    +0.000 C 
ATOM     17  C   UNL     1      45.756   1.789   7.928  0.00  0.00    +0.000 C 
ATOM     18  C   UNL     1      47.133   1.137   7.885  0.00  0.00    +0.000 C 
ATOM     19  N   UNL     1      47.697   1.150   6.537  0.00  0.00    +0.000 NA
ATOM     20  C   UNL     1      47.860   2.525   6.067  0.00  0.00    +0.000 C 
ATOM     21  C   UNL     1      46.528   3.268   6.006  0.00  0.00    +0.000 C 
ATOM     26  H   UNL     1      47.082   0.645   5.902  0.00  0.00    +0.000 HD
ENDBRANCH  15  16
ENDBRANCH  12  13
ENDBRANCH  11  12
TORSDOF 4
ENDMDL
MODEL 9
REMARK VINA RESULT:    -5.936      4.936      8.216
REMARK INTER + INTRA:          -7.999
REMARK INTER:                  -7.502
REMARK INTRA:                  -0.497
REMARK UNBOUND:                -0.675
REMARK  Name = 
REMARK  4 active torsions:
REMARK  status: ('A' for Active; 'I' for Inactive)
REMARK    1  A    between atoms: C_2  and  C_4
REMARK    2  A    between atoms: N_11  and  C_12
REMARK    3  A    between atoms: C_12  and  C_13
REMARK    4  A    between atoms: N_15  and  C_16
REMARK                            x       y       z     vdW  Elec       q    Type
REMARK                         _______ _______ _______ _____ _____    ______ ____
ROOT
ATOM      4  C   UNL     1      51.613   6.999  16.000  0.00  0.00    +0.000 A 
ATOM      5  C   UNL     1      50.329   7.098  15.470  0.00  0.00    +0.000 A 
ATOM      6  N   UNL     1      49.286   6.281  15.769  0.00  0.00    +0.000 NA
ATOM      7  C   UNL     1      49.591   5.359  16.704  0.00  0.00    +0.000 A 
ATOM      8  C   UNL     1      50.815   5.190  17.347  0.00  0.00    +0.000 A 
ATOM      9  C   UNL     1      50.657   4.122  18.271  0.00  0.00    +0.000 A 
ATOM     10  C   UNL     1      49.366   3.656  18.151  0.00  0.00    +0.000 A 
ATOM     11  N   UNL     1      48.736   4.395  17.179  0.00  0.00    +0.000 N 
ATOM     22  C   UNL     1      51.871   6.039  16.982  0.00  0.00    +0.000 A 
ENDROOT
BRANCH   4   2
ATOM      1  N   UNL     1      53.533   7.394  14.566  0.00  0.00    +0.000 N 
ATOM      2  C   UNL     1      52.666   7.905  15.494  0.00  0.00    +0.000 C 
ATOM      3  O   UNL     1      52.735   9.071  15.853  0.00  0.00    +0.000 OA
ATOM     23  H   UNL     1      54.176   8.050  14.140  0.00  0.00    +0.000 HD
ATOM     24  H   UNL     1      53.367   6.524  14.078  0.00  0.00    +0.000 HD
ENDBRANCH   4   2
BRANCH  11  12
ATOM     12  C   UNL     1      47.351   4.240  16.774  0.00  0.00    +0.000 C 
BRANCH  12  13
ATOM     13  C   UNL     1      47.134   4.101  15.279  0.00  0.00    +0.000 C 
ATOM     14  O   UNL     1      47.508   3.078  14.699  0.00  0.00    +0.000 OA
ATOM     15  N   UNL     1      46.466   5.110  14.610  0.00  0.00    +0.000 N 
ATOM     25  H   UNL     1      45.994   5.828  15.154  0.00  0.00    +0.000 HD
BRANCH  15  16
ATOM     16  C   UNL     1      46.195   4.994  13.174  0.00  0.00    +0.000 C 
ATOM     17  C   UNL     1      46.425   6.305  12.416  0.00  0.00    +0.000 C 
ATOM     18  C   UNL     1      45.220   7.238  12.445  0.00  0.00    +0.000 C 
ATOM     19  N   UNL     1      44.002   6.564  11.999  0.00  0.00    +0.000 NA
ATOM     20  C   UNL     1      43.694   5.437  12.880  0.00  0.00    +0.000 C 
ATOM     21  C   UNL     1      44.810   4.397  12.885  0.00  0.00    +0.000 C 
ATOM     26  H   UNL     1      44.125   6.227  11.047  0.00  0.00    +0.000 HD
ENDBRANCH  15  16
ENDBRANCH  12  13
ENDBRANCH  11  12
TORSDOF 4
ENDMDL
