MODEL 1
REMARK VINA RESULT:    -7.170      0.000      0.000
REMARK INTER + INTRA:         -16.602
REMARK INTER:                 -13.039
REMARK INTRA:                  -3.564
REMARK UNBOUND:                -3.564
REMARK  Name = 
REMARK  15 active torsions:
REMARK  status: ('A' for Active; 'I' for Inactive)
REMARK    1  A    between atoms: C_1  and  C_2
REMARK    2  A    between atoms: C_2  and  C_3
REMARK    3  A    between atoms: C_3  and  C_4
REMARK    4  A    between atoms: C_4  and  C_5
REMARK    5  A    between atoms: C_5  and  C_6
REMARK    6  A    between atoms: C_6  and  C_7
REMARK    7  A    between atoms: C_7  and  C_8
REMARK    8  A    between atoms: C_8  and  N_9
REMARK    9  A    between atoms: N_9  and  C_10
REMARK   10  A    between atoms: N_9  and  C_17
REMARK   11  A    between atoms: C_10  and  C_11
REMARK   12  A    between atoms: C_17  and  C_18
REMARK   13  A    between atoms: C_21  and  C_22
REMARK   14  A    between atoms: C_22  and  N_23
REMARK   15  A    between atoms: C_24  and  C_26
REMARK                            x       y       z     vdW  Elec       q    Type
REMARK                         _______ _______ _______ _____ _____    ______ ____
ROOT
ATOM     18  C   UNL     1      45.317   6.578  11.269  0.00  0.00    +0.000 A 
ATOM     19  C   UNL     1      46.697   6.401  11.096  0.00  0.00    +0.000 A 
ATOM     20  C   UNL     1      47.610   7.079  11.910  0.00  0.00    +0.000 A 
ATOM     21  C   UNL     1      47.161   7.956  12.907  0.00  0.00    +0.000 A 
ATOM     36  C   UNL     1      45.787   8.207  13.012  0.00  0.00    +0.000 A 
ATOM     37  C   UNL     1      44.873   7.521  12.207  0.00  0.00    +0.000 A 
ENDROOT
BRANCH  18  17
ATOM     17  C   UNL     1      44.327   5.707  10.508  0.00  0.00    +0.000 C 
BRANCH  17   9
ATOM      9  N   UNL     1      44.832   4.325  10.259  0.00  0.00    +0.000 NA
BRANCH   9   8
ATOM      8  C   UNL     1      44.088   3.379  11.135  0.00  0.00    +0.000 C 
BRANCH   8   7
ATOM      7  C   UNL     1      44.474   3.289  12.619  0.00  0.00    +0.000 C 
BRANCH   7   6
ATOM      6  C   UNL     1      45.971   3.348  12.931  0.00  0.00    +0.000 C 
BRANCH   6   5
ATOM      5  C   UNL     1      46.192   4.387  14.040  0.00  0.00    +0.000 C 
BRANCH   5   4
ATOM      4  C   UNL     1      47.406   4.088  14.913  0.00  0.00    +0.000 C 
BRANCH   4   3
ATOM      3  C   UNL     1      47.077   4.322  16.391  0.00  0.00    +0.000 C 
BRANCH   3   2
ATOM      1  C   UNL     1      48.723   2.420  16.608  0.00  0.00    +0.000 C 
ATOM      2  C   UNL     1      47.555   3.152  17.247  0.00  0.00    +0.000 C 
ENDBRANCH   3   2
ENDBRANCH   4   3
ENDBRANCH   5   4
ENDBRANCH   6   5
ENDBRANCH   7   6
ENDBRANCH   8   7
ENDBRANCH   9   8
BRANCH   9  10
ATOM     10  C   UNL     1      44.641   3.962   8.838  0.00  0.00    +0.000 C 
BRANCH  10  11
ATOM     11  C   UNL     1      45.703   3.102   8.169  0.00  0.00    +0.000 A 
ATOM     12  C   UNL     1      45.896   1.752   8.490  0.00  0.00    +0.000 A 
ATOM     13  C   UNL     1      46.720   0.943   7.699  0.00  0.00    +0.000 A 
ATOM     14  C   UNL     1      47.359   1.473   6.577  0.00  0.00    +0.000 A 
ATOM     15  C   UNL     1      47.208   2.821   6.268  0.00  0.00    +0.000 A 
ATOM     16  C   UNL     1      46.388   3.629   7.058  0.00  0.00    +0.000 A 
ENDBRANCH  10  11
ENDBRANCH   9  10
ENDBRANCH  17   9
ENDBRANCH  18  17
BRANCH  21  22
ATOM     22  C   UNL     1      48.131   8.603  13.860  0.00  0.00    +0.000 C 
BRANCH  22  23
ATOM     23  N   UNL     1      48.243   7.874  15.095  0.00  0.00    +0.000 N 
ATOM     24  C   UNL     1      48.540   8.520  16.268  0.00  0.00    +0.000 C 
ATOM     25  O   UNL     1      48.673   9.740  16.327  0.00  0.00    +0.000 OA
ATOM     38  H   UNL     1      48.378   6.870  15.029  0.00  0.00    +0.000 HD
BRANCH  24  26
ATOM     26  C   UNL     1      48.629   7.684  17.470  0.00  0.00    +0.000 A 
ATOM     27  C   UNL     1      47.799   7.944  18.552  0.00  0.00    +0.000 A 
ATOM     28  S   UNL     1      48.002   6.853  19.846  0.00  0.00    +0.000 S 
ATOM     29  C   UNL     1      49.244   6.028  19.026  0.00  0.00    +0.000 A 
ATOM     30  N   UNL     1      49.888   4.979  19.607  0.00  0.00    +0.000 NA
ATOM     31  C   UNL     1      50.830   4.471  18.891  0.00  0.00    +0.000 A 
ATOM     32  N   UNL     1      51.187   4.908  17.640  0.00  0.00    +0.000 N 
ATOM     33  C   UNL     1      50.546   5.944  17.004  0.00  0.00    +0.000 A 
ATOM     34  O   UNL     1      50.861   6.285  15.867  0.00  0.00    +0.000 OA
ATOM     35  C   UNL     1      49.487   6.562  17.774  0.00  0.00    +0.000 A 
ATOM     39  H   UNL     1      51.931   4.459  17.126  0.00  0.00    +0.000 HD
ENDBRANCH  24  26
ENDBRANCH  22  23
ENDBRANCH  21  22
TORSDOF 14
ENDMDL
MODEL 2
REMARK VINA RESULT:    -6.903      1.160      1.716
REMARK INTER + INTRA:         -16.116
REMARK INTER:                 -12.864
REMARK INTRA:                  -3.251
REMARK UNBOUND:                -3.564
REMARK  Name = 
REMARK  15 active torsions:
REMARK  status: ('A' for Active; 'I' for Inactive)
REMARK    1  A    between atoms: C_1  and  C_2
REMARK    2  A    between atoms: C_2  and  C_3
REMARK    3  A    between atoms: C_3  and  C_4
REMARK    4  A    between atoms: C_4  and  C_5
REMARK    5  A    between atoms: C_5  and  C_6
REMARK    6  A    between atoms: C_6  and  C_7
REMARK    7  A    between atoms: C_7  and  C_8
REMARK    8  A    between atoms: C_8  and  N_9
REMARK    9  A    between atoms: N_9  and  C_10
REMARK   10  A    between atoms: N_9  and  C_17
REMARK   11  A    between atoms: C_10  and  C_11
REMARK   12  A    between atoms: C_17  and  C_18
REMARK   13  A    between atoms: C_21  and  C_22
REMARK   14  A    between atoms: C_22  and  N_23
REMARK   15  A    between atoms: C_24  and  C_26
REMARK                            x       y       z     vdW  Elec       q    Type
REMARK                         _______ _______ _______ _____ _____    ______ ____
ROOT
ATOM     18  C   UNL     1      45.083   6.547  11.105  0.00  0.00    +0.000 A 
ATOM     19  C   UNL     1      46.471   6.392  10.984  0.00  0.00    +0.000 A 
ATOM     20  C   UNL     1      47.343   7.094  11.822  0.00  0.00    +0.000 A 
ATOM     21  C   UNL     1      46.845   7.975  12.792  0.00  0.00    +0.000 A 
ATOM     36  C   UNL     1      45.464   8.204  12.845  0.00  0.00    +0.000 A 
ATOM     37  C   UNL     1      44.590   7.493  12.016  0.00  0.00    +0.000 A 
ENDROOT
BRANCH  18  17
ATOM     17  C   UNL     1      44.136   5.651  10.321  0.00  0.00    +0.000 C 
BRANCH  17   9
ATOM      9  N   UNL     1      44.700   4.298  10.047  0.00  0.00    +0.000 NA
BRANCH   9   8
ATOM      8  C   UNL     1      43.902   3.287  10.794  0.00  0.00    +0.000 C 
BRANCH   8   7
ATOM      7  C   UNL     1      44.167   3.100  12.295  0.00  0.00    +0.000 C 
BRANCH   7   6
ATOM      6  C   UNL     1      45.628   3.198  12.739  0.00  0.00    +0.000 C 
BRANCH   6   5
ATOM      5  C   UNL     1      45.731   4.278  13.826  0.00  0.00    +0.000 C 
BRANCH   5   4
ATOM      4  C   UNL     1      47.154   4.495  14.328  0.00  0.00    +0.000 C 
BRANCH   4   3
ATOM      3  C   UNL     1      47.204   4.421  15.858  0.00  0.00    +0.000 C 
BRANCH   3   2
ATOM      1  C   UNL     1      47.558   2.855  17.806  0.00  0.00    +0.000 C 
ATOM      2  C   UNL     1      47.776   3.083  16.320  0.00  0.00    +0.000 C 
ENDBRANCH   3   2
ENDBRANCH   4   3
ENDBRANCH   5   4
ENDBRANCH   6   5
ENDBRANCH   7   6
ENDBRANCH   8   7
ENDBRANCH   9   8
BRANCH   9  10
ATOM     10  C   UNL     1      44.656   4.011   8.596  0.00  0.00    +0.000 C 
BRANCH  10  11
ATOM     11  C   UNL     1      45.728   3.102   8.013  0.00  0.00    +0.000 A 
ATOM     12  C   UNL     1      45.917   1.782   8.442  0.00  0.00    +0.000 A 
ATOM     13  C   UNL     1      46.753   0.915   7.729  0.00  0.00    +0.000 A 
ATOM     14  C   UNL     1      47.406   1.355   6.578  0.00  0.00    +0.000 A 
ATOM     15  C   UNL     1      47.259   2.674   6.161  0.00  0.00    +0.000 A 
ATOM     16  C   UNL     1      46.427   3.541   6.872  0.00  0.00    +0.000 A 
ENDBRANCH  10  11
ENDBRANCH   9  10
ENDBRANCH  17   9
ENDBRANCH  18  17
BRANCH  21  22
ATOM     22  C   UNL     1      47.770   8.648  13.770  0.00  0.00    +0.000 C 
BRANCH  22  23
ATOM     23  N   UNL     1      48.319   7.720  14.723  0.00  0.00    +0.000 N 
ATOM     24  C   UNL     1      48.767   8.149  15.945  0.00  0.00    +0.000 C 
ATOM     25  O   UNL     1      48.677   9.322  16.300  0.00  0.00    +0.000 OA
ATOM     38  H   UNL     1      48.621   6.818  14.367  0.00  0.00    +0.000 HD
BRANCH  24  26
ATOM     26  C   UNL     1      49.308   7.121  16.841  0.00  0.00    +0.000 A 
ATOM     27  C   UNL     1      50.363   6.325  16.417  0.00  0.00    +0.000 A 
ATOM     28  S   UNL     1      50.896   5.214  17.595  0.00  0.00    +0.000 S 
ATOM     29  C   UNL     1      49.699   5.722  18.694  0.00  0.00    +0.000 A 
ATOM     30  N   UNL     1      49.579   5.136  19.916  0.00  0.00    +0.000 NA
ATOM     31  C   UNL     1      48.609   5.590  20.630  0.00  0.00    +0.000 A 
ATOM     32  N   UNL     1      47.749   6.586  20.242  0.00  0.00    +0.000 N 
ATOM     33  C   UNL     1      47.851   7.225  19.029  0.00  0.00    +0.000 A 
ATOM     34  O   UNL     1      47.092   8.142  18.727  0.00  0.00    +0.000 OA
ATOM     35  C   UNL     1      48.917   6.739  18.179  0.00  0.00    +0.000 A 
ATOM     39  H   UNL     1      47.012   6.905  20.855  0.00  0.00    +0.000 HD
ENDBRANCH  24  26
ENDBRANCH  22  23
ENDBRANCH  21  22
TORSDOF 14
ENDMDL
MODEL 3
REMARK VINA RESULT:    -6.228      1.607      2.759
REMARK INTER + INTRA:         -14.888
REMARK INTER:                 -11.763
REMARK INTRA:                  -3.125
REMARK UNBOUND:                -3.564
REMARK  Name = 
REMARK  15 active torsions:
REMARK  status: ('A' for Active; 'I' for Inactive)
REMARK    1  A    between atoms: C_1  and  C_2
REMARK    2  A    between atoms: C_2  and  C_3
REMARK    3  A    between atoms: C_3  and  C_4
REMARK    4  A    between atoms: C_4  and  C_5
REMARK    5  A    between atoms: C_5  and  C_6
REMARK    6  A    between atoms: C_6  and  C_7
REMARK    7  A    between atoms: C_7  and  C_8
REMARK    8  A    between atoms: C_8  and  N_9
REMARK    9  A    between atoms: N_9  and  C_10
REMARK   10  A    between atoms: N_9  and  C_17
REMARK   11  A    between atoms: C_10  and  C_11
REMARK   12  A    between atoms: C_17  and  C_18
REMARK   13  A    between atoms: C_21  and  C_22
REMARK   14  A    between atoms: C_22  and  N_23
REMARK   15  A    between atoms: C_24  and  C_26
REMARK                            x       y       z     vdW  Elec       q    Type
REMARK                         _______ _______ _______ _____ _____    ______ ____
ROOT
ATOM     18  C   UNL     1      46.580   7.424  12.197  0.00  0.00    +0.000 A 
ATOM     19  C   UNL     1      47.869   7.172  11.706  0.00  0.00    +0.000 A 
ATOM     20  C   UNL     1      48.990   7.739  12.321  0.00  0.00    +0.000 A 
ATOM     21  C   UNL     1      48.844   8.578  13.435  0.00  0.00    +0.000 A 
ATOM     36  C   UNL     1      47.551   8.909  13.862  0.00  0.00    +0.000 A 
ATOM     37  C   UNL     1      46.430   8.333  13.254  0.00  0.00    +0.000 A 
ENDROOT
BRANCH  18  17
ATOM     17  C   UNL     1      45.383   6.667  11.642  0.00  0.00    +0.000 C 
BRANCH  17   9
ATOM      9  N   UNL     1      45.590   5.191  11.600  0.00  0.00    +0.000 NA
BRANCH   9   8
ATOM      8  C   UNL     1      45.470   4.651  12.981  0.00  0.00    +0.000 C 
BRANCH   8   7
ATOM      7  C   UNL     1      46.725   4.094  13.669  0.00  0.00    +0.000 C 
BRANCH   7   6
ATOM      6  C   UNL     1      47.216   4.862  14.897  0.00  0.00    +0.000 C 
BRANCH   6   5
ATOM      5  C   UNL     1      47.174   3.917  16.107  0.00  0.00    +0.000 C 
BRANCH   5   4
ATOM      4  C   UNL     1      47.519   4.605  17.423  0.00  0.00    +0.000 C 
BRANCH   4   3
ATOM      3  C   UNL     1      48.511   3.760  18.229  0.00  0.00    +0.000 C 
BRANCH   3   2
ATOM      1  C   UNL     1      50.718   2.850  17.409  0.00  0.00    +0.000 C 
ATOM      2  C   UNL     1      49.205   2.735  17.336  0.00  0.00    +0.000 C 
ENDBRANCH   3   2
ENDBRANCH   4   3
ENDBRANCH   5   4
ENDBRANCH   6   5
ENDBRANCH   7   6
ENDBRANCH   8   7
ENDBRANCH   9   8
BRANCH   9  10
ATOM     10  C   UNL     1      44.585   4.560  10.716  0.00  0.00    +0.000 C 
BRANCH  10  11
ATOM     11  C   UNL     1      45.080   3.809   9.489  0.00  0.00    +0.000 A 
ATOM     12  C   UNL     1      45.699   4.450   8.407  0.00  0.00    +0.000 A 
ATOM     13  C   UNL     1      46.340   3.705   7.411  0.00  0.00    +0.000 A 
ATOM     14  C   UNL     1      46.373   2.313   7.484  0.00  0.00    +0.000 A 
ATOM     15  C   UNL     1      45.730   1.660   8.531  0.00  0.00    +0.000 A 
ATOM     16  C   UNL     1      45.088   2.402   9.525  0.00  0.00    +0.000 A 
ENDBRANCH  10  11
ENDBRANCH   9  10
ENDBRANCH  17   9
ENDBRANCH  18  17
BRANCH  21  22
ATOM     22  C   UNL     1      50.049   9.101  14.170  0.00  0.00    +0.000 C 
BRANCH  22  23
ATOM     23  N   UNL     1      49.991   8.811  15.578  0.00  0.00    +0.000 N 
ATOM     24  C   UNL     1      50.111   7.524  16.037  0.00  0.00    +0.000 C 
ATOM     25  O   UNL     1      50.319   6.578  15.282  0.00  0.00    +0.000 OA
ATOM     38  H   UNL     1      49.586   9.521  16.181  0.00  0.00    +0.000 HD
BRANCH  24  26
ATOM     26  C   UNL     1      50.039   7.339  17.490  0.00  0.00    +0.000 A 
ATOM     27  C   UNL     1      50.955   6.509  18.123  0.00  0.00    +0.000 A 
ATOM     28  S   UNL     1      50.758   6.441  19.815  0.00  0.00    +0.000 S 
ATOM     29  C   UNL     1      49.408   7.476  19.754  0.00  0.00    +0.000 A 
ATOM     30  N   UNL     1      48.730   7.807  20.886  0.00  0.00    +0.000 NA
ATOM     31  C   UNL     1      47.709   8.566  20.691  0.00  0.00    +0.000 A 
ATOM     32  N   UNL     1      47.304   9.037  19.468  0.00  0.00    +0.000 N 
ATOM     33  C   UNL     1      47.976   8.752  18.302  0.00  0.00    +0.000 A 
ATOM     34  O   UNL     1      47.613   9.223  17.228  0.00  0.00    +0.000 OA
ATOM     35  C   UNL     1      49.124   7.886  18.464  0.00  0.00    +0.000 A 
ATOM     39  H   UNL     1      46.497   9.639  19.383  0.00  0.00    +0.000 HD
ENDBRANCH  24  26
ENDBRANCH  22  23
ENDBRANCH  21  22
TORSDOF 14
ENDMDL
MODEL 4
REMARK VINA RESULT:    -6.166      1.638      2.294
REMARK INTER + INTRA:         -14.776
REMARK INTER:                 -12.561
REMARK INTRA:                  -2.215
REMARK UNBOUND:                -3.564
REMARK  Name = 
REMARK  15 active torsions:
REMARK  status: ('A' for Active; 'I' for Inactive)
REMARK    1  A    between atoms: C_1  and  C_2
REMARK    2  A    between atoms: C_2  and  C_3
REMARK    3  A    between atoms: C_3  and  C_4
REMARK    4  A    between atoms: C_4  and  C_5
REMARK    5  A    between atoms: C_5  and  C_6
REMARK    6  A    between atoms: C_6  and  C_7
REMARK    7  A    between atoms: C_7  and  C_8
REMARK    8  A    between atoms: C_8  and  N_9
REMARK    9  A    between atoms: N_9  and  C_10
REMARK   10  A    between atoms: N_9  and  C_17
REMARK   11  A    between atoms: C_10  and  C_11
REMARK   12  A    between atoms: C_17  and  C_18
REMARK   13  A    between atoms: C_21  and  C_22
REMARK   14  A    between atoms: C_22  and  N_23
REMARK   15  A    between atoms: C_24  and  C_26
REMARK                            x       y       z     vdW  Elec       q    Type
REMARK                         _______ _______ _______ _____ _____    ______ ____
ROOT
ATOM     18  C   UNL     1      45.669   6.855  11.646  0.00  0.00    +0.000 A 
ATOM     19  C   UNL     1      47.059   6.749  11.490  0.00  0.00    +0.000 A 
ATOM     20  C   UNL     1      47.924   7.539  12.254  0.00  0.00    +0.000 A 
ATOM     21  C   UNL     1      47.417   8.457  13.183  0.00  0.00    +0.000 A 
ATOM     36  C   UNL     1      46.030   8.633  13.266  0.00  0.00    +0.000 A 
ATOM     37  C   UNL     1      45.164   7.836  12.511  0.00  0.00    +0.000 A 
ENDROOT
BRANCH  18  17
ATOM     17  C   UNL     1      44.739   5.873  10.949  0.00  0.00    +0.000 C 
BRANCH  17   9
ATOM      9  N   UNL     1      45.245   4.470  10.969  0.00  0.00    +0.000 NA
BRANCH   9   8
ATOM      8  C   UNL     1      45.042   3.908  12.332  0.00  0.00    +0.000 C 
BRANCH   8   7
ATOM      7  C   UNL     1      46.276   3.576  13.185  0.00  0.00    +0.000 C 
BRANCH   7   6
ATOM      6  C   UNL     1      46.650   4.602  14.256  0.00  0.00    +0.000 C 
BRANCH   6   5
ATOM      5  C   UNL     1      46.873   3.858  15.581  0.00  0.00    +0.000 C 
BRANCH   5   4
ATOM      4  C   UNL     1      48.311   3.934  16.081  0.00  0.00    +0.000 C 
BRANCH   4   3
ATOM      3  C   UNL     1      48.679   2.666  16.859  0.00  0.00    +0.000 C 
BRANCH   3   2
ATOM      1  C   UNL     1      51.013   1.795  17.267  0.00  0.00    +0.000 C 
ATOM      2  C   UNL     1      49.987   2.857  17.624  0.00  0.00    +0.000 C 
ENDBRANCH   3   2
ENDBRANCH   4   3
ENDBRANCH   5   4
ENDBRANCH   6   5
ENDBRANCH   7   6
ENDBRANCH   8   7
ENDBRANCH   9   8
BRANCH   9  10
ATOM     10  C   UNL     1      44.523   3.653   9.968  0.00  0.00    +0.000 C 
BRANCH  10  11
ATOM     11  C   UNL     1      45.309   3.112   8.784  0.00  0.00    +0.000 A 
ATOM     12  C   UNL     1      45.908   3.943   7.828  0.00  0.00    +0.000 A 
ATOM     13  C   UNL     1      46.806   3.420   6.891  0.00  0.00    +0.000 A 
ATOM     14  C   UNL     1      47.119   2.060   6.900  0.00  0.00    +0.000 A 
ATOM     15  C   UNL     1      46.504   1.215   7.818  0.00  0.00    +0.000 A 
ATOM     16  C   UNL     1      45.606   1.736   8.751  0.00  0.00    +0.000 A 
ENDBRANCH  10  11
ENDBRANCH   9  10
ENDBRANCH  17   9
ENDBRANCH  18  17
BRANCH  21  22
ATOM     22  C   UNL     1      48.341   9.229  14.088  0.00  0.00    +0.000 C 
BRANCH  22  23
ATOM     23  N   UNL     1      47.894   9.216  15.455  0.00  0.00    +0.000 N 
ATOM     24  C   UNL     1      48.544   9.950  16.414  0.00  0.00    +0.000 C 
ATOM     25  O   UNL     1      49.494  10.680  16.147  0.00  0.00    +0.000 OA
ATOM     38  H   UNL     1      47.286   8.453  15.736  0.00  0.00    +0.000 HD
BRANCH  24  26
ATOM     26  C   UNL     1      48.006   9.866  17.777  0.00  0.00    +0.000 A 
ATOM     27  C   UNL     1      47.433  10.989  18.359  0.00  0.00    +0.000 A 
ATOM     28  S   UNL     1      46.820  10.707  19.925  0.00  0.00    +0.000 S 
ATOM     29  C   UNL     1      47.347   9.089  19.899  0.00  0.00    +0.000 A 
ATOM     30  N   UNL     1      47.160   8.276  20.974  0.00  0.00    +0.000 NA
ATOM     31  C   UNL     1      47.640   7.089  20.833  0.00  0.00    +0.000 A 
ATOM     32  N   UNL     1      48.284   6.632  19.711  0.00  0.00    +0.000 N 
ATOM     33  C   UNL     1      48.470   7.409  18.593  0.00  0.00    +0.000 A 
ATOM     34  O   UNL     1      49.014   6.959  17.588  0.00  0.00    +0.000 OA
ATOM     35  C   UNL     1      47.963   8.761  18.705  0.00  0.00    +0.000 A 
ATOM     39  H   UNL     1      48.630   5.685  19.660  0.00  0.00    +0.000 HD
ENDBRANCH  24  26
ENDBRANCH  22  23
ENDBRANCH  21  22
TORSDOF 14
ENDMDL
MODEL 5
REMARK VINA RESULT:    -6.164      2.609      6.227
REMARK INTER + INTRA:         -14.773
REMARK INTER:                 -12.984
REMARK INTRA:                  -1.789
REMARK UNBOUND:                -3.564
REMARK  Name = 
REMARK  15 active torsions:
REMARK  status: ('A' for Active; 'I' for Inactive)
REMARK    1  A    between atoms: C_1  and  C_2
REMARK    2  A    between atoms: C_2  and  C_3
REMARK    3  A    between atoms: C_3  and  C_4
REMARK    4  A    between atoms: C_4  and  C_5
REMARK    5  A    between atoms: C_5  and  C_6
REMARK    6  A    between atoms: C_6  and  C_7
REMARK    7  A    between atoms: C_7  and  C_8
REMARK    8  A    between atoms: C_8  and  N_9
REMARK    9  A    between atoms: N_9  and  C_10
REMARK   10  A    between atoms: N_9  and  C_17
REMARK   11  A    between atoms: C_10  and  C_11
REMARK   12  A    between atoms: C_17  and  C_18
REMARK   13  A    between atoms: C_21  and  C_22
REMARK   14  A    between atoms: C_22  and  N_23
REMARK   15  A    between atoms: C_24  and  C_26
REMARK                            x       y       z     vdW  Elec       q    Type
REMARK                         _______ _______ _______ _____ _____    ______ ____
ROOT
ATOM     18  C   UNL     1      47.054   5.200  14.127  0.00  0.00    +0.000 A 
ATOM     19  C   UNL     1      47.076   4.385  15.268  0.00  0.00    +0.000 A 
ATOM     20  C   UNL     1      47.861   4.728  16.374  0.00  0.00    +0.000 A 
ATOM     21  C   UNL     1      48.647   5.888  16.357  0.00  0.00    +0.000 A 
ATOM     36  C   UNL     1      48.701   6.646  15.180  0.00  0.00    +0.000 A 
ATOM     37  C   UNL     1      47.908   6.311  14.079  0.00  0.00    +0.000 A 
ENDROOT
BRANCH  18  17
ATOM     17  C   UNL     1      46.066   4.924  13.003  0.00  0.00    +0.000 C 
BRANCH  17   9
ATOM      9  N   UNL     1      45.995   6.026  12.001  0.00  0.00    +0.000 NA
BRANCH   9   8
ATOM      8  C   UNL     1      45.531   5.464  10.703  0.00  0.00    +0.000 C 
BRANCH   8   7
ATOM      7  C   UNL     1      44.075   4.991  10.581  0.00  0.00    +0.000 C 
BRANCH   7   6
ATOM      6  C   UNL     1      43.869   3.487  10.389  0.00  0.00    +0.000 C 
BRANCH   6   5
ATOM      5  C   UNL     1      45.029   2.945   9.543  0.00  0.00    +0.000 C 
BRANCH   5   4
ATOM      4  C   UNL     1      44.908   3.286   8.062  0.00  0.00    +0.000 C 
BRANCH   4   3
ATOM      3  C   UNL     1      46.254   3.764   7.507  0.00  0.00    +0.000 C 
BRANCH   3   2
ATOM      1  C   UNL     1      47.026   2.741   5.332  0.00  0.00    +0.000 C 
ATOM      2  C   UNL     1      47.010   2.614   6.846  0.00  0.00    +0.000 C 
ENDBRANCH   3   2
ENDBRANCH   4   3
ENDBRANCH   5   4
ENDBRANCH   6   5
ENDBRANCH   7   6
ENDBRANCH   8   7
ENDBRANCH   9   8
BRANCH   9  10
ATOM     10  C   UNL     1      45.061   7.077  12.464  0.00  0.00    +0.000 C 
BRANCH  10  11
ATOM     11  C   UNL     1      45.208   8.474  11.881  0.00  0.00    +0.000 A 
ATOM     12  C   UNL     1      44.202   9.088  11.123  0.00  0.00    +0.000 A 
ATOM     13  C   UNL     1      44.282  10.447  10.801  0.00  0.00    +0.000 A 
ATOM     14  C   UNL     1      45.366  11.210  11.235  0.00  0.00    +0.000 A 
ATOM     15  C   UNL     1      46.392  10.607  11.955  0.00  0.00    +0.000 A 
ATOM     16  C   UNL     1      46.314   9.250  12.275  0.00  0.00    +0.000 A 
ENDBRANCH  10  11
ENDBRANCH   9  10
ENDBRANCH  17   9
ENDBRANCH  18  17
BRANCH  21  22
ATOM     22  C   UNL     1      49.407   6.323  17.582  0.00  0.00    +0.000 C 
BRANCH  22  23
ATOM     23  N   UNL     1      50.382   5.347  17.990  0.00  0.00    +0.000 N 
ATOM     24  C   UNL     1      51.622   5.306  17.407  0.00  0.00    +0.000 C 
ATOM     25  O   UNL     1      51.972   6.120  16.556  0.00  0.00    +0.000 OA
ATOM     38  H   UNL     1      50.040   4.536  18.497  0.00  0.00    +0.000 HD
BRANCH  24  26
ATOM     26  C   UNL     1      52.541   4.272  17.896  0.00  0.00    +0.000 A 
ATOM     27  C   UNL     1      53.748   4.643  18.474  0.00  0.00    +0.000 A 
ATOM     28  S   UNL     1      54.673   3.322  19.028  0.00  0.00    +0.000 S 
ATOM     29  C   UNL     1      53.517   2.207  18.466  0.00  0.00    +0.000 A 
ATOM     30  N   UNL     1      53.716   0.867  18.599  0.00  0.00    +0.000 NA
ATOM     31  C   UNL     1      52.780   0.138  18.098  0.00  0.00    +0.000 A 
ATOM     32  N   UNL     1      51.654   0.622  17.481  0.00  0.00    +0.000 N 
ATOM     33  C   UNL     1      51.398   1.967  17.350  0.00  0.00    +0.000 A 
ATOM     34  O   UNL     1      50.361   2.369  16.831  0.00  0.00    +0.000 OA
ATOM     35  C   UNL     1      52.429   2.832  17.884  0.00  0.00    +0.000 A 
ATOM     39  H   UNL     1      50.951  -0.004  17.116  0.00  0.00    +0.000 HD
ENDBRANCH  24  26
ENDBRANCH  22  23
ENDBRANCH  21  22
TORSDOF 14
ENDMDL
MODEL 6
REMARK VINA RESULT:    -6.064      1.750      2.310
REMARK INTER + INTRA:         -14.590
REMARK INTER:                 -11.871
REMARK INTRA:                  -2.719
REMARK UNBOUND:                -3.564
REMARK  Name = 
REMARK  15 active torsions:
REMARK  status: ('A' for Active; 'I' for Inactive)
REMARK    1  A    between atoms: C_1  and  C_2
REMARK    2  A    between atoms: C_2  and  C_3
REMARK    3  A    between atoms: C_3  and  C_4
REMARK    4  A    between atoms: C_4  and  C_5
REMARK    5  A    between atoms: C_5  and  C_6
REMARK    6  A    between atoms: C_6  and  C_7
REMARK    7  A    between atoms: C_7  and  C_8
REMARK    8  A    between atoms: C_8  and  N_9
REMARK    9  A    between atoms: N_9  and  C_10
REMARK   10  A    between atoms: N_9  and  C_17
REMARK   11  A    between atoms: C_10  and  C_11
REMARK   12  A    between atoms: C_17  and  C_18
REMARK   13  A    between atoms: C_21  and  C_22
REMARK   14  A    between atoms: C_22  and  N_23
REMARK   15  A    between atoms: C_24  and  C_26
REMARK                            x       y       z     vdW  Elec       q    Type
REMARK                         _______ _______ _______ _____ _____    ______ ____
ROOT
ATOM     18  C   UNL     1      45.815   6.857  11.441  0.00  0.00    +0.000 A 
ATOM     19  C   UNL     1      45.260   7.774  12.344  0.00  0.00    +0.000 A 
ATOM     20  C   UNL     1      46.080   8.517  13.200  0.00  0.00    +0.000 A 
ATOM     21  C   UNL     1      47.471   8.351  13.176  0.00  0.00    +0.000 A 
ATOM     36  C   UNL     1      48.016   7.363  12.344  0.00  0.00    +0.000 A 
ATOM     37  C   UNL     1      47.198   6.628  11.480  0.00  0.00    +0.000 A 
ENDROOT
BRANCH  18  17
ATOM     17  C   UNL     1      44.942   6.185  10.391  0.00  0.00    +0.000 C 
BRANCH  17   9
ATOM      9  N   UNL     1      45.009   4.696  10.436  0.00  0.00    +0.000 NA
BRANCH   9   8
ATOM      8  C   UNL     1      44.075   4.206  11.485  0.00  0.00    +0.000 C 
BRANCH   8   7
ATOM      7  C   UNL     1      44.622   3.292  12.592  0.00  0.00    +0.000 C 
BRANCH   7   6
ATOM      6  C   UNL     1      46.105   3.457  12.930  0.00  0.00    +0.000 C 
BRANCH   6   5
ATOM      5  C   UNL     1      46.226   4.431  14.111  0.00  0.00    +0.000 C 
BRANCH   5   4
ATOM      4  C   UNL     1      47.373   4.092  15.058  0.00  0.00    +0.000 C 
BRANCH   4   3
ATOM      3  C   UNL     1      46.876   4.029  16.506  0.00  0.00    +0.000 C 
BRANCH   3   2
ATOM      1  C   UNL     1      48.775   2.365  16.483  0.00  0.00    +0.000 C 
ATOM      2  C   UNL     1      47.674   3.007  17.311  0.00  0.00    +0.000 C 
ENDBRANCH   3   2
ENDBRANCH   4   3
ENDBRANCH   5   4
ENDBRANCH   6   5
ENDBRANCH   7   6
ENDBRANCH   8   7
ENDBRANCH   9   8
BRANCH   9  10
ATOM     10  C   UNL     1      44.641   4.129   9.120  0.00  0.00    +0.000 C 
BRANCH  10  11
ATOM     11  C   UNL     1      45.624   3.183   8.446  0.00  0.00    +0.000 A 
ATOM     12  C   UNL     1      45.677   1.814   8.737  0.00  0.00    +0.000 A 
ATOM     13  C   UNL     1      46.430   0.945   7.938  0.00  0.00    +0.000 A 
ATOM     14  C   UNL     1      47.136   1.434   6.839  0.00  0.00    +0.000 A 
ATOM     15  C   UNL     1      47.124   2.797   6.560  0.00  0.00    +0.000 A 
ATOM     16  C   UNL     1      46.375   3.665   7.357  0.00  0.00    +0.000 A 
ENDBRANCH  10  11
ENDBRANCH   9  10
ENDBRANCH  17   9
ENDBRANCH  18  17
BRANCH  21  22
ATOM     22  C   UNL     1      48.367   9.225  14.012  0.00  0.00    +0.000 C 
BRANCH  22  23
ATOM     23  N   UNL     1      49.638   8.604  14.275  0.00  0.00    +0.000 N 
ATOM     24  C   UNL     1      50.023   8.305  15.557  0.00  0.00    +0.000 C 
ATOM     25  O   UNL     1      49.291   8.507  16.523  0.00  0.00    +0.000 OA
ATOM     38  H   UNL     1      50.338   8.654  13.541  0.00  0.00    +0.000 HD
BRANCH  24  26
ATOM     26  C   UNL     1      51.336   7.671  15.714  0.00  0.00    +0.000 A 
ATOM     27  C   UNL     1      52.434   8.187  15.038  0.00  0.00    +0.000 A 
ATOM     28  S   UNL     1      53.888   7.360  15.367  0.00  0.00    +0.000 S 
ATOM     29  C   UNL     1      53.091   6.251  16.383  0.00  0.00    +0.000 A 
ATOM     30  N   UNL     1      53.772   5.235  16.978  0.00  0.00    +0.000 NA
ATOM     31  C   UNL     1      53.041   4.449  17.688  0.00  0.00    +0.000 A 
ATOM     32  N   UNL     1      51.688   4.588  17.870  0.00  0.00    +0.000 N 
ATOM     33  C   UNL     1      50.965   5.615  17.312  0.00  0.00    +0.000 A 
ATOM     34  O   UNL     1      49.762   5.737  17.527  0.00  0.00    +0.000 OA
ATOM     35  C   UNL     1      51.739   6.520  16.488  0.00  0.00    +0.000 A 
ATOM     39  H   UNL     1      51.172   3.941  18.450  0.00  0.00    +0.000 HD
ENDBRANCH  24  26
ENDBRANCH  22  23
ENDBRANCH  21  22
TORSDOF 14
ENDMDL
MODEL 7
REMARK VINA RESULT:    -6.047      1.852      2.579
REMARK INTER + INTRA:         -14.560
REMARK INTER:                 -11.850
REMARK INTRA:                  -2.710
REMARK UNBOUND:                -3.564
REMARK  Name = 
REMARK  15 active torsions:
REMARK  status: ('A' for Active; 'I' for Inactive)
REMARK    1  A    between atoms: C_1  and  C_2
REMARK    2  A    between atoms: C_2  and  C_3
REMARK    3  A    between atoms: C_3  and  C_4
REMARK    4  A    between atoms: C_4  and  C_5
REMARK    5  A    between atoms: C_5  and  C_6
REMARK    6  A    between atoms: C_6  and  C_7
REMARK    7  A    between atoms: C_7  and  C_8
REMARK    8  A    between atoms: C_8  and  N_9
REMARK    9  A    between atoms: N_9  and  C_10
REMARK   10  A    between atoms: N_9  and  C_17
REMARK   11  A    between atoms: C_10  and  C_11
REMARK   12  A    between atoms: C_17  and  C_18
REMARK   13  A    between atoms: C_21  and  C_22
REMARK   14  A    between atoms: C_22  and  N_23
REMARK   15  A    between atoms: C_24  and  C_26
REMARK                            x       y       z     vdW  Elec       q    Type
REMARK                         _______ _______ _______ _____ _____    ______ ____
ROOT
ATOM     18  C   UNL     1      45.389   6.582  11.322  0.00  0.00    +0.000 A 
ATOM     19  C   UNL     1      44.988   7.523  12.282  0.00  0.00    +0.000 A 
ATOM     20  C   UNL     1      45.937   8.265  12.992  0.00  0.00    +0.000 A 
ATOM     21  C   UNL     1      47.306   8.074  12.765  0.00  0.00    +0.000 A 
ATOM     36  C   UNL     1      47.707   7.064  11.880  0.00  0.00    +0.000 A 
ATOM     37  C   UNL     1      46.759   6.330  11.160  0.00  0.00    +0.000 A 
ENDROOT
BRANCH  18  17
ATOM     17  C   UNL     1      44.360   5.910  10.426  0.00  0.00    +0.000 C 
BRANCH  17   9
ATOM      9  N   UNL     1      44.689   4.488  10.116  0.00  0.00    +0.000 NA
BRANCH   9   8
ATOM      8  C   UNL     1      43.783   3.605  10.898  0.00  0.00    +0.000 C 
BRANCH   8   7
ATOM      7  C   UNL     1      43.374   4.035  12.315  0.00  0.00    +0.000 C 
BRANCH   7   6
ATOM      6  C   UNL     1      44.485   4.036  13.366  0.00  0.00    +0.000 C 
BRANCH   6   5
ATOM      5  C   UNL     1      45.693   3.279  12.793  0.00  0.00    +0.000 C 
BRANCH   5   4
ATOM      4  C   UNL     1      46.934   3.366  13.674  0.00  0.00    +0.000 C 
BRANCH   4   3
ATOM      3  C   UNL     1      46.913   4.651  14.509  0.00  0.00    +0.000 C 
BRANCH   3   2
ATOM      1  C   UNL     1      47.999   3.119  16.196  0.00  0.00    +0.000 C 
ATOM      2  C   UNL     1      47.121   4.342  15.989  0.00  0.00    +0.000 C 
ENDBRANCH   3   2
ENDBRANCH   4   3
ENDBRANCH   5   4
ENDBRANCH   6   5
ENDBRANCH   7   6
ENDBRANCH   8   7
ENDBRANCH   9   8
BRANCH   9  10
ATOM     10  C   UNL     1      44.528   4.232   8.668  0.00  0.00    +0.000 C 
BRANCH  10  11
ATOM     11  C   UNL     1      45.514   3.291   7.992  0.00  0.00    +0.000 A 
ATOM     12  C   UNL     1      46.541   3.745   7.154  0.00  0.00    +0.000 A 
ATOM     13  C   UNL     1      47.558   2.877   6.740  0.00  0.00    +0.000 A 
ATOM     14  C   UNL     1      47.562   1.547   7.159  0.00  0.00    +0.000 A 
ATOM     15  C   UNL     1      46.528   1.071   7.959  0.00  0.00    +0.000 A 
ATOM     16  C   UNL     1      45.512   1.935   8.372  0.00  0.00    +0.000 A 
ENDBRANCH  10  11
ENDBRANCH   9  10
ENDBRANCH  17   9
ENDBRANCH  18  17
BRANCH  21  22
ATOM     22  C   UNL     1      48.330   8.946  13.444  0.00  0.00    +0.000 C 
BRANCH  22  23
ATOM     23  N   UNL     1      49.364   8.172  14.079  0.00  0.00    +0.000 N 
ATOM     24  C   UNL     1      49.358   7.971  15.435  0.00  0.00    +0.000 C 
ATOM     25  O   UNL     1      48.457   8.394  16.155  0.00  0.00    +0.000 OA
ATOM     38  H   UNL     1      50.222   8.029  13.556  0.00  0.00    +0.000 HD
BRANCH  24  26
ATOM     26  C   UNL     1      50.457   7.167  15.982  0.00  0.00    +0.000 A 
ATOM     27  C   UNL     1      50.185   6.177  16.916  0.00  0.00    +0.000 A 
ATOM     28  S   UNL     1      51.567   5.310  17.412  0.00  0.00    +0.000 S 
ATOM     29  C   UNL     1      52.583   6.265  16.436  0.00  0.00    +0.000 A 
ATOM     30  N   UNL     1      53.929   6.063  16.420  0.00  0.00    +0.000 NA
ATOM     31  C   UNL     1      54.580   6.879  15.667  0.00  0.00    +0.000 A 
ATOM     32  N   UNL     1      54.012   7.877  14.917  0.00  0.00    +0.000 N 
ATOM     33  C   UNL     1      52.656   8.099  14.880  0.00  0.00    +0.000 A 
ATOM     34  O   UNL     1      52.174   8.973  14.166  0.00  0.00    +0.000 OA
ATOM     35  C   UNL     1      51.877   7.217  15.724  0.00  0.00    +0.000 A 
ATOM     39  H   UNL     1      54.580   8.479  14.338  0.00  0.00    +0.000 HD
ENDBRANCH  24  26
ENDBRANCH  22  23
ENDBRANCH  21  22
TORSDOF 14
ENDMDL
MODEL 8
REMARK VINA RESULT:    -5.959      2.903      8.916
REMARK INTER + INTRA:         -14.400
REMARK INTER:                 -10.659
REMARK INTRA:                  -3.740
REMARK UNBOUND:                -3.564
REMARK  Name = 
REMARK  15 active torsions:
REMARK  status: ('A' for Active; 'I' for Inactive)
REMARK    1  A    between atoms: C_1  and  C_2
REMARK    2  A    between atoms: C_2  and  C_3
REMARK    3  A    between atoms: C_3  and  C_4
REMARK    4  A    between atoms: C_4  and  C_5
REMARK    5  A    between atoms: C_5  and  C_6
REMARK    6  A    between atoms: C_6  and  C_7
REMARK    7  A    between atoms: C_7  and  C_8
REMARK    8  A    between atoms: C_8  and  N_9
REMARK    9  A    between atoms: N_9  and  C_10
REMARK   10  A    between atoms: N_9  and  C_17
REMARK   11  A    between atoms: C_10  and  C_11
REMARK   12  A    between atoms: C_17  and  C_18
REMARK   13  A    between atoms: C_21  and  C_22
REMARK   14  A    between atoms: C_22  and  N_23
REMARK   15  A    between atoms: C_24  and  C_26
REMARK                            x       y       z     vdW  Elec       q    Type
REMARK                         _______ _______ _______ _____ _____    ______ ____
ROOT
ATOM     18  C   UNL     1      50.284   8.265  15.470  0.00  0.00    +0.000 A 
ATOM     19  C   UNL     1      49.732   7.042  15.066  0.00  0.00    +0.000 A 
ATOM     20  C   UNL     1      48.822   6.986  14.005  0.00  0.00    +0.000 A 
ATOM     21  C   UNL     1      48.440   8.155  13.332  0.00  0.00    +0.000 A 
ATOM     36  C   UNL     1      48.916   9.387  13.801  0.00  0.00    +0.000 A 
ATOM     37  C   UNL     1      49.834   9.442  14.855  0.00  0.00    +0.000 A 
ENDROOT
BRANCH  18  17
ATOM     17  C   UNL     1      51.404   8.302  16.500  0.00  0.00    +0.000 C 
BRANCH  17   9
ATOM      9  N   UNL     1      51.385   7.136  17.430  0.00  0.00    +0.000 NA
BRANCH   9   8
ATOM      8  C   UNL     1      52.733   6.507  17.436  0.00  0.00    +0.000 C 
BRANCH   8   7
ATOM      7  C   UNL     1      52.832   4.974  17.451  0.00  0.00    +0.000 C 
BRANCH   7   6
ATOM      6  C   UNL     1      51.922   4.250  18.445  0.00  0.00    +0.000 C 
BRANCH   6   5
ATOM      5  C   UNL     1      50.946   3.368  17.652  0.00  0.00    +0.000 C 
BRANCH   5   4
ATOM      4  C   UNL     1      49.572   4.003  17.468  0.00  0.00    +0.000 C 
BRANCH   4   3
ATOM      3  C   UNL     1      48.465   3.000  17.805  0.00  0.00    +0.000 C 
BRANCH   3   2
ATOM      1  C   UNL     1      47.250   4.367  16.065  0.00  0.00    +0.000 C 
ATOM      2  C   UNL     1      47.111   3.492  17.299  0.00  0.00    +0.000 C 
ENDBRANCH   3   2
ENDBRANCH   4   3
ENDBRANCH   5   4
ENDBRANCH   6   5
ENDBRANCH   7   6
ENDBRANCH   8   7
ENDBRANCH   9   8
BRANCH   9  10
ATOM     10  C   UNL     1      51.023   7.579  18.795  0.00  0.00    +0.000 C 
BRANCH  10  11
ATOM     11  C   UNL     1      49.678   7.144  19.356  0.00  0.00    +0.000 A 
ATOM     12  C   UNL     1      48.471   7.351  18.676  0.00  0.00    +0.000 A 
ATOM     13  C   UNL     1      47.292   6.738  19.115  0.00  0.00    +0.000 A 
ATOM     14  C   UNL     1      47.306   5.909  20.237  0.00  0.00    +0.000 A 
ATOM     15  C   UNL     1      48.489   5.723  20.945  0.00  0.00    +0.000 A 
ATOM     16  C   UNL     1      49.665   6.336  20.509  0.00  0.00    +0.000 A 
ENDBRANCH  10  11
ENDBRANCH   9  10
ENDBRANCH  17   9
ENDBRANCH  18  17
BRANCH  21  22
ATOM     22  C   UNL     1      47.550   8.091  12.119  0.00  0.00    +0.000 C 
BRANCH  22  23
ATOM     23  N   UNL     1      46.874   6.826  12.010  0.00  0.00    +0.000 N 
ATOM     24  C   UNL     1      45.541   6.766  11.695  0.00  0.00    +0.000 C 
ATOM     25  O   UNL     1      44.882   7.772  11.446  0.00  0.00    +0.000 OA
ATOM     38  H   UNL     1      47.323   6.023  12.441  0.00  0.00    +0.000 HD
BRANCH  24  26
ATOM     26  C   UNL     1      44.949   5.426  11.608  0.00  0.00    +0.000 A 
ATOM     27  C   UNL     1      44.308   4.885  12.715  0.00  0.00    +0.000 A 
ATOM     28  S   UNL     1      43.641   3.343  12.430  0.00  0.00    +0.000 S 
ATOM     29  C   UNL     1      44.232   3.322  10.834  0.00  0.00    +0.000 A 
ATOM     30  N   UNL     1      44.031   2.244  10.028  0.00  0.00    +0.000 NA
ATOM     31  C   UNL     1      44.563   2.347   8.860  0.00  0.00    +0.000 A 
ATOM     32  N   UNL     1      45.273   3.433   8.415  0.00  0.00    +0.000 N 
ATOM     33  C   UNL     1      45.475   4.555   9.183  0.00  0.00    +0.000 A 
ATOM     34  O   UNL     1      46.078   5.528   8.741  0.00  0.00    +0.000 OA
ATOM     35  C   UNL     1      44.910   4.484  10.514  0.00  0.00    +0.000 A 
ATOM     39  H   UNL     1      45.657   3.456   7.481  0.00  0.00    +0.000 HD
ENDBRANCH  24  26
ENDBRANCH  22  23
ENDBRANCH  21  22
TORSDOF 14
ENDMDL
MODEL 9
REMARK VINA RESULT:    -5.908      3.137      8.702
REMARK INTER + INTRA:         -14.306
REMARK INTER:                 -10.429
REMARK INTRA:                  -3.877
REMARK UNBOUND:                -3.564
REMARK  Name = 
REMARK  15 active torsions:
REMARK  status: ('A' for Active; 'I' for Inactive)
REMARK    1  A    between atoms: C_1  and  C_2
REMARK    2  A    between atoms: C_2  and  C_3
REMARK    3  A    between atoms: C_3  and  C_4
REMARK    4  A    between atoms: C_4  and  C_5
REMARK    5  A    between atoms: C_5  and  C_6
REMARK    6  A    between atoms: C_6  and  C_7
REMARK    7  A    between atoms: C_7  and  C_8
REMARK    8  A    between atoms: C_8  and  N_9
REMARK    9  A    between atoms: N_9  and  C_10
REMARK   10  A    between atoms: N_9  and  C_17
REMARK   11  A    between atoms: C_10  and  C_11
REMARK   12  A    between atoms: C_17  and  C_18
REMARK   13  A    between atoms: C_21  and  C_22
REMARK   14  A    between atoms: C_22  and  N_23
REMARK   15  A    between atoms: C_24  and  C_26
REMARK                            x       y       z     vdW  Elec       q    Type
REMARK                         _______ _______ _______ _____ _____    ______ ____
ROOT
ATOM     18  C   UNL     1      48.962   7.824  16.048  0.00  0.00    +0.000 A 
ATOM     19  C   UNL     1      48.457   9.015  15.507  0.00  0.00    +0.000 A 
ATOM     20  C   UNL     1      47.900   9.035  14.224  0.00  0.00    +0.000 A 
ATOM     21  C   UNL     1      47.846   7.866  13.452  0.00  0.00    +0.000 A 
ATOM     36  C   UNL     1      48.440   6.701  13.954  0.00  0.00    +0.000 A 
ATOM     37  C   UNL     1      48.986   6.677  15.241  0.00  0.00    +0.000 A 
ENDROOT
BRANCH  18  17
ATOM     17  C   UNL     1      49.400   7.764  17.504  0.00  0.00    +0.000 C 
BRANCH  17   9
ATOM      9  N   UNL     1      50.483   6.769  17.751  0.00  0.00    +0.000 NA
BRANCH   9   8
ATOM      8  C   UNL     1      51.665   7.477  18.312  0.00  0.00    +0.000 C 
BRANCH   8   7
ATOM      7  C   UNL     1      53.004   7.383  17.567  0.00  0.00    +0.000 C 
BRANCH   7   6
ATOM      6  C   UNL     1      52.921   7.092  16.067  0.00  0.00    +0.000 C 
BRANCH   6   5
ATOM      5  C   UNL     1      52.642   8.412  15.334  0.00  0.00    +0.000 C 
BRANCH   5   4
ATOM      4  C   UNL     1      52.004   8.218  13.963  0.00  0.00    +0.000 C 
BRANCH   4   3
ATOM      3  C   UNL     1      51.831   9.565  13.253  0.00  0.00    +0.000 C 
BRANCH   3   2
ATOM      1  C   UNL     1      50.943   8.151  11.359  0.00  0.00    +0.000 C 
ATOM      2  C   UNL     1      50.809   9.457  12.123  0.00  0.00    +0.000 C 
ENDBRANCH   3   2
ENDBRANCH   4   3
ENDBRANCH   5   4
ENDBRANCH   6   5
ENDBRANCH   7   6
ENDBRANCH   8   7
ENDBRANCH   9   8
BRANCH   9  10
ATOM     10  C   UNL     1      50.014   5.730  18.696  0.00  0.00    +0.000 C 
BRANCH  10  11
ATOM     11  C   UNL     1      49.534   4.405  18.124  0.00  0.00    +0.000 A 
ATOM     12  C   UNL     1      48.196   4.169  17.780  0.00  0.00    +0.000 A 
ATOM     13  C   UNL     1      47.839   3.029  17.051  0.00  0.00    +0.000 A 
ATOM     14  C   UNL     1      48.814   2.114  16.654  0.00  0.00    +0.000 A 
ATOM     15  C   UNL     1      50.141   2.314  17.021  0.00  0.00    +0.000 A 
ATOM     16  C   UNL     1      50.498   3.450  17.750  0.00  0.00    +0.000 A 
ENDBRANCH  10  11
ENDBRANCH   9  10
ENDBRANCH  17   9
ENDBRANCH  18  17
BRANCH  21  22
ATOM     22  C   UNL     1      47.147   7.855  12.118  0.00  0.00    +0.000 C 
BRANCH  22  23
ATOM     23  N   UNL     1      46.555   6.576  11.828  0.00  0.00    +0.000 N 
ATOM     24  C   UNL     1      45.196   6.441  11.712  0.00  0.00    +0.000 C 
ATOM     25  O   UNL     1      44.433   7.400  11.799  0.00  0.00    +0.000 OA
ATOM     38  H   UNL     1      47.128   5.753  11.993  0.00  0.00    +0.000 HD
BRANCH  24  26
ATOM     26  C   UNL     1      44.696   5.094  11.414  0.00  0.00    +0.000 A 
ATOM     27  C   UNL     1      43.966   4.404  12.373  0.00  0.00    +0.000 A 
ATOM     28  S   UNL     1      43.425   2.875  11.848  0.00  0.00    +0.000 S 
ATOM     29  C   UNL     1      44.193   3.060  10.340  0.00  0.00    +0.000 A 
ATOM     30  N   UNL     1      44.147   2.071   9.407  0.00  0.00    +0.000 NA
ATOM     31  C   UNL     1      44.800   2.328   8.328  0.00  0.00    +0.000 A 
ATOM     32  N   UNL     1      45.492   3.489   8.087  0.00  0.00    +0.000 N 
ATOM     33  C   UNL     1      45.541   4.525   8.989  0.00  0.00    +0.000 A 
ATOM     34  O   UNL     1      46.133   5.568   8.728  0.00  0.00    +0.000 OA
ATOM     35  C   UNL     1      44.835   4.280  10.229  0.00  0.00    +0.000 A 
ATOM     39  H   UNL     1      45.977   3.633   7.213  0.00  0.00    +0.000 HD
ENDBRANCH  24  26
ENDBRANCH  22  23
ENDBRANCH  21  22
TORSDOF 14
ENDMDL
