MODEL 1
REMARK VINA RESULT:    -7.017      0.000      0.000
REMARK INTER + INTRA:          -7.488
REMARK INTER:                  -7.427
REMARK INTRA:                  -0.061
REMARK UNBOUND:                -0.061
REMARK  Name = 
REMARK  1 active torsions:
REMARK  status: ('A' for Active; 'I' for Inactive)
REMARK    1  A    between atoms: C_2  and  C_4
REMARK                            x       y       z     vdW  Elec       q    Type
REMARK                         _______ _______ _______ _____ _____    ______ ____
ROOT
ATOM      4  C   UNL     1      46.359   2.154   7.925  0.00  0.00    +0.000 A 
ATOM      5  C   UNL     1      46.505   3.472   7.479  0.00  0.00    +0.000 A 
ATOM      6  C   UNL     1      45.801   4.521   8.083  0.00  0.00    +0.000 A 
ATOM      7  C   UNL     1      44.945   4.198   9.142  0.00  0.00    +0.000 A 
ATOM      8  N   UNL     1      44.128   5.008   9.898  0.00  0.00    +0.000 N 
ATOM      9  C   UNL     1      43.454   4.262  10.830  0.00  0.00    +0.000 A 
ATOM     10  C   UNL     1      43.839   2.950  10.676  0.00  0.00    +0.000 A 
ATOM     11  C   UNL     1      44.777   2.895   9.607  0.00  0.00    +0.000 A 
ATOM     12  C   UNL     1      45.492   1.853   8.987  0.00  0.00    +0.000 A 
ATOM     15  H   UNL     1      44.035   6.007   9.776  0.00  0.00    +0.000 HD
ENDROOT
BRANCH   4   2
ATOM      1  N   UNL     1      46.742  -0.235   7.661  0.00  0.00    +0.000 N 
ATOM      2  C   UNL     1      47.084   1.032   7.276  0.00  0.00    +0.000 C 
ATOM      3  O   UNL     1      47.926   1.221   6.408  0.00  0.00    +0.000 OA
ATOM     13  H   UNL     1      47.162  -0.989   7.131  0.00  0.00    +0.000 HD
ATOM     14  H   UNL     1      45.888  -0.432   8.160  0.00  0.00    +0.000 HD
ENDBRANCH   4   2
TORSDOF 1
ENDMDL
MODEL 2
REMARK VINA RESULT:    -6.524      2.587      4.363
REMARK INTER + INTRA:          -6.966
REMARK INTER:                  -6.907
REMARK INTRA:                  -0.059
REMARK UNBOUND:                -0.061
REMARK  Name = 
REMARK  1 active torsions:
REMARK  status: ('A' for Active; 'I' for Inactive)
REMARK    1  A    between atoms: C_2  and  C_4
REMARK                            x       y       z     vdW  Elec       q    Type
REMARK                         _______ _______ _______ _____ _____    ______ ____
ROOT
ATOM      4  C   UNL     1      44.699   3.326   9.613  0.00  0.00    +0.000 A 
ATOM      5  C   UNL     1      45.136   4.540   9.073  0.00  0.00    +0.000 A 
ATOM      6  C   UNL     1      46.093   4.573   8.052  0.00  0.00    +0.000 A 
ATOM      7  C   UNL     1      46.598   3.349   7.601  0.00  0.00    +0.000 A 
ATOM      8  N   UNL     1      47.544   3.082   6.638  0.00  0.00    +0.000 N 
ATOM      9  C   UNL     1      47.739   1.730   6.527  0.00  0.00    +0.000 A 
ATOM     10  C   UNL     1      46.907   1.110   7.430  0.00  0.00    +0.000 A 
ATOM     11  C   UNL     1      46.184   2.123   8.121  0.00  0.00    +0.000 A 
ATOM     12  C   UNL     1      45.222   2.109   9.147  0.00  0.00    +0.000 A 
ATOM     15  H   UNL     1      48.030   3.785   6.098  0.00  0.00    +0.000 HD
ENDROOT
BRANCH   4   2
ATOM      1  N   UNL     1      43.670   2.150  11.480  0.00  0.00    +0.000 N 
ATOM      2  C   UNL     1      43.701   3.281  10.712  0.00  0.00    +0.000 C 
ATOM      3  O   UNL     1      42.958   4.225  10.951  0.00  0.00    +0.000 OA
ATOM     13  H   UNL     1      43.065   2.180  12.292  0.00  0.00    +0.000 HD
ATOM     14  H   UNL     1      44.428   1.484  11.484  0.00  0.00    +0.000 HD
ENDBRANCH   4   2
TORSDOF 1
ENDMDL
MODEL 3
REMARK VINA RESULT:    -6.463      2.452      4.462
REMARK INTER + INTRA:          -6.902
REMARK INTER:                  -6.842
REMARK INTRA:                  -0.060
REMARK UNBOUND:                -0.061
REMARK  Name = 
REMARK  1 active torsions:
REMARK  status: ('A' for Active; 'I' for Inactive)
REMARK    1  A    between atoms: C_2  and  C_4
REMARK                            x       y       z     vdW  Elec       q    Type
REMARK                         _______ _______ _______ _____ _____    ______ ____
ROOT
ATOM      4  C   UNL     1      44.383   3.287   9.970  0.00  0.00    +0.000 A 
ATOM      5  C   UNL     1      44.798   4.523   9.462  0.00  0.00    +0.000 A 
ATOM      6  C   UNL     1      45.754   4.599   8.442  0.00  0.00    +0.000 A 
ATOM      7  C   UNL     1      46.280   3.397   7.958  0.00  0.00    +0.000 A 
ATOM      8  N   UNL     1      47.230   3.172   6.988  0.00  0.00    +0.000 N 
ATOM      9  C   UNL     1      47.449   1.827   6.842  0.00  0.00    +0.000 A 
ATOM     10  C   UNL     1      46.629   1.169   7.728  0.00  0.00    +0.000 A 
ATOM     11  C   UNL     1      45.889   2.150   8.446  0.00  0.00    +0.000 A 
ATOM     12  C   UNL     1      44.928   2.093   9.472  0.00  0.00    +0.000 A 
ATOM     15  H   UNL     1      47.703   3.898   6.466  0.00  0.00    +0.000 HD
ENDROOT
BRANCH   4   2
ATOM      1  N   UNL     1      42.824   4.365  11.497  0.00  0.00    +0.000 N 
ATOM      2  C   UNL     1      43.388   3.196  11.067  0.00  0.00    +0.000 C 
ATOM      3  O   UNL     1      43.052   2.121  11.549  0.00  0.00    +0.000 OA
ATOM     13  H   UNL     1      42.068   4.276  12.164  0.00  0.00    +0.000 HD
ATOM     14  H   UNL     1      42.874   5.215  10.954  0.00  0.00    +0.000 HD
ENDBRANCH   4   2
TORSDOF 1
ENDMDL
MODEL 4
REMARK VINA RESULT:    -6.178      1.522      2.167
REMARK INTER + INTRA:          -6.600
REMARK INTER:                  -6.545
REMARK INTRA:                  -0.055
REMARK UNBOUND:                -0.061
REMARK  Name = 
REMARK  1 active torsions:
REMARK  status: ('A' for Active; 'I' for Inactive)
REMARK    1  A    between atoms: C_2  and  C_4
REMARK                            x       y       z     vdW  Elec       q    Type
REMARK                         _______ _______ _______ _____ _____    ______ ____
ROOT
ATOM      4  C   UNL     1      46.479   2.523   7.480  0.00  0.00    +0.000 A 
ATOM      5  C   UNL     1      45.898   1.421   8.117  0.00  0.00    +0.000 A 
ATOM      6  C   UNL     1      44.979   1.593   9.160  0.00  0.00    +0.000 A 
ATOM      7  C   UNL     1      44.674   2.903   9.543  0.00  0.00    +0.000 A 
ATOM      8  N   UNL     1      43.834   3.364  10.531  0.00  0.00    +0.000 N 
ATOM      9  C   UNL     1      43.844   4.734  10.560  0.00  0.00    +0.000 A 
ATOM     10  C   UNL     1      44.702   5.169   9.576  0.00  0.00    +0.000 A 
ATOM     11  C   UNL     1      45.238   4.021   8.929  0.00  0.00    +0.000 A 
ATOM     12  C   UNL     1      46.160   3.830   7.884  0.00  0.00    +0.000 A 
ATOM     15  H   UNL     1      43.295   2.774  11.150  0.00  0.00    +0.000 HD
ENDROOT
BRANCH   4   2
ATOM      1  N   UNL     1      47.385   3.210   5.328  0.00  0.00    +0.000 N 
ATOM      2  C   UNL     1      47.472   2.352   6.389  0.00  0.00    +0.000 C 
ATOM      3  O   UNL     1      48.356   1.507   6.444  0.00  0.00    +0.000 OA
ATOM     13  H   UNL     1      48.134   3.155   4.649  0.00  0.00    +0.000 HD
ATOM     14  H   UNL     1      46.855   4.068   5.374  0.00  0.00    +0.000 HD
ENDBRANCH   4   2
TORSDOF 1
ENDMDL
MODEL 5
REMARK VINA RESULT:    -6.037      2.325      4.854
REMARK INTER + INTRA:          -6.451
REMARK INTER:                  -6.391
REMARK INTRA:                  -0.060
REMARK UNBOUND:                -0.061
REMARK  Name = 
REMARK  1 active torsions:
REMARK  status: ('A' for Active; 'I' for Inactive)
REMARK    1  A    between atoms: C_2  and  C_4
REMARK                            x       y       z     vdW  Elec       q    Type
REMARK                         _______ _______ _______ _____ _____    ______ ____
ROOT
ATOM      4  C   UNL     1      44.710   3.406   9.349  0.00  0.00    +0.000 A 
ATOM      5  C   UNL     1      44.798   2.015   9.468  0.00  0.00    +0.000 A 
ATOM      6  C   UNL     1      45.581   1.264   8.584  0.00  0.00    +0.000 A 
ATOM      7  C   UNL     1      46.262   1.955   7.576  0.00  0.00    +0.000 A 
ATOM      8  N   UNL     1      47.076   1.483   6.572  0.00  0.00    +0.000 N 
ATOM      9  C   UNL     1      47.527   2.521   5.800  0.00  0.00    +0.000 A 
ATOM     10  C   UNL     1      46.999   3.685   6.310  0.00  0.00    +0.000 A 
ATOM     11  C   UNL     1      46.191   3.340   7.430  0.00  0.00    +0.000 A 
ATOM     12  C   UNL     1      45.399   4.079   8.327  0.00  0.00    +0.000 A 
ATOM     15  H   UNL     1      47.300   0.508   6.423  0.00  0.00    +0.000 HD
ENDROOT
BRANCH   4   2
ATOM      1  N   UNL     1      44.040   5.566  10.250  0.00  0.00    +0.000 N 
ATOM      2  C   UNL     1      43.865   4.210  10.267  0.00  0.00    +0.000 C 
ATOM      3  O   UNL     1      43.019   3.695  10.987  0.00  0.00    +0.000 OA
ATOM     13  H   UNL     1      43.381   6.108  10.796  0.00  0.00    +0.000 HD
ATOM     14  H   UNL     1      44.522   6.035   9.497  0.00  0.00    +0.000 HD
ENDBRANCH   4   2
TORSDOF 1
ENDMDL
MODEL 6
REMARK VINA RESULT:    -5.696      3.014      5.378
REMARK INTER + INTRA:          -6.090
REMARK INTER:                  -6.030
REMARK INTRA:                  -0.059
REMARK UNBOUND:                -0.061
REMARK  Name = 
REMARK  1 active torsions:
REMARK  status: ('A' for Active; 'I' for Inactive)
REMARK    1  A    between atoms: C_2  and  C_4
REMARK                            x       y       z     vdW  Elec       q    Type
REMARK                         _______ _______ _______ _____ _____    ______ ____
ROOT
ATOM      4  C   UNL     1      43.610   4.490  10.997  0.00  0.00    +0.000 A 
ATOM      5  C   UNL     1      43.482   3.124  11.271  0.00  0.00    +0.000 A 
ATOM      6  C   UNL     1      44.139   2.167  10.490  0.00  0.00    +0.000 A 
ATOM      7  C   UNL     1      44.920   2.628   9.424  0.00  0.00    +0.000 A 
ATOM      8  N   UNL     1      45.652   1.926   8.493  0.00  0.00    +0.000 N 
ATOM      9  C   UNL     1      46.259   2.790   7.619  0.00  0.00    +0.000 A 
ATOM     10  C   UNL     1      45.917   4.071   7.988  0.00  0.00    +0.000 A 
ATOM     11  C   UNL     1      45.064   3.982   9.124  0.00  0.00    +0.000 A 
ATOM     12  C   UNL     1      44.395   4.930   9.920  0.00  0.00    +0.000 A 
ATOM     15  H   UNL     1      45.723   0.919   8.457  0.00  0.00    +0.000 HD
ENDROOT
BRANCH   4   2
ATOM      1  N   UNL     1      42.661   6.721  11.213  0.00  0.00    +0.000 N 
ATOM      2  C   UNL     1      42.898   5.512  11.806  0.00  0.00    +0.000 C 
ATOM      3  O   UNL     1      42.505   5.280  12.942  0.00  0.00    +0.000 OA
ATOM     13  H   UNL     1      42.078   7.365  11.733  0.00  0.00    +0.000 HD
ATOM     14  H   UNL     1      42.727   6.850  10.214  0.00  0.00    +0.000 HD
ENDBRANCH   4   2
TORSDOF 1
ENDMDL
MODEL 7
REMARK VINA RESULT:    -5.570      4.251      5.453
REMARK INTER + INTRA:          -5.957
REMARK INTER:                  -5.903
REMARK INTRA:                  -0.054
REMARK UNBOUND:                -0.061
REMARK  Name = 
REMARK  1 active torsions:
REMARK  status: ('A' for Active; 'I' for Inactive)
REMARK    1  A    between atoms: C_2  and  C_4
REMARK                            x       y       z     vdW  Elec       q    Type
REMARK                         _______ _______ _______ _____ _____    ______ ____
ROOT
ATOM      4  C   UNL     1      46.563   4.546  13.518  0.00  0.00    +0.000 A 
ATOM      5  C   UNL     1      46.836   5.805  12.972  0.00  0.00    +0.000 A 
ATOM      6  C   UNL     1      46.262   6.204  11.759  0.00  0.00    +0.000 A 
ATOM      7  C   UNL     1      45.415   5.296  11.114  0.00  0.00    +0.000 A 
ATOM      8  N   UNL     1      44.738   5.410   9.921  0.00  0.00    +0.000 N 
ATOM      9  C   UNL     1      44.027   4.266   9.670  0.00  0.00    +0.000 A 
ATOM     10  C   UNL     1      44.244   3.397  10.715  0.00  0.00    +0.000 A 
ATOM     11  C   UNL     1      45.126   4.034  11.632  0.00  0.00    +0.000 A 
ATOM     12  C   UNL     1      45.712   3.649  12.852  0.00  0.00    +0.000 A 
ATOM     15  H   UNL     1      44.770   6.219   9.316  0.00  0.00    +0.000 HD
ENDROOT
BRANCH   4   2
ATOM      1  N   UNL     1      47.172   4.990  15.832  0.00  0.00    +0.000 N 
ATOM      2  C   UNL     1      47.184   4.103  14.792  0.00  0.00    +0.000 C 
ATOM      3  O   UNL     1      47.656   2.982  14.927  0.00  0.00    +0.000 OA
ATOM     13  H   UNL     1      47.496   4.635  16.724  0.00  0.00    +0.000 HD
ATOM     14  H   UNL     1      46.568   5.798  15.841  0.00  0.00    +0.000 HD
ENDBRANCH   4   2
TORSDOF 1
ENDMDL
MODEL 8
REMARK VINA RESULT:    -5.497      1.814      2.539
REMARK INTER + INTRA:          -5.879
REMARK INTER:                  -5.819
REMARK INTRA:                  -0.060
REMARK UNBOUND:                -0.061
REMARK  Name = 
REMARK  1 active torsions:
REMARK  status: ('A' for Active; 'I' for Inactive)
REMARK    1  A    between atoms: C_2  and  C_4
REMARK                            x       y       z     vdW  Elec       q    Type
REMARK                         _______ _______ _______ _____ _____    ______ ____
ROOT
ATOM      4  C   UNL     1      45.497   3.360   8.428  0.00  0.00    +0.000 A 
ATOM      5  C   UNL     1      45.090   2.122   8.935  0.00  0.00    +0.000 A 
ATOM      6  C   UNL     1      44.228   2.040  10.036  0.00  0.00    +0.000 A 
ATOM      7  C   UNL     1      43.800   3.242  10.611  0.00  0.00    +0.000 A 
ATOM      8  N   UNL     1      42.979   3.463  11.693  0.00  0.00    +0.000 N 
ATOM      9  C   UNL     1      42.834   4.808  11.911  0.00  0.00    +0.000 A 
ATOM     10  C   UNL     1      43.569   5.470  10.955  0.00  0.00    +0.000 A 
ATOM     11  C   UNL     1      44.191   4.491  10.130  0.00  0.00    +0.000 A 
ATOM     12  C   UNL     1      45.057   4.554   9.024  0.00  0.00    +0.000 A 
ATOM     15  H   UNL     1      42.554   2.735  12.251  0.00  0.00    +0.000 HD
ENDROOT
BRANCH   4   2
ATOM      1  N   UNL     1      46.595   2.335   6.513  0.00  0.00    +0.000 N 
ATOM      2  C   UNL     1      46.429   3.457   7.276  0.00  0.00    +0.000 C 
ATOM      3  O   UNL     1      47.001   4.502   6.992  0.00  0.00    +0.000 OA
ATOM     13  H   UNL     1      47.143   2.448   5.668  0.00  0.00    +0.000 HD
ATOM     14  H   UNL     1      45.952   1.559   6.554  0.00  0.00    +0.000 HD
ENDBRANCH   4   2
TORSDOF 1
ENDMDL
MODEL 9
REMARK VINA RESULT:    -5.353      3.716      5.563
REMARK INTER + INTRA:          -5.727
REMARK INTER:                  -5.672
REMARK INTRA:                  -0.054
REMARK UNBOUND:                -0.061
REMARK  Name = 
REMARK  1 active torsions:
REMARK  status: ('A' for Active; 'I' for Inactive)
REMARK    1  A    between atoms: C_2  and  C_4
REMARK                            x       y       z     vdW  Elec       q    Type
REMARK                         _______ _______ _______ _____ _____    ______ ____
ROOT
ATOM      4  C   UNL     1      45.508   5.704  12.058  0.00  0.00    +0.000 A 
ATOM      5  C   UNL     1      45.347   4.551  12.834  0.00  0.00    +0.000 A 
ATOM      6  C   UNL     1      45.056   3.317  12.241  0.00  0.00    +0.000 A 
ATOM      7  C   UNL     1      44.925   3.284  10.849  0.00  0.00    +0.000 A 
ATOM      8  N   UNL     1      44.629   2.232  10.011  0.00  0.00    +0.000 N 
ATOM      9  C   UNL     1      44.594   2.659   8.709  0.00  0.00    +0.000 A 
ATOM     10  C   UNL     1      44.873   4.006   8.701  0.00  0.00    +0.000 A 
ATOM     11  C   UNL     1      45.077   4.416  10.048  0.00  0.00    +0.000 A 
ATOM     12  C   UNL     1      45.369   5.648  10.662  0.00  0.00    +0.000 A 
ATOM     15  H   UNL     1      44.455   1.285  10.317  0.00  0.00    +0.000 HD
ENDROOT
BRANCH   4   2
ATOM      1  N   UNL     1      46.738   7.053  13.668  0.00  0.00    +0.000 N 
ATOM      2  C   UNL     1      45.795   7.022  12.679  0.00  0.00    +0.000 C 
ATOM      3  O   UNL     1      45.242   8.048  12.303  0.00  0.00    +0.000 OA
ATOM     13  H   UNL     1      47.003   7.972  14.001  0.00  0.00    +0.000 HD
ATOM     14  H   UNL     1      47.390   6.296  13.811  0.00  0.00    +0.000 HD
ENDBRANCH   4   2
TORSDOF 1
ENDMDL
