MODEL 1
REMARK VINA RESULT:    -6.779      0.000      0.000
REMARK INTER + INTRA:         -14.653
REMARK INTER:                 -12.327
REMARK INTRA:                  -2.326
REMARK UNBOUND:                -2.326
REMARK  Name = 
REMARK  15 active torsions:
REMARK  status: ('A' for Active; 'I' for Inactive)
REMARK    1  A    between atoms: C_1  and  C_2
REMARK    2  A    between atoms: C_2  and  C_3
REMARK    3  A    between atoms: C_3  and  C_4
REMARK    4  A    between atoms: C_4  and  C_5
REMARK    5  A    between atoms: C_5  and  C_6
REMARK    6  A    between atoms: C_6  and  C_7
REMARK    7  A    between atoms: C_7  and  C_8
REMARK    8  A    between atoms: C_8  and  C_9
REMARK    9  A    between atoms: C_9  and  C_10
REMARK   10  A    between atoms: C_10  and  N_11
REMARK   11  A    between atoms: N_11  and  C_12
REMARK   12  A    between atoms: C_12  and  C_13
REMARK   13  A    between atoms: C_16  and  C_17
REMARK   14  A    between atoms: C_17  and  N_18
REMARK   15  A    between atoms: C_19  and  C_21
REMARK                            x       y       z     vdW  Elec       q    Type
REMARK                         _______ _______ _______ _____ _____    ______ ____
ROOT
ATOM     13  C   UNL     1      45.092   7.341  11.483  0.00  0.00    +0.000 A 
ATOM     14  C   UNL     1      46.287   6.612  11.546  0.00  0.00    +0.000 A 
ATOM     15  C   UNL     1      47.318   7.008  12.399  0.00  0.00    +0.000 A 
ATOM     16  C   UNL     1      47.171   8.139  13.211  0.00  0.00    +0.000 A 
ATOM     31  C   UNL     1      45.991   8.889  13.122  0.00  0.00    +0.000 A 
ATOM     32  C   UNL     1      44.955   8.488  12.274  0.00  0.00    +0.000 A 
ENDROOT
BRANCH  13  12
ATOM     12  C   UNL     1      43.946   6.853  10.626  0.00  0.00    +0.000 C 
BRANCH  12  11
ATOM     11  N   UNL     1      42.678   6.785  11.357  0.00  0.00    +0.000 NA
ATOM     33  H   UNL     1      42.767   7.308  12.227  0.00  0.00    +0.000 HD
BRANCH  11  10
ATOM     10  C   UNL     1      42.317   5.402  11.662  0.00  0.00    +0.000 C 
BRANCH  10   9
ATOM      9  C   UNL     1      43.016   4.952  12.938  0.00  0.00    +0.000 C 
BRANCH   9   8
ATOM      8  C   UNL     1      44.000   3.836  12.609  0.00  0.00    +0.000 C 
BRANCH   8   7
ATOM      7  C   UNL     1      43.612   3.140  11.315  0.00  0.00    +0.000 C 
BRANCH   7   6
ATOM      6  C   UNL     1      44.816   3.037  10.391  0.00  0.00    +0.000 C 
BRANCH   6   5
ATOM      5  C   UNL     1      44.497   3.656   9.039  0.00  0.00    +0.000 C 
BRANCH   5   4
ATOM      4  C   UNL     1      45.616   3.382   8.044  0.00  0.00    +0.000 C 
BRANCH   4   3
ATOM      3  C   UNL     1      46.075   1.934   8.145  0.00  0.00    +0.000 C 
BRANCH   3   2
ATOM      1  C   UNL     1      47.132   2.473   5.937  0.00  0.00    +0.000 C 
ATOM      2  C   UNL     1      47.258   1.670   7.219  0.00  0.00    +0.000 C 
ENDBRANCH   3   2
ENDBRANCH   4   3
ENDBRANCH   5   4
ENDBRANCH   6   5
ENDBRANCH   7   6
ENDBRANCH   8   7
ENDBRANCH   9   8
ENDBRANCH  10   9
ENDBRANCH  11  10
ENDBRANCH  12  11
ENDBRANCH  13  12
BRANCH  16  17
ATOM     17  C   UNL     1      48.268   8.554  14.155  0.00  0.00    +0.000 C 
BRANCH  17  18
ATOM     18  N   UNL     1      48.389   7.635  15.255  0.00  0.00    +0.000 N 
ATOM     19  C   UNL     1      49.551   6.937  15.466  0.00  0.00    +0.000 C 
ATOM     20  O   UNL     1      50.553   7.112  14.776  0.00  0.00    +0.000 OA
ATOM     34  H   UNL     1      47.531   7.329  15.700  0.00  0.00    +0.000 HD
BRANCH  19  21
ATOM     21  C   UNL     1      49.558   6.011  16.602  0.00  0.00    +0.000 A 
ATOM     22  C   UNL     1      50.528   6.134  17.588  0.00  0.00    +0.000 A 
ATOM     23  S   UNL     1      50.364   4.999  18.851  0.00  0.00    +0.000 S 
ATOM     24  C   UNL     1      49.019   4.276  18.100  0.00  0.00    +0.000 A 
ATOM     25  N   UNL     1      48.397   3.204  18.662  0.00  0.00    +0.000 NA
ATOM     26  C   UNL     1      47.413   2.736  17.969  0.00  0.00    +0.000 A 
ATOM     27  N   UNL     1      46.989   3.247  16.769  0.00  0.00    +0.000 N 
ATOM     28  C   UNL     1      47.564   4.349  16.182  0.00  0.00    +0.000 A 
ATOM     29  O   UNL     1      47.120   4.816  15.136  0.00  0.00    +0.000 OA
ATOM     30  C   UNL     1      48.688   4.902  16.912  0.00  0.00    +0.000 A 
ATOM     35  H   UNL     1      46.201   2.843  16.284  0.00  0.00    +0.000 HD
ENDBRANCH  19  21
ENDBRANCH  17  18
ENDBRANCH  16  17
TORSDOF 14
ENDMDL
MODEL 2
REMARK VINA RESULT:    -6.204      2.846      3.801
REMARK INTER + INTRA:         -13.608
REMARK INTER:                 -12.235
REMARK INTRA:                  -1.373
REMARK UNBOUND:                -2.326
REMARK  Name = 
REMARK  15 active torsions:
REMARK  status: ('A' for Active; 'I' for Inactive)
REMARK    1  A    between atoms: C_1  and  C_2
REMARK    2  A    between atoms: C_2  and  C_3
REMARK    3  A    between atoms: C_3  and  C_4
REMARK    4  A    between atoms: C_4  and  C_5
REMARK    5  A    between atoms: C_5  and  C_6
REMARK    6  A    between atoms: C_6  and  C_7
REMARK    7  A    between atoms: C_7  and  C_8
REMARK    8  A    between atoms: C_8  and  C_9
REMARK    9  A    between atoms: C_9  and  C_10
REMARK   10  A    between atoms: C_10  and  N_11
REMARK   11  A    between atoms: N_11  and  C_12
REMARK   12  A    between atoms: C_12  and  C_13
REMARK   13  A    between atoms: C_16  and  C_17
REMARK   14  A    between atoms: C_17  and  N_18
REMARK   15  A    between atoms: C_19  and  C_21
REMARK                            x       y       z     vdW  Elec       q    Type
REMARK                         _______ _______ _______ _____ _____    ______ ____
ROOT
ATOM     13  C   UNL     1      47.170   4.997  14.407  0.00  0.00    +0.000 A 
ATOM     14  C   UNL     1      47.928   6.169  14.281  0.00  0.00    +0.000 A 
ATOM     15  C   UNL     1      48.692   6.641  15.350  0.00  0.00    +0.000 A 
ATOM     16  C   UNL     1      48.715   5.945  16.566  0.00  0.00    +0.000 A 
ATOM     31  C   UNL     1      47.929   4.794  16.704  0.00  0.00    +0.000 A 
ATOM     32  C   UNL     1      47.172   4.316  15.630  0.00  0.00    +0.000 A 
ENDROOT
BRANCH  13  12
ATOM     12  C   UNL     1      46.421   4.444  13.216  0.00  0.00    +0.000 C 
BRANCH  12  11
ATOM     11  N   UNL     1      44.979   4.335  13.452  0.00  0.00    +0.000 NA
ATOM     33  H   UNL     1      44.624   3.510  12.971  0.00  0.00    +0.000 HD
BRANCH  11  10
ATOM     10  C   UNL     1      44.272   5.518  12.965  0.00  0.00    +0.000 C 
BRANCH  10   9
ATOM      9  C   UNL     1      42.885   5.128  12.473  0.00  0.00    +0.000 C 
BRANCH   9   8
ATOM      8  C   UNL     1      43.014   4.062  11.391  0.00  0.00    +0.000 C 
BRANCH   8   7
ATOM      7  C   UNL     1      43.870   4.563  10.240  0.00  0.00    +0.000 C 
BRANCH   7   6
ATOM      6  C   UNL     1      44.550   3.394   9.542  0.00  0.00    +0.000 C 
BRANCH   6   5
ATOM      5  C   UNL     1      44.627   3.647   8.044  0.00  0.00    +0.000 C 
BRANCH   5   4
ATOM      4  C   UNL     1      46.064   3.537   7.553  0.00  0.00    +0.000 C 
BRANCH   4   3
ATOM      3  C   UNL     1      46.613   2.142   7.822  0.00  0.00    +0.000 C 
BRANCH   3   2
ATOM      1  C   UNL     1      47.545   2.554   5.532  0.00  0.00    +0.000 C 
ATOM      2  C   UNL     1      47.118   1.498   6.536  0.00  0.00    +0.000 C 
ENDBRANCH   3   2
ENDBRANCH   4   3
ENDBRANCH   5   4
ENDBRANCH   6   5
ENDBRANCH   7   6
ENDBRANCH   8   7
ENDBRANCH   9   8
ENDBRANCH  10   9
ENDBRANCH  11  10
ENDBRANCH  12  11
ENDBRANCH  13  12
BRANCH  16  17
ATOM     17  C   UNL     1      49.560   6.433  17.713  0.00  0.00    +0.000 C 
BRANCH  17  18
ATOM     18  N   UNL     1      50.519   5.440  18.117  0.00  0.00    +0.000 N 
ATOM     19  C   UNL     1      51.708   5.296  17.450  0.00  0.00    +0.000 C 
ATOM     20  O   UNL     1      52.036   6.042  16.530  0.00  0.00    +0.000 OA
ATOM     34  H   UNL     1      50.189   4.697  18.724  0.00  0.00    +0.000 HD
BRANCH  19  21
ATOM     21  C   UNL     1      52.602   4.239  17.932  0.00  0.00    +0.000 A 
ATOM     22  C   UNL     1      53.818   4.574  18.514  0.00  0.00    +0.000 A 
ATOM     23  S   UNL     1      54.713   3.223  19.050  0.00  0.00    +0.000 S 
ATOM     24  C   UNL     1      53.526   2.143  18.481  0.00  0.00    +0.000 A 
ATOM     25  N   UNL     1      53.687   0.798  18.607  0.00  0.00    +0.000 NA
ATOM     26  C   UNL     1      52.727   0.097  18.104  0.00  0.00    +0.000 A 
ATOM     27  N   UNL     1      51.616   0.619  17.491  0.00  0.00    +0.000 N 
ATOM     28  C   UNL     1      51.394   1.970  17.373  0.00  0.00    +0.000 A 
ATOM     29  O   UNL     1      50.360   2.403  16.872  0.00  0.00    +0.000 OA
ATOM     30  C   UNL     1      52.455   2.803  17.907  0.00  0.00    +0.000 A 
ATOM     35  H   UNL     1      50.892   0.015  17.131  0.00  0.00    +0.000 HD
ENDBRANCH  19  21
ENDBRANCH  17  18
ENDBRANCH  16  17
TORSDOF 14
ENDMDL
MODEL 3
REMARK VINA RESULT:    -6.129      1.328      1.643
REMARK INTER + INTRA:         -13.471
REMARK INTER:                 -11.647
REMARK INTRA:                  -1.824
REMARK UNBOUND:                -2.326
REMARK  Name = 
REMARK  15 active torsions:
REMARK  status: ('A' for Active; 'I' for Inactive)
REMARK    1  A    between atoms: C_1  and  C_2
REMARK    2  A    between atoms: C_2  and  C_3
REMARK    3  A    between atoms: C_3  and  C_4
REMARK    4  A    between atoms: C_4  and  C_5
REMARK    5  A    between atoms: C_5  and  C_6
REMARK    6  A    between atoms: C_6  and  C_7
REMARK    7  A    between atoms: C_7  and  C_8
REMARK    8  A    between atoms: C_8  and  C_9
REMARK    9  A    between atoms: C_9  and  C_10
REMARK   10  A    between atoms: C_10  and  N_11
REMARK   11  A    between atoms: N_11  and  C_12
REMARK   12  A    between atoms: C_12  and  C_13
REMARK   13  A    between atoms: C_16  and  C_17
REMARK   14  A    between atoms: C_17  and  N_18
REMARK   15  A    between atoms: C_19  and  C_21
REMARK                            x       y       z     vdW  Elec       q    Type
REMARK                         _______ _______ _______ _____ _____    ______ ____
ROOT
ATOM     13  C   UNL     1      45.710   7.478  11.896  0.00  0.00    +0.000 A 
ATOM     14  C   UNL     1      46.737   6.561  11.631  0.00  0.00    +0.000 A 
ATOM     15  C   UNL     1      48.061   6.862  11.953  0.00  0.00    +0.000 A 
ATOM     16  C   UNL     1      48.383   8.085  12.552  0.00  0.00    +0.000 A 
ATOM     31  C   UNL     1      47.363   9.017  12.785  0.00  0.00    +0.000 A 
ATOM     32  C   UNL     1      46.036   8.713  12.471  0.00  0.00    +0.000 A 
ENDROOT
BRANCH  13  12
ATOM     12  C   UNL     1      44.269   7.107  11.630  0.00  0.00    +0.000 C 
BRANCH  12  11
ATOM     11  N   UNL     1      43.746   6.131  12.590  0.00  0.00    +0.000 NA
ATOM     33  H   UNL     1      44.527   5.670  13.054  0.00  0.00    +0.000 HD
BRANCH  11  10
ATOM     10  C   UNL     1      42.919   5.126  11.926  0.00  0.00    +0.000 C 
BRANCH  10   9
ATOM      9  C   UNL     1      43.446   3.732  12.237  0.00  0.00    +0.000 C 
BRANCH   9   8
ATOM      8  C   UNL     1      44.851   3.583  11.667  0.00  0.00    +0.000 C 
BRANCH   8   7
ATOM      7  C   UNL     1      44.802   3.068  10.239  0.00  0.00    +0.000 C 
BRANCH   7   6
ATOM      6  C   UNL     1      45.165   4.180   9.265  0.00  0.00    +0.000 C 
BRANCH   6   5
ATOM      5  C   UNL     1      45.142   3.657   7.837  0.00  0.00    +0.000 C 
BRANCH   5   4
ATOM      4  C   UNL     1      46.520   3.772   7.200  0.00  0.00    +0.000 C 
BRANCH   4   3
ATOM      3  C   UNL     1      46.808   2.557   6.329  0.00  0.00    +0.000 C 
BRANCH   3   2
ATOM      1  C   UNL     1      46.780   0.399   7.603  0.00  0.00    +0.000 C 
ATOM      2  C   UNL     1      47.647   1.531   7.082  0.00  0.00    +0.000 C 
ENDBRANCH   3   2
ENDBRANCH   4   3
ENDBRANCH   5   4
ENDBRANCH   6   5
ENDBRANCH   7   6
ENDBRANCH   8   7
ENDBRANCH   9   8
ENDBRANCH  10   9
ENDBRANCH  11  10
ENDBRANCH  12  11
ENDBRANCH  13  12
BRANCH  16  17
ATOM     17  C   UNL     1      49.806   8.404  12.930  0.00  0.00    +0.000 C 
BRANCH  17  18
ATOM     18  N   UNL     1      50.293   7.507  13.944  0.00  0.00    +0.000 N 
ATOM     19  C   UNL     1      50.107   7.780  15.275  0.00  0.00    +0.000 C 
ATOM     20  O   UNL     1      49.466   8.756  15.658  0.00  0.00    +0.000 OA
ATOM     34  H   UNL     1      50.986   6.822  13.663  0.00  0.00    +0.000 HD
BRANCH  19  21
ATOM     21  C   UNL     1      50.663   6.811  16.223  0.00  0.00    +0.000 A 
ATOM     22  C   UNL     1      51.927   7.016  16.760  0.00  0.00    +0.000 A 
ATOM     23  S   UNL     1      52.401   5.811  17.871  0.00  0.00    +0.000 S 
ATOM     24  C   UNL     1      50.952   4.949  17.636  0.00  0.00    +0.000 A 
ATOM     25  N   UNL     1      50.721   3.778  18.289  0.00  0.00    +0.000 NA
ATOM     26  C   UNL     1      49.598   3.215  17.993  0.00  0.00    +0.000 A 
ATOM     27  N   UNL     1      48.680   3.720  17.107  0.00  0.00    +0.000 N 
ATOM     28  C   UNL     1      48.854   4.917  16.454  0.00  0.00    +0.000 A 
ATOM     29  O   UNL     1      47.984   5.369  15.714  0.00  0.00    +0.000 OA
ATOM     30  C   UNL     1      50.111   5.581  16.738  0.00  0.00    +0.000 A 
ATOM     35  H   UNL     1      47.811   3.238  16.931  0.00  0.00    +0.000 HD
ENDBRANCH  19  21
ENDBRANCH  17  18
ENDBRANCH  16  17
TORSDOF 14
ENDMDL
MODEL 4
REMARK VINA RESULT:    -6.076      2.357      2.963
REMARK INTER + INTRA:         -13.375
REMARK INTER:                 -11.869
REMARK INTRA:                  -1.506
REMARK UNBOUND:                -2.326
REMARK  Name = 
REMARK  15 active torsions:
REMARK  status: ('A' for Active; 'I' for Inactive)
REMARK    1  A    between atoms: C_1  and  C_2
REMARK    2  A    between atoms: C_2  and  C_3
REMARK    3  A    between atoms: C_3  and  C_4
REMARK    4  A    between atoms: C_4  and  C_5
REMARK    5  A    between atoms: C_5  and  C_6
REMARK    6  A    between atoms: C_6  and  C_7
REMARK    7  A    between atoms: C_7  and  C_8
REMARK    8  A    between atoms: C_8  and  C_9
REMARK    9  A    between atoms: C_9  and  C_10
REMARK   10  A    between atoms: C_10  and  N_11
REMARK   11  A    between atoms: N_11  and  C_12
REMARK   12  A    between atoms: C_12  and  C_13
REMARK   13  A    between atoms: C_16  and  C_17
REMARK   14  A    between atoms: C_17  and  N_18
REMARK   15  A    between atoms: C_19  and  C_21
REMARK                            x       y       z     vdW  Elec       q    Type
REMARK                         _______ _______ _______ _____ _____    ______ ____
ROOT
ATOM     13  C   UNL     1      45.973   7.151  12.213  0.00  0.00    +0.000 A 
ATOM     14  C   UNL     1      46.966   6.167  12.108  0.00  0.00    +0.000 A 
ATOM     15  C   UNL     1      48.143   6.262  12.851  0.00  0.00    +0.000 A 
ATOM     16  C   UNL     1      48.348   7.342  13.719  0.00  0.00    +0.000 A 
ATOM     31  C   UNL     1      47.372   8.345  13.797  0.00  0.00    +0.000 A 
ATOM     32  C   UNL     1      46.189   8.245  13.060  0.00  0.00    +0.000 A 
ENDROOT
BRANCH  13  12
ATOM     12  C   UNL     1      44.663   6.993  11.476  0.00  0.00    +0.000 C 
BRANCH  12  11
ATOM     11  N   UNL     1      43.580   6.512  12.338  0.00  0.00    +0.000 NA
ATOM     33  H   UNL     1      43.463   7.158  13.117  0.00  0.00    +0.000 HD
BRANCH  11  10
ATOM     10  C   UNL     1      43.871   5.178  12.859  0.00  0.00    +0.000 C 
BRANCH  10   9
ATOM      9  C   UNL     1      43.501   4.125  11.824  0.00  0.00    +0.000 C 
BRANCH   9   8
ATOM      8  C   UNL     1      44.699   3.217  11.575  0.00  0.00    +0.000 C 
BRANCH   8   7
ATOM      7  C   UNL     1      44.784   2.826  10.110  0.00  0.00    +0.000 C 
BRANCH   7   6
ATOM      6  C   UNL     1      44.544   4.042   9.226  0.00  0.00    +0.000 C 
BRANCH   6   5
ATOM      5  C   UNL     1      44.868   3.712   7.776  0.00  0.00    +0.000 C 
BRANCH   5   4
ATOM      4  C   UNL     1      46.373   3.733   7.544  0.00  0.00    +0.000 C 
BRANCH   4   3
ATOM      3  C   UNL     1      46.742   2.845   6.363  0.00  0.00    +0.000 C 
BRANCH   3   2
ATOM      1  C   UNL     1      46.882   0.641   7.548  0.00  0.00    +0.000 C 
ATOM      2  C   UNL     1      47.660   1.709   6.800  0.00  0.00    +0.000 C 
ENDBRANCH   3   2
ENDBRANCH   4   3
ENDBRANCH   5   4
ENDBRANCH   6   5
ENDBRANCH   7   6
ENDBRANCH   8   7
ENDBRANCH   9   8
ENDBRANCH  10   9
ENDBRANCH  11  10
ENDBRANCH  12  11
ENDBRANCH  13  12
BRANCH  16  17
ATOM     17  C   UNL     1      49.603   7.435  14.546  0.00  0.00    +0.000 C 
BRANCH  17  18
ATOM     18  N   UNL     1      49.303   7.465  15.953  0.00  0.00    +0.000 N 
ATOM     19  C   UNL     1      48.858   6.342  16.603  0.00  0.00    +0.000 C 
ATOM     20  O   UNL     1      48.760   5.256  16.037  0.00  0.00    +0.000 OA
ATOM     34  H   UNL     1      49.183   8.376  16.381  0.00  0.00    +0.000 HD
BRANCH  19  21
ATOM     21  C   UNL     1      48.563   6.491  18.030  0.00  0.00    +0.000 A 
ATOM     22  C   UNL     1      48.751   5.417  18.891  0.00  0.00    +0.000 A 
ATOM     23  S   UNL     1      48.393   5.776  20.520  0.00  0.00    +0.000 S 
ATOM     24  C   UNL     1      47.930   7.365  20.123  0.00  0.00    +0.000 A 
ATOM     25  N   UNL     1      47.484   8.223  21.081  0.00  0.00    +0.000 NA
ATOM     26  C   UNL     1      47.136   9.384  20.636  0.00  0.00    +0.000 A 
ATOM     27  N   UNL     1      47.199   9.768  19.321  0.00  0.00    +0.000 N 
ATOM     28  C   UNL     1      47.677   8.949  18.327  0.00  0.00    +0.000 A 
ATOM     29  O   UNL     1      47.776   9.347  17.169  0.00  0.00    +0.000 OA
ATOM     30  C   UNL     1      48.064   7.624  18.772  0.00  0.00    +0.000 A 
ATOM     35  H   UNL     1      46.926  10.699  19.041  0.00  0.00    +0.000 HD
ENDBRANCH  19  21
ENDBRANCH  17  18
ENDBRANCH  16  17
TORSDOF 14
ENDMDL
MODEL 5
REMARK VINA RESULT:    -6.047      2.772      4.309
REMARK INTER + INTRA:         -13.322
REMARK INTER:                 -11.730
REMARK INTRA:                  -1.592
REMARK UNBOUND:                -2.326
REMARK  Name = 
REMARK  15 active torsions:
REMARK  status: ('A' for Active; 'I' for Inactive)
REMARK    1  A    between atoms: C_1  and  C_2
REMARK    2  A    between atoms: C_2  and  C_3
REMARK    3  A    between atoms: C_3  and  C_4
REMARK    4  A    between atoms: C_4  and  C_5
REMARK    5  A    between atoms: C_5  and  C_6
REMARK    6  A    between atoms: C_6  and  C_7
REMARK    7  A    between atoms: C_7  and  C_8
REMARK    8  A    between atoms: C_8  and  C_9
REMARK    9  A    between atoms: C_9  and  C_10
REMARK   10  A    between atoms: C_10  and  N_11
REMARK   11  A    between atoms: N_11  and  C_12
REMARK   12  A    between atoms: C_12  and  C_13
REMARK   13  A    between atoms: C_16  and  C_17
REMARK   14  A    between atoms: C_17  and  N_18
REMARK   15  A    between atoms: C_19  and  C_21
REMARK                            x       y       z     vdW  Elec       q    Type
REMARK                         _______ _______ _______ _____ _____    ______ ____
ROOT
ATOM     13  C   UNL     1      47.483   5.838  13.602  0.00  0.00    +0.000 A 
ATOM     14  C   UNL     1      48.147   6.294  14.750  0.00  0.00    +0.000 A 
ATOM     15  C   UNL     1      48.203   5.506  15.900  0.00  0.00    +0.000 A 
ATOM     16  C   UNL     1      47.599   4.243  15.923  0.00  0.00    +0.000 A 
ATOM     31  C   UNL     1      46.904   3.801  14.789  0.00  0.00    +0.000 A 
ATOM     32  C   UNL     1      46.856   4.586  13.634  0.00  0.00    +0.000 A 
ENDROOT
BRANCH  13  12
ATOM     12  C   UNL     1      47.507   6.658  12.332  0.00  0.00    +0.000 C 
BRANCH  12  11
ATOM     11  N   UNL     1      46.632   7.832  12.397  0.00  0.00    +0.000 NA
ATOM     33  H   UNL     1      46.873   8.381  13.220  0.00  0.00    +0.000 HD
BRANCH  11  10
ATOM     10  C   UNL     1      45.226   7.440  12.474  0.00  0.00    +0.000 C 
BRANCH  10   9
ATOM      9  C   UNL     1      44.833   6.667  11.223  0.00  0.00    +0.000 C 
BRANCH   9   8
ATOM      8  C   UNL     1      43.417   6.128  11.386  0.00  0.00    +0.000 C 
BRANCH   8   7
ATOM      7  C   UNL     1      43.327   4.694  10.893  0.00  0.00    +0.000 C 
BRANCH   7   6
ATOM      6  C   UNL     1      44.698   4.200  10.455  0.00  0.00    +0.000 C 
BRANCH   6   5
ATOM      5  C   UNL     1      44.607   2.766   9.956  0.00  0.00    +0.000 C 
BRANCH   5   4
ATOM      4  C   UNL     1      45.642   2.508   8.869  0.00  0.00    +0.000 C 
BRANCH   4   3
ATOM      3  C   UNL     1      45.391   3.412   7.669  0.00  0.00    +0.000 C 
BRANCH   3   2
ATOM      1  C   UNL     1      47.452   2.211   6.903  0.00  0.00    +0.000 C 
ATOM      2  C   UNL     1      46.615   3.470   6.764  0.00  0.00    +0.000 C 
ENDBRANCH   3   2
ENDBRANCH   4   3
ENDBRANCH   5   4
ENDBRANCH   6   5
ENDBRANCH   7   6
ENDBRANCH   8   7
ENDBRANCH   9   8
ENDBRANCH  10   9
ENDBRANCH  11  10
ENDBRANCH  12  11
ENDBRANCH  13  12
BRANCH  16  17
ATOM     17  C   UNL     1      47.681   3.375  17.151  0.00  0.00    +0.000 C 
BRANCH  17  18
ATOM     18  N   UNL     1      49.043   3.204  17.583  0.00  0.00    +0.000 N 
ATOM     19  C   UNL     1      49.885   2.338  16.935  0.00  0.00    +0.000 C 
ATOM     20  O   UNL     1      49.542   1.725  15.927  0.00  0.00    +0.000 OA
ATOM     34  H   UNL     1      49.279   3.535  18.512  0.00  0.00    +0.000 HD
BRANCH  19  21
ATOM     21  C   UNL     1      51.244   2.226  17.472  0.00  0.00    +0.000 A 
ATOM     22  C   UNL     1      51.860   0.982  17.540  0.00  0.00    +0.000 A 
ATOM     23  S   UNL     1      53.450   1.041  18.156  0.00  0.00    +0.000 S 
ATOM     24  C   UNL     1      53.352   2.724  18.395  0.00  0.00    +0.000 A 
ATOM     25  N   UNL     1      54.395   3.416  18.930  0.00  0.00    +0.000 NA
ATOM     26  C   UNL     1      54.173   4.678  19.086  0.00  0.00    +0.000 A 
ATOM     27  N   UNL     1      53.005   5.313  18.750  0.00  0.00    +0.000 N 
ATOM     28  C   UNL     1      51.940   4.662  18.174  0.00  0.00    +0.000 A 
ATOM     29  O   UNL     1      50.932   5.274  17.829  0.00  0.00    +0.000 OA
ATOM     30  C   UNL     1      52.132   3.236  17.994  0.00  0.00    +0.000 A 
ATOM     35  H   UNL     1      52.900   6.309  18.883  0.00  0.00    +0.000 HD
ENDBRANCH  19  21
ENDBRANCH  17  18
ENDBRANCH  16  17
TORSDOF 14
ENDMDL
MODEL 6
REMARK VINA RESULT:    -5.959      3.128      7.863
REMARK INTER + INTRA:         -13.163
REMARK INTER:                 -10.128
REMARK INTRA:                  -3.035
REMARK UNBOUND:                -2.326
REMARK  Name = 
REMARK  15 active torsions:
REMARK  status: ('A' for Active; 'I' for Inactive)
REMARK    1  A    between atoms: C_1  and  C_2
REMARK    2  A    between atoms: C_2  and  C_3
REMARK    3  A    between atoms: C_3  and  C_4
REMARK    4  A    between atoms: C_4  and  C_5
REMARK    5  A    between atoms: C_5  and  C_6
REMARK    6  A    between atoms: C_6  and  C_7
REMARK    7  A    between atoms: C_7  and  C_8
REMARK    8  A    between atoms: C_8  and  C_9
REMARK    9  A    between atoms: C_9  and  C_10
REMARK   10  A    between atoms: C_10  and  N_11
REMARK   11  A    between atoms: N_11  and  C_12
REMARK   12  A    between atoms: C_12  and  C_13
REMARK   13  A    between atoms: C_16  and  C_17
REMARK   14  A    between atoms: C_17  and  N_18
REMARK   15  A    between atoms: C_19  and  C_21
REMARK                            x       y       z     vdW  Elec       q    Type
REMARK                         _______ _______ _______ _____ _____    ______ ____
ROOT
ATOM     13  C   UNL     1      49.336   8.068  15.883  0.00  0.00    +0.000 A 
ATOM     14  C   UNL     1      49.960   7.291  14.896  0.00  0.00    +0.000 A 
ATOM     15  C   UNL     1      49.416   7.196  13.615  0.00  0.00    +0.000 A 
ATOM     16  C   UNL     1      48.237   7.881  13.294  0.00  0.00    +0.000 A 
ATOM     31  C   UNL     1      47.593   8.628  14.289  0.00  0.00    +0.000 A 
ATOM     32  C   UNL     1      48.143   8.730  15.570  0.00  0.00    +0.000 A 
ENDROOT
BRANCH  13  12
ATOM     12  C   UNL     1      49.982   8.239  17.239  0.00  0.00    +0.000 C 
BRANCH  12  11
ATOM     11  N   UNL     1      49.019   8.160  18.341  0.00  0.00    +0.000 NA
ATOM     33  H   UNL     1      48.879   9.091  18.728  0.00  0.00    +0.000 HD
BRANCH  11  10
ATOM     10  C   UNL     1      49.495   7.267  19.396  0.00  0.00    +0.000 C 
BRANCH  10   9
ATOM      9  C   UNL     1      48.604   6.036  19.476  0.00  0.00    +0.000 C 
BRANCH   9   8
ATOM      8  C   UNL     1      49.472   4.793  19.629  0.00  0.00    +0.000 C 
BRANCH   8   7
ATOM      7  C   UNL     1      50.704   4.884  18.745  0.00  0.00    +0.000 C 
BRANCH   7   6
ATOM      6  C   UNL     1      50.505   4.069  17.476  0.00  0.00    +0.000 C 
BRANCH   6   5
ATOM      5  C   UNL     1      49.660   2.839  17.767  0.00  0.00    +0.000 C 
BRANCH   5   4
ATOM      4  C   UNL     1      48.605   2.644  16.686  0.00  0.00    +0.000 C 
BRANCH   4   3
ATOM      3  C   UNL     1      47.380   3.502  16.977  0.00  0.00    +0.000 C 
BRANCH   3   2
ATOM      1  C   UNL     1      47.141   4.342  14.629  0.00  0.00    +0.000 C 
ATOM      2  C   UNL     1      47.351   4.734  16.080  0.00  0.00    +0.000 C 
ENDBRANCH   3   2
ENDBRANCH   4   3
ENDBRANCH   5   4
ENDBRANCH   6   5
ENDBRANCH   7   6
ENDBRANCH   8   7
ENDBRANCH   9   8
ENDBRANCH  10   9
ENDBRANCH  11  10
ENDBRANCH  12  11
ENDBRANCH  13  12
BRANCH  16  17
ATOM     17  C   UNL     1      47.661   7.807  11.905  0.00  0.00    +0.000 C 
BRANCH  17  18
ATOM     18  N   UNL     1      46.946   6.575  11.698  0.00  0.00    +0.000 N 
ATOM     19  C   UNL     1      45.576   6.544  11.712  0.00  0.00    +0.000 C 
ATOM     20  O   UNL     1      44.900   7.564  11.834  0.00  0.00    +0.000 OA
ATOM     34  H   UNL     1      47.470   5.713  11.800  0.00  0.00    +0.000 HD
BRANCH  19  21
ATOM     21  C   UNL     1      44.951   5.234  11.513  0.00  0.00    +0.000 A 
ATOM     22  C   UNL     1      44.236   4.644  12.547  0.00  0.00    +0.000 A 
ATOM     23  S   UNL     1      43.548   3.139  12.131  0.00  0.00    +0.000 S 
ATOM     24  C   UNL     1      44.222   3.203  10.568  0.00  0.00    +0.000 A 
ATOM     25  N   UNL     1      44.031   2.188   9.683  0.00  0.00    +0.000 NA
ATOM     26  C   UNL     1      44.625   2.352   8.548  0.00  0.00    +0.000 A 
ATOM     27  N   UNL     1      45.388   3.443   8.216  0.00  0.00    +0.000 N 
ATOM     28  C   UNL     1      45.577   4.507   9.064  0.00  0.00    +0.000 A 
ATOM     29  O   UNL     1      46.217   5.495   8.711  0.00  0.00    +0.000 OA
ATOM     30  C   UNL     1      44.945   4.364  10.362  0.00  0.00    +0.000 A 
ATOM     35  H   UNL     1      45.813   3.518   7.304  0.00  0.00    +0.000 HD
ENDBRANCH  19  21
ENDBRANCH  17  18
ENDBRANCH  16  17
TORSDOF 14
ENDMDL
MODEL 7
REMARK VINA RESULT:    -5.943      3.392      8.610
REMARK INTER + INTRA:         -13.134
REMARK INTER:                  -9.300
REMARK INTRA:                  -3.834
REMARK UNBOUND:                -2.326
REMARK  Name = 
REMARK  15 active torsions:
REMARK  status: ('A' for Active; 'I' for Inactive)
REMARK    1  A    between atoms: C_1  and  C_2
REMARK    2  A    between atoms: C_2  and  C_3
REMARK    3  A    between atoms: C_3  and  C_4
REMARK    4  A    between atoms: C_4  and  C_5
REMARK    5  A    between atoms: C_5  and  C_6
REMARK    6  A    between atoms: C_6  and  C_7
REMARK    7  A    between atoms: C_7  and  C_8
REMARK    8  A    between atoms: C_8  and  C_9
REMARK    9  A    between atoms: C_9  and  C_10
REMARK   10  A    between atoms: C_10  and  N_11
REMARK   11  A    between atoms: N_11  and  C_12
REMARK   12  A    between atoms: C_12  and  C_13
REMARK   13  A    between atoms: C_16  and  C_17
REMARK   14  A    between atoms: C_17  and  N_18
REMARK   15  A    between atoms: C_19  and  C_21
REMARK                            x       y       z     vdW  Elec       q    Type
REMARK                         _______ _______ _______ _____ _____    ______ ____
ROOT
ATOM     13  C   UNL     1      49.843   5.489  19.422  0.00  0.00    +0.000 A 
ATOM     14  C   UNL     1      50.414   4.624  18.479  0.00  0.00    +0.000 A 
ATOM     15  C   UNL     1      49.615   3.964  17.543  0.00  0.00    +0.000 A 
ATOM     16  C   UNL     1      48.229   4.161  17.531  0.00  0.00    +0.000 A 
ATOM     31  C   UNL     1      47.653   4.997  18.496  0.00  0.00    +0.000 A 
ATOM     32  C   UNL     1      48.453   5.665  19.427  0.00  0.00    +0.000 A 
ENDROOT
BRANCH  13  12
ATOM     12  C   UNL     1      50.723   6.271  20.370  0.00  0.00    +0.000 C 
BRANCH  12  11
ATOM     11  N   UNL     1      50.119   7.536  20.795  0.00  0.00    +0.000 NA
ATOM     33  H   UNL     1      49.179   7.602  20.409  0.00  0.00    +0.000 HD
BRANCH  11  10
ATOM     10  C   UNL     1      50.908   8.679  20.338  0.00  0.00    +0.000 C 
BRANCH  10   9
ATOM      9  C   UNL     1      50.193   9.378  19.191  0.00  0.00    +0.000 C 
BRANCH   9   8
ATOM      8  C   UNL     1      48.686   9.224  19.365  0.00  0.00    +0.000 C 
BRANCH   8   7
ATOM      7  C   UNL     1      47.995   9.130  18.016  0.00  0.00    +0.000 C 
BRANCH   7   6
ATOM      6  C   UNL     1      49.016   8.870  16.917  0.00  0.00    +0.000 C 
BRANCH   6   5
ATOM      5  C   UNL     1      48.629   7.635  16.119  0.00  0.00    +0.000 C 
BRANCH   5   4
ATOM      4  C   UNL     1      49.867   6.950  15.555  0.00  0.00    +0.000 C 
BRANCH   4   3
ATOM      3  C   UNL     1      51.123   7.723  15.935  0.00  0.00    +0.000 C 
BRANCH   3   2
ATOM      1  C   UNL     1      53.004   7.185  17.501  0.00  0.00    +0.000 C 
ATOM      2  C   UNL     1      52.279   6.774  16.232  0.00  0.00    +0.000 C 
ENDBRANCH   3   2
ENDBRANCH   4   3
ENDBRANCH   5   4
ENDBRANCH   6   5
ENDBRANCH   7   6
ENDBRANCH   8   7
ENDBRANCH   9   8
ENDBRANCH  10   9
ENDBRANCH  11  10
ENDBRANCH  12  11
ENDBRANCH  13  12
BRANCH  16  17
ATOM     17  C   UNL     1      47.366   3.475  16.505  0.00  0.00    +0.000 C 
BRANCH  17  18
ATOM     18  N   UNL     1      46.762   4.424  15.608  0.00  0.00    +0.000 N 
ATOM     19  C   UNL     1      46.762   4.211  14.253  0.00  0.00    +0.000 C 
ATOM     20  O   UNL     1      47.212   3.183  13.753  0.00  0.00    +0.000 OA
ATOM     34  H   UNL     1      46.576   5.352  15.972  0.00  0.00    +0.000 HD
BRANCH  19  21
ATOM     21  C   UNL     1      46.141   5.252  13.430  0.00  0.00    +0.000 A 
ATOM     22  C   UNL     1      46.825   6.434  13.177  0.00  0.00    +0.000 A 
ATOM     23  S   UNL     1      45.969   7.517  12.175  0.00  0.00    +0.000 S 
ATOM     24  C   UNL     1      44.635   6.462  12.083  0.00  0.00    +0.000 A 
ATOM     25  N   UNL     1      43.522   6.803  11.378  0.00  0.00    +0.000 NA
ATOM     26  C   UNL     1      42.576   5.925  11.420  0.00  0.00    +0.000 A 
ATOM     27  N   UNL     1      42.644   4.735  12.098  0.00  0.00    +0.000 N 
ATOM     28  C   UNL     1      43.761   4.334  12.791  0.00  0.00    +0.000 A 
ATOM     29  O   UNL     1      43.809   3.233  13.336  0.00  0.00    +0.000 OA
ATOM     30  C   UNL     1      44.847   5.294  12.791  0.00  0.00    +0.000 A 
ATOM     35  H   UNL     1      41.874   4.083  12.077  0.00  0.00    +0.000 HD
ENDBRANCH  19  21
ENDBRANCH  17  18
ENDBRANCH  16  17
TORSDOF 14
ENDMDL
MODEL 8
REMARK VINA RESULT:    -5.881      3.347      9.081
REMARK INTER + INTRA:         -13.020
REMARK INTER:                  -9.536
REMARK INTRA:                  -3.483
REMARK UNBOUND:                -2.326
REMARK  Name = 
REMARK  15 active torsions:
REMARK  status: ('A' for Active; 'I' for Inactive)
REMARK    1  A    between atoms: C_1  and  C_2
REMARK    2  A    between atoms: C_2  and  C_3
REMARK    3  A    between atoms: C_3  and  C_4
REMARK    4  A    between atoms: C_4  and  C_5
REMARK    5  A    between atoms: C_5  and  C_6
REMARK    6  A    between atoms: C_6  and  C_7
REMARK    7  A    between atoms: C_7  and  C_8
REMARK    8  A    between atoms: C_8  and  C_9
REMARK    9  A    between atoms: C_9  and  C_10
REMARK   10  A    between atoms: C_10  and  N_11
REMARK   11  A    between atoms: N_11  and  C_12
REMARK   12  A    between atoms: C_12  and  C_13
REMARK   13  A    between atoms: C_16  and  C_17
REMARK   14  A    between atoms: C_17  and  N_18
REMARK   15  A    between atoms: C_19  and  C_21
REMARK                            x       y       z     vdW  Elec       q    Type
REMARK                         _______ _______ _______ _____ _____    ______ ____
ROOT
ATOM     13  C   UNL     1      51.167   3.981  18.517  0.00  0.00    +0.000 A 
ATOM     14  C   UNL     1      50.893   2.996  17.557  0.00  0.00    +0.000 A 
ATOM     15  C   UNL     1      49.592   2.797  17.092  0.00  0.00    +0.000 A 
ATOM     16  C   UNL     1      48.539   3.583  17.576  0.00  0.00    +0.000 A 
ATOM     31  C   UNL     1      48.806   4.543  18.562  0.00  0.00    +0.000 A 
ATOM     32  C   UNL     1      50.110   4.749  19.020  0.00  0.00    +0.000 A 
ENDROOT
BRANCH  13  12
ATOM     12  C   UNL     1      52.591   4.252  18.945  0.00  0.00    +0.000 C 
BRANCH  12  11
ATOM     11  N   UNL     1      53.380   4.918  17.905  0.00  0.00    +0.000 NA
ATOM     33  H   UNL     1      54.265   4.426  17.792  0.00  0.00    +0.000 HD
BRANCH  11  10
ATOM     10  C   UNL     1      53.646   6.312  18.255  0.00  0.00    +0.000 C 
BRANCH  10   9
ATOM      9  C   UNL     1      52.610   7.217  17.603  0.00  0.00    +0.000 C 
BRANCH   9   8
ATOM      8  C   UNL     1      52.248   6.665  16.230  0.00  0.00    +0.000 C 
BRANCH   8   7
ATOM      7  C   UNL     1      50.777   6.892  15.928  0.00  0.00    +0.000 C 
BRANCH   7   6
ATOM      6  C   UNL     1      50.183   7.885  16.917  0.00  0.00    +0.000 C 
BRANCH   6   5
ATOM      5  C   UNL     1      48.684   7.665  17.049  0.00  0.00    +0.000 C 
BRANCH   5   4
ATOM      4  C   UNL     1      48.120   8.485  18.201  0.00  0.00    +0.000 C 
BRANCH   4   3
ATOM      3  C   UNL     1      49.199   8.756  19.241  0.00  0.00    +0.000 C 
BRANCH   3   2
ATOM      1  C   UNL     1      47.548   7.450  20.600  0.00  0.00    +0.000 C 
ATOM      2  C   UNL     1      48.996   7.888  20.478  0.00  0.00    +0.000 C 
ENDBRANCH   3   2
ENDBRANCH   4   3
ENDBRANCH   5   4
ENDBRANCH   6   5
ENDBRANCH   7   6
ENDBRANCH   8   7
ENDBRANCH   9   8
ENDBRANCH  10   9
ENDBRANCH  11  10
ENDBRANCH  12  11
ENDBRANCH  13  12
BRANCH  16  17
ATOM     17  C   UNL     1      47.139   3.394  17.057  0.00  0.00    +0.000 C 
BRANCH  17  18
ATOM     18  N   UNL     1      46.802   4.392  16.077  0.00  0.00    +0.000 N 
ATOM     19  C   UNL     1      46.982   4.155  14.739  0.00  0.00    +0.000 C 
ATOM     20  O   UNL     1      47.369   3.069  14.314  0.00  0.00    +0.000 OA
ATOM     34  H   UNL     1      46.680   5.343  16.409  0.00  0.00    +0.000 HD
BRANCH  19  21
ATOM     21  C   UNL     1      46.627   5.249  13.831  0.00  0.00    +0.000 A 
ATOM     22  C   UNL     1      47.511   6.303  13.639  0.00  0.00    +0.000 A 
ATOM     23  S   UNL     1      46.953   7.467  12.523  0.00  0.00    +0.000 S 
ATOM     24  C   UNL     1      45.491   6.626  12.294  0.00  0.00    +0.000 A 
ATOM     25  N   UNL     1      44.532   7.107  11.457  0.00  0.00    +0.000 NA
ATOM     26  C   UNL     1      43.462   6.386  11.403  0.00  0.00    +0.000 A 
ATOM     27  N   UNL     1      43.267   5.224  12.105  0.00  0.00    +0.000 N 
ATOM     28  C   UNL     1      44.221   4.682  12.932  0.00  0.00    +0.000 A 
ATOM     29  O   UNL     1      44.036   3.607  13.498  0.00  0.00    +0.000 OA
ATOM     30  C   UNL     1      45.437   5.464  13.043  0.00  0.00    +0.000 A 
ATOM     35  H   UNL     1      42.411   4.697  12.006  0.00  0.00    +0.000 HD
ENDBRANCH  19  21
ENDBRANCH  17  18
ENDBRANCH  16  17
TORSDOF 14
ENDMDL
MODEL 9
REMARK VINA RESULT:    -5.810      3.367      8.444
REMARK INTER + INTRA:         -12.891
REMARK INTER:                  -9.425
REMARK INTRA:                  -3.466
REMARK UNBOUND:                -2.326
REMARK  Name = 
REMARK  15 active torsions:
REMARK  status: ('A' for Active; 'I' for Inactive)
REMARK    1  A    between atoms: C_1  and  C_2
REMARK    2  A    between atoms: C_2  and  C_3
REMARK    3  A    between atoms: C_3  and  C_4
REMARK    4  A    between atoms: C_4  and  C_5
REMARK    5  A    between atoms: C_5  and  C_6
REMARK    6  A    between atoms: C_6  and  C_7
REMARK    7  A    between atoms: C_7  and  C_8
REMARK    8  A    between atoms: C_8  and  C_9
REMARK    9  A    between atoms: C_9  and  C_10
REMARK   10  A    between atoms: C_10  and  N_11
REMARK   11  A    between atoms: N_11  and  C_12
REMARK   12  A    between atoms: C_12  and  C_13
REMARK   13  A    between atoms: C_16  and  C_17
REMARK   14  A    between atoms: C_17  and  N_18
REMARK   15  A    between atoms: C_19  and  C_21
REMARK                            x       y       z     vdW  Elec       q    Type
REMARK                         _______ _______ _______ _____ _____    ______ ____
ROOT
ATOM     13  C   UNL     1      49.224   5.501  19.802  0.00  0.00    +0.000 A 
ATOM     14  C   UNL     1      49.866   4.432  19.160  0.00  0.00    +0.000 A 
ATOM     15  C   UNL     1      49.251   3.767  18.099  0.00  0.00    +0.000 A 
ATOM     16  C   UNL     1      47.982   4.160  17.656  0.00  0.00    +0.000 A 
ATOM     31  C   UNL     1      47.325   5.204  18.321  0.00  0.00    +0.000 A 
ATOM     32  C   UNL     1      47.944   5.877  19.377  0.00  0.00    +0.000 A 
ENDROOT
BRANCH  13  12
ATOM     12  C   UNL     1      49.936   6.275  20.888  0.00  0.00    +0.000 C 
BRANCH  12  11
ATOM     11  N   UNL     1      51.347   6.521  20.579  0.00  0.00    +0.000 NA
ATOM     33  H   UNL     1      51.861   6.647  21.449  0.00  0.00    +0.000 HD
BRANCH  11  10
ATOM     10  C   UNL     1      51.507   7.714  19.749  0.00  0.00    +0.000 C 
BRANCH  10   9
ATOM      9  C   UNL     1      52.141   7.338  18.417  0.00  0.00    +0.000 C 
BRANCH   9   8
ATOM      8  C   UNL     1      51.242   7.806  17.279  0.00  0.00    +0.000 C 
BRANCH   8   7
ATOM      7  C   UNL     1      50.878   6.646  16.369  0.00  0.00    +0.000 C 
BRANCH   7   6
ATOM      6  C   UNL     1      49.505   6.870  15.752  0.00  0.00    +0.000 C 
BRANCH   6   5
ATOM      5  C   UNL     1      48.797   8.023  16.446  0.00  0.00    +0.000 C 
BRANCH   5   4
ATOM      4  C   UNL     1      48.188   8.973  15.424  0.00  0.00    +0.000 C 
BRANCH   4   3
ATOM      3  C   UNL     1      49.078  10.195  15.235  0.00  0.00    +0.000 C 
BRANCH   3   2
ATOM      1  C   UNL     1      48.981   9.873  12.752  0.00  0.00    +0.000 C 
ATOM      2  C   UNL     1      49.890  10.085  13.949  0.00  0.00    +0.000 C 
ENDBRANCH   3   2
ENDBRANCH   4   3
ENDBRANCH   5   4
ENDBRANCH   6   5
ENDBRANCH   7   6
ENDBRANCH   8   7
ENDBRANCH   9   8
ENDBRANCH  10   9
ENDBRANCH  11  10
ENDBRANCH  12  11
ENDBRANCH  13  12
BRANCH  16  17
ATOM     17  C   UNL     1      47.325   3.466  16.493  0.00  0.00    +0.000 C 
BRANCH  17  18
ATOM     18  N   UNL     1      46.734   4.410  15.583  0.00  0.00    +0.000 N 
ATOM     19  C   UNL     1      46.753   4.193  14.229  0.00  0.00    +0.000 C 
ATOM     20  O   UNL     1      47.210   3.163  13.740  0.00  0.00    +0.000 OA
ATOM     34  H   UNL     1      46.541   5.340  15.941  0.00  0.00    +0.000 HD
BRANCH  19  21
ATOM     21  C   UNL     1      46.141   5.230  13.394  0.00  0.00    +0.000 A 
ATOM     22  C   UNL     1      46.842   6.397  13.117  0.00  0.00    +0.000 A 
ATOM     23  S   UNL     1      45.995   7.477  12.103  0.00  0.00    +0.000 S 
ATOM     24  C   UNL     1      44.645   6.442  12.038  0.00  0.00    +0.000 A 
ATOM     25  N   UNL     1      43.532   6.788  11.336  0.00  0.00    +0.000 NA
ATOM     26  C   UNL     1      42.573   5.926  11.399  0.00  0.00    +0.000 A 
ATOM     27  N   UNL     1      42.627   4.746  12.096  0.00  0.00    +0.000 N 
ATOM     28  C   UNL     1      43.743   4.338  12.788  0.00  0.00    +0.000 A 
ATOM     29  O   UNL     1      43.778   3.247  13.350  0.00  0.00    +0.000 OA
ATOM     30  C   UNL     1      44.844   5.281  12.764  0.00  0.00    +0.000 A 
ATOM     35  H   UNL     1      41.846   4.106  12.092  0.00  0.00    +0.000 HD
ENDBRANCH  19  21
ENDBRANCH  17  18
ENDBRANCH  16  17
TORSDOF 14
ENDMDL
