MODEL 1
REMARK VINA RESULT:    -6.625      0.000      0.000
REMARK INTER + INTRA:         -12.328
REMARK INTER:                 -11.273
REMARK INTRA:                  -1.055
REMARK UNBOUND:                -1.055
REMARK  Name = 
REMARK  13 active torsions:
REMARK  status: ('A' for Active; 'I' for Inactive)
REMARK    1  A    between atoms: C_1  and  C_2
REMARK    2  A    between atoms: C_2  and  O_3
REMARK    3  A    between atoms: O_3  and  C_4
REMARK    4  A    between atoms: C_4  and  C_5
REMARK    5  A    between atoms: C_5  and  O_6
REMARK    6  A    between atoms: O_6  and  C_7
REMARK    7  A    between atoms: C_7  and  C_8
REMARK    8  A    between atoms: C_8  and  N_9
REMARK    9  A    between atoms: N_9  and  C_10
REMARK   10  A    between atoms: C_10  and  C_11
REMARK   11  A    between atoms: C_14  and  C_15
REMARK   12  A    between atoms: C_15  and  N_16
REMARK   13  A    between atoms: C_17  and  C_19
REMARK                            x       y       z     vdW  Elec       q    Type
REMARK                         _______ _______ _______ _____ _____    ______ ____
ROOT
ATOM     11  C   UNL     1      44.808   5.161  11.413  0.00  0.00    +0.000 A 
ATOM     12  C   UNL     1      45.121   4.633  12.672  0.00  0.00    +0.000 A 
ATOM     13  C   UNL     1      46.254   5.060  13.365  0.00  0.00    +0.000 A 
ATOM     14  C   UNL     1      47.106   6.027  12.814  0.00  0.00    +0.000 A 
ATOM     29  C   UNL     1      46.789   6.553  11.550  0.00  0.00    +0.000 A 
ATOM     30  C   UNL     1      45.637   6.147  10.870  0.00  0.00    +0.000 A 
ENDROOT
BRANCH  11  10
ATOM     10  C   UNL     1      43.646   4.608  10.628  0.00  0.00    +0.000 C 
BRANCH  10   9
ATOM      9  N   UNL     1      44.131   3.990   9.401  0.00  0.00    +0.000 NA
ATOM     31  H   UNL     1      43.413   4.061   8.685  0.00  0.00    +0.000 HD
BRANCH   9   8
ATOM      8  C   UNL     1      44.478   2.590   9.600  0.00  0.00    +0.000 C 
BRANCH   8   7
ATOM      7  C   UNL     1      45.668   2.233   8.712  0.00  0.00    +0.000 C 
BRANCH   7   6
ATOM      6  O   UNL     1      45.653   0.829   8.470  0.00  0.00    +0.000 OA
BRANCH   6   5
ATOM      5  C   UNL     1      46.752   0.447   7.647  0.00  0.00    +0.000 C 
BRANCH   5   4
ATOM      4  C   UNL     1      47.610   1.671   7.378  0.00  0.00    +0.000 C 
BRANCH   4   3
ATOM      3  O   UNL     1      48.189   1.567   6.080  0.00  0.00    +0.000 OA
BRANCH   3   2
ATOM      1  C   UNL     1      46.931   3.560   5.700  0.00  0.00    +0.000 C 
ATOM      2  C   UNL     1      47.393   2.244   5.111  0.00  0.00    +0.000 C 
ENDBRANCH   3   2
ENDBRANCH   4   3
ENDBRANCH   5   4
ENDBRANCH   6   5
ENDBRANCH   7   6
ENDBRANCH   8   7
ENDBRANCH   9   8
ENDBRANCH  10   9
ENDBRANCH  11  10
BRANCH  14  15
ATOM     15  C   UNL     1      48.337   6.521  13.539  0.00  0.00    +0.000 C 
BRANCH  15  16
ATOM     16  N   UNL     1      48.185   6.521  14.973  0.00  0.00    +0.000 N 
ATOM     17  C   UNL     1      49.128   7.082  15.806  0.00  0.00    +0.000 C 
ATOM     18  O   UNL     1      50.137   7.628  15.395  0.00  0.00    +0.000 OA
ATOM     32  H   UNL     1      47.583   5.805  15.363  0.00  0.00    +0.000 HD
BRANCH  17  19
ATOM     19  C   UNL     1      48.802   7.027  17.238  0.00  0.00    +0.000 A 
ATOM     20  C   UNL     1      48.424   8.181  17.916  0.00  0.00    +0.000 A 
ATOM     21  S   UNL     1      48.106   7.922  19.574  0.00  0.00    +0.000 S 
ATOM     22  C   UNL     1      48.476   6.266  19.446  0.00  0.00    +0.000 A 
ATOM     23  N   UNL     1      48.439   5.450  20.534  0.00  0.00    +0.000 NA
ATOM     24  C   UNL     1      48.748   4.218  20.287  0.00  0.00    +0.000 A 
ATOM     25  N   UNL     1      49.080   3.728  19.048  0.00  0.00    +0.000 N 
ATOM     26  C   UNL     1      49.093   4.504  17.917  0.00  0.00    +0.000 A 
ATOM     27  O   UNL     1      49.326   4.020  16.825  0.00  0.00    +0.000 OA
ATOM     28  C   UNL     1      48.793   5.909  18.150  0.00  0.00    +0.000 A 
ATOM     33  H   UNL     1      49.267   2.746  18.916  0.00  0.00    +0.000 HD
ENDBRANCH  17  19
ENDBRANCH  15  16
ENDBRANCH  14  15
TORSDOF 12
ENDMDL
MODEL 2
REMARK VINA RESULT:    -6.621      3.064      3.945
REMARK INTER + INTRA:         -12.321
REMARK INTER:                 -10.988
REMARK INTRA:                  -1.332
REMARK UNBOUND:                -1.055
REMARK  Name = 
REMARK  13 active torsions:
REMARK  status: ('A' for Active; 'I' for Inactive)
REMARK    1  A    between atoms: C_1  and  C_2
REMARK    2  A    between atoms: C_2  and  O_3
REMARK    3  A    between atoms: O_3  and  C_4
REMARK    4  A    between atoms: C_4  and  C_5
REMARK    5  A    between atoms: C_5  and  O_6
REMARK    6  A    between atoms: O_6  and  C_7
REMARK    7  A    between atoms: C_7  and  C_8
REMARK    8  A    between atoms: C_8  and  N_9
REMARK    9  A    between atoms: N_9  and  C_10
REMARK   10  A    between atoms: C_10  and  C_11
REMARK   11  A    between atoms: C_14  and  C_15
REMARK   12  A    between atoms: C_15  and  N_16
REMARK   13  A    between atoms: C_17  and  C_19
REMARK                            x       y       z     vdW  Elec       q    Type
REMARK                         _______ _______ _______ _____ _____    ______ ____
ROOT
ATOM     11  C   UNL     1      46.721   4.518  13.632  0.00  0.00    +0.000 A 
ATOM     12  C   UNL     1      46.775   3.773  14.818  0.00  0.00    +0.000 A 
ATOM     13  C   UNL     1      47.423   4.272  15.947  0.00  0.00    +0.000 A 
ATOM     14  C   UNL     1      48.036   5.533  15.920  0.00  0.00    +0.000 A 
ATOM     29  C   UNL     1      47.981   6.275  14.729  0.00  0.00    +0.000 A 
ATOM     30  C   UNL     1      47.304   5.787  13.607  0.00  0.00    +0.000 A 
ENDROOT
BRANCH  11  10
ATOM     10  C   UNL     1      46.118   3.917  12.389  0.00  0.00    +0.000 C 
BRANCH  10   9
ATOM      9  N   UNL     1      45.149   2.894  12.757  0.00  0.00    +0.000 NA
ATOM     31  H   UNL     1      45.431   2.004  12.354  0.00  0.00    +0.000 HD
BRANCH   9   8
ATOM      8  C   UNL     1      43.808   3.228  12.298  0.00  0.00    +0.000 C 
BRANCH   8   7
ATOM      7  C   UNL     1      43.876   3.722  10.855  0.00  0.00    +0.000 C 
BRANCH   7   6
ATOM      6  O   UNL     1      43.880   2.593   9.985  0.00  0.00    +0.000 OA
BRANCH   6   5
ATOM      5  C   UNL     1      45.007   2.634   9.112  0.00  0.00    +0.000 C 
BRANCH   5   4
ATOM      4  C   UNL     1      45.267   4.077   8.716  0.00  0.00    +0.000 C 
BRANCH   4   3
ATOM      3  O   UNL     1      45.733   4.121   7.369  0.00  0.00    +0.000 OA
BRANCH   3   2
ATOM      1  C   UNL     1      46.886   2.833   5.723  0.00  0.00    +0.000 C 
ATOM      2  C   UNL     1      46.833   3.236   7.182  0.00  0.00    +0.000 C 
ENDBRANCH   3   2
ENDBRANCH   4   3
ENDBRANCH   5   4
ENDBRANCH   6   5
ENDBRANCH   7   6
ENDBRANCH   8   7
ENDBRANCH   9   8
ENDBRANCH  10   9
ENDBRANCH  11  10
BRANCH  14  15
ATOM     15  C   UNL     1      48.739   6.110  17.127  0.00  0.00    +0.000 C 
BRANCH  15  16
ATOM     16  N   UNL     1      49.792   5.262  17.627  0.00  0.00    +0.000 N 
ATOM     17  C   UNL     1      51.079   5.332  17.140  0.00  0.00    +0.000 C 
ATOM     18  O   UNL     1      51.420   6.121  16.275  0.00  0.00    +0.000 OA
ATOM     32  H   UNL     1      49.503   4.393  18.061  0.00  0.00    +0.000 HD
BRANCH  17  19
ATOM     19  C   UNL     1      52.036   4.421  17.782  0.00  0.00    +0.000 A 
ATOM     20  C   UNL     1      53.111   4.929  18.506  0.00  0.00    +0.000 A 
ATOM     21  S   UNL     1      54.123   3.718  19.160  0.00  0.00    +0.000 S 
ATOM     22  C   UNL     1      53.171   2.478  18.486  0.00  0.00    +0.000 A 
ATOM     23  N   UNL     1      53.511   1.169  18.638  0.00  0.00    +0.000 NA
ATOM     24  C   UNL     1      52.698   0.339  18.069  0.00  0.00    +0.000 A 
ATOM     25  N   UNL     1      51.572   0.699  17.372  0.00  0.00    +0.000 N 
ATOM     26  C   UNL     1      51.170   2.002  17.226  0.00  0.00    +0.000 A 
ATOM     27  O   UNL     1      50.129   2.280  16.659  0.00  0.00    +0.000 OA
ATOM     28  C   UNL     1      52.075   2.979  17.813  0.00  0.00    +0.000 A 
ATOM     33  H   UNL     1      50.956  -0.002  16.990  0.00  0.00    +0.000 HD
ENDBRANCH  17  19
ENDBRANCH  15  16
ENDBRANCH  14  15
TORSDOF 12
ENDMDL
MODEL 3
REMARK VINA RESULT:    -6.600      1.929      2.709
REMARK INTER + INTRA:         -12.286
REMARK INTER:                 -10.948
REMARK INTRA:                  -1.338
REMARK UNBOUND:                -1.055
REMARK  Name = 
REMARK  13 active torsions:
REMARK  status: ('A' for Active; 'I' for Inactive)
REMARK    1  A    between atoms: C_1  and  C_2
REMARK    2  A    between atoms: C_2  and  O_3
REMARK    3  A    between atoms: O_3  and  C_4
REMARK    4  A    between atoms: C_4  and  C_5
REMARK    5  A    between atoms: C_5  and  O_6
REMARK    6  A    between atoms: O_6  and  C_7
REMARK    7  A    between atoms: C_7  and  C_8
REMARK    8  A    between atoms: C_8  and  N_9
REMARK    9  A    between atoms: N_9  and  C_10
REMARK   10  A    between atoms: C_10  and  C_11
REMARK   11  A    between atoms: C_14  and  C_15
REMARK   12  A    between atoms: C_15  and  N_16
REMARK   13  A    between atoms: C_17  and  C_19
REMARK                            x       y       z     vdW  Elec       q    Type
REMARK                         _______ _______ _______ _____ _____    ______ ____
ROOT
ATOM     11  C   UNL     1      44.878   7.464  11.555  0.00  0.00    +0.000 A 
ATOM     12  C   UNL     1      45.224   8.511  12.421  0.00  0.00    +0.000 A 
ATOM     13  C   UNL     1      46.513   8.609  12.944  0.00  0.00    +0.000 A 
ATOM     14  C   UNL     1      47.492   7.661  12.615  0.00  0.00    +0.000 A 
ATOM     29  C   UNL     1      47.140   6.613  11.749  0.00  0.00    +0.000 A 
ATOM     30  C   UNL     1      45.856   6.532  11.201  0.00  0.00    +0.000 A 
ENDROOT
BRANCH  11  10
ATOM     10  C   UNL     1      43.454   7.307  11.090  0.00  0.00    +0.000 C 
BRANCH  10   9
ATOM      9  N   UNL     1      43.228   5.937  10.651  0.00  0.00    +0.000 NA
ATOM     31  H   UNL     1      42.664   5.945   9.805  0.00  0.00    +0.000 HD
BRANCH   9   8
ATOM      8  C   UNL     1      42.556   5.144  11.671  0.00  0.00    +0.000 C 
BRANCH   8   7
ATOM      7  C   UNL     1      43.369   3.882  11.948  0.00  0.00    +0.000 C 
BRANCH   7   6
ATOM      6  O   UNL     1      43.319   3.044  10.797  0.00  0.00    +0.000 OA
BRANCH   6   5
ATOM      5  C   UNL     1      44.631   2.797  10.296  0.00  0.00    +0.000 C 
BRANCH   5   4
ATOM      4  C   UNL     1      44.609   2.930   8.783  0.00  0.00    +0.000 C 
BRANCH   4   3
ATOM      3  O   UNL     1      45.888   2.579   8.259  0.00  0.00    +0.000 OA
BRANCH   3   2
ATOM      1  C   UNL     1      46.746   2.828   6.045  0.00  0.00    +0.000 C 
ATOM      2  C   UNL     1      46.334   3.546   7.312  0.00  0.00    +0.000 C 
ENDBRANCH   3   2
ENDBRANCH   4   3
ENDBRANCH   5   4
ENDBRANCH   6   5
ENDBRANCH   7   6
ENDBRANCH   8   7
ENDBRANCH   9   8
ENDBRANCH  10   9
ENDBRANCH  11  10
BRANCH  14  15
ATOM     15  C   UNL     1      48.902   7.741  13.156  0.00  0.00    +0.000 C 
BRANCH  15  16
ATOM     16  N   UNL     1      49.099   6.942  14.339  0.00  0.00    +0.000 N 
ATOM     17  C   UNL     1      48.899   7.448  15.604  0.00  0.00    +0.000 C 
ATOM     18  O   UNL     1      48.527   8.591  15.811  0.00  0.00    +0.000 OA
ATOM     32  H   UNL     1      49.721   6.146  14.246  0.00  0.00    +0.000 HD
BRANCH  17  19
ATOM     19  C   UNL     1      49.113   6.491  16.697  0.00  0.00    +0.000 A 
ATOM     20  C   UNL     1      49.993   6.792  17.732  0.00  0.00    +0.000 A 
ATOM     21  S   UNL     1      50.123   5.551  18.898  0.00  0.00    +0.000 S 
ATOM     22  C   UNL     1      49.022   4.564  18.053  0.00  0.00    +0.000 A 
ATOM     23  N   UNL     1      48.710   3.317  18.500  0.00  0.00    +0.000 NA
ATOM     24  C   UNL     1      47.864   2.681  17.755  0.00  0.00    +0.000 A 
ATOM     25  N   UNL     1      47.296   3.185  16.611  0.00  0.00    +0.000 N 
ATOM     26  C   UNL     1      47.551   4.449  16.145  0.00  0.00    +0.000 A 
ATOM     27  O   UNL     1      46.976   4.887  15.165  0.00  0.00    +0.000 OA
ATOM     28  C   UNL     1      48.530   5.190  16.926  0.00  0.00    +0.000 A 
ATOM     33  H   UNL     1      46.608   2.653  16.101  0.00  0.00    +0.000 HD
ENDBRANCH  17  19
ENDBRANCH  15  16
ENDBRANCH  14  15
TORSDOF 12
ENDMDL
MODEL 4
REMARK VINA RESULT:    -6.347      2.081      2.617
REMARK INTER + INTRA:         -11.854
REMARK INTER:                 -10.651
REMARK INTRA:                  -1.203
REMARK UNBOUND:                -1.055
REMARK  Name = 
REMARK  13 active torsions:
REMARK  status: ('A' for Active; 'I' for Inactive)
REMARK    1  A    between atoms: C_1  and  C_2
REMARK    2  A    between atoms: C_2  and  O_3
REMARK    3  A    between atoms: O_3  and  C_4
REMARK    4  A    between atoms: C_4  and  C_5
REMARK    5  A    between atoms: C_5  and  O_6
REMARK    6  A    between atoms: O_6  and  C_7
REMARK    7  A    between atoms: C_7  and  C_8
REMARK    8  A    between atoms: C_8  and  N_9
REMARK    9  A    between atoms: N_9  and  C_10
REMARK   10  A    between atoms: C_10  and  C_11
REMARK   11  A    between atoms: C_14  and  C_15
REMARK   12  A    between atoms: C_15  and  N_16
REMARK   13  A    between atoms: C_17  and  C_19
REMARK                            x       y       z     vdW  Elec       q    Type
REMARK                         _______ _______ _______ _____ _____    ______ ____
ROOT
ATOM     11  C   UNL     1      44.582   5.284  12.917  0.00  0.00    +0.000 A 
ATOM     12  C   UNL     1      44.625   6.546  12.310  0.00  0.00    +0.000 A 
ATOM     13  C   UNL     1      45.798   7.299  12.308  0.00  0.00    +0.000 A 
ATOM     14  C   UNL     1      46.962   6.810  12.917  0.00  0.00    +0.000 A 
ATOM     29  C   UNL     1      46.914   5.546  13.527  0.00  0.00    +0.000 A 
ATOM     30  C   UNL     1      45.746   4.777  13.501  0.00  0.00    +0.000 A 
ENDROOT
BRANCH  11  10
ATOM     10  C   UNL     1      43.279   4.533  13.011  0.00  0.00    +0.000 C 
BRANCH  10   9
ATOM      9  N   UNL     1      42.880   4.074  11.687  0.00  0.00    +0.000 NA
ATOM     31  H   UNL     1      41.887   3.857  11.694  0.00  0.00    +0.000 HD
BRANCH   9   8
ATOM      8  C   UNL     1      43.629   2.896  11.274  0.00  0.00    +0.000 C 
BRANCH   8   7
ATOM      7  C   UNL     1      44.214   3.131   9.883  0.00  0.00    +0.000 C 
BRANCH   7   6
ATOM      6  O   UNL     1      44.605   1.877   9.333  0.00  0.00    +0.000 OA
BRANCH   6   5
ATOM      5  C   UNL     1      45.770   2.021   8.525  0.00  0.00    +0.000 C 
BRANCH   5   4
ATOM      4  C   UNL     1      45.695   3.349   7.791  0.00  0.00    +0.000 C 
BRANCH   4   3
ATOM      3  O   UNL     1      47.002   3.726   7.363  0.00  0.00    +0.000 OA
BRANCH   3   2
ATOM      1  C   UNL     1      47.501   2.553   5.344  0.00  0.00    +0.000 C 
ATOM      2  C   UNL     1      47.711   2.605   6.842  0.00  0.00    +0.000 C 
ENDBRANCH   3   2
ENDBRANCH   4   3
ENDBRANCH   5   4
ENDBRANCH   6   5
ENDBRANCH   7   6
ENDBRANCH   8   7
ENDBRANCH   9   8
ENDBRANCH  10   9
ENDBRANCH  11  10
BRANCH  14  15
ATOM     15  C   UNL     1      48.254   7.595  12.927  0.00  0.00    +0.000 C 
BRANCH  15  16
ATOM     16  N   UNL     1      49.238   7.052  13.829  0.00  0.00    +0.000 N 
ATOM     17  C   UNL     1      49.945   7.847  14.704  0.00  0.00    +0.000 C 
ATOM     18  O   UNL     1      49.777   9.052  14.790  0.00  0.00    +0.000 OA
ATOM     32  H   UNL     1      49.653   6.166  13.563  0.00  0.00    +0.000 HD
BRANCH  17  19
ATOM     19  C   UNL     1      50.884   7.129  15.575  0.00  0.00    +0.000 A 
ATOM     20  C   UNL     1      52.245   7.415  15.526  0.00  0.00    +0.000 A 
ATOM     21  S   UNL     1      53.179   6.466  16.596  0.00  0.00    +0.000 S 
ATOM     22  C   UNL     1      51.802   5.633  17.150  0.00  0.00    +0.000 A 
ATOM     23  N   UNL     1      51.905   4.636  18.070  0.00  0.00    +0.000 NA
ATOM     24  C   UNL     1      50.778   4.090  18.393  0.00  0.00    +0.000 A 
ATOM     25  N   UNL     1      49.556   4.460  17.888  0.00  0.00    +0.000 N 
ATOM     26  C   UNL     1      49.399   5.484  16.989  0.00  0.00    +0.000 A 
ATOM     27  O   UNL     1      48.294   5.829  16.615  0.00  0.00    +0.000 OA
ATOM     28  C   UNL     1      50.645   6.103  16.561  0.00  0.00    +0.000 A 
ATOM     33  H   UNL     1      48.709   4.023  18.216  0.00  0.00    +0.000 HD
ENDBRANCH  17  19
ENDBRANCH  15  16
ENDBRANCH  14  15
TORSDOF 12
ENDMDL
MODEL 5
REMARK VINA RESULT:    -6.342      3.133      8.939
REMARK INTER + INTRA:         -11.846
REMARK INTER:                  -9.659
REMARK INTRA:                  -2.187
REMARK UNBOUND:                -1.055
REMARK  Name = 
REMARK  13 active torsions:
REMARK  status: ('A' for Active; 'I' for Inactive)
REMARK    1  A    between atoms: C_1  and  C_2
REMARK    2  A    between atoms: C_2  and  O_3
REMARK    3  A    between atoms: O_3  and  C_4
REMARK    4  A    between atoms: C_4  and  C_5
REMARK    5  A    between atoms: C_5  and  O_6
REMARK    6  A    between atoms: O_6  and  C_7
REMARK    7  A    between atoms: C_7  and  C_8
REMARK    8  A    between atoms: C_8  and  N_9
REMARK    9  A    between atoms: N_9  and  C_10
REMARK   10  A    between atoms: C_10  and  C_11
REMARK   11  A    between atoms: C_14  and  C_15
REMARK   12  A    between atoms: C_15  and  N_16
REMARK   13  A    between atoms: C_17  and  C_19
REMARK                            x       y       z     vdW  Elec       q    Type
REMARK                         _______ _______ _______ _____ _____    ______ ____
ROOT
ATOM     11  C   UNL     1      49.467   8.149  15.844  0.00  0.00    +0.000 A 
ATOM     12  C   UNL     1      50.140   7.446  14.836  0.00  0.00    +0.000 A 
ATOM     13  C   UNL     1      49.585   7.315  13.563  0.00  0.00    +0.000 A 
ATOM     14  C   UNL     1      48.339   7.883  13.266  0.00  0.00    +0.000 A 
ATOM     29  C   UNL     1      47.667   8.586  14.280  0.00  0.00    +0.000 A 
ATOM     30  C   UNL     1      48.238   8.742  15.547  0.00  0.00    +0.000 A 
ENDROOT
BRANCH  11  10
ATOM     10  C   UNL     1      50.026   8.183  17.244  0.00  0.00    +0.000 C 
BRANCH  10   9
ATOM      9  N   UNL     1      49.700   6.943  17.934  0.00  0.00    +0.000 NA
ATOM     31  H   UNL     1      48.893   7.096  18.533  0.00  0.00    +0.000 HD
BRANCH   9   8
ATOM      8  C   UNL     1      50.814   6.462  18.739  0.00  0.00    +0.000 C 
BRANCH   8   7
ATOM      7  C   UNL     1      51.816   5.743  17.837  0.00  0.00    +0.000 C 
BRANCH   7   6
ATOM      6  O   UNL     1      51.107   4.837  16.998  0.00  0.00    +0.000 OA
BRANCH   6   5
ATOM      5  C   UNL     1      50.761   3.653  17.713  0.00  0.00    +0.000 C 
BRANCH   5   4
ATOM      4  C   UNL     1      49.299   3.333  17.451  0.00  0.00    +0.000 C 
BRANCH   4   3
ATOM      3  O   UNL     1      48.775   4.259  16.502  0.00  0.00    +0.000 OA
BRANCH   3   2
ATOM      1  C   UNL     1      47.083   4.689  14.874  0.00  0.00    +0.000 C 
ATOM      2  C   UNL     1      47.457   3.892  16.106  0.00  0.00    +0.000 C 
ENDBRANCH   3   2
ENDBRANCH   4   3
ENDBRANCH   5   4
ENDBRANCH   6   5
ENDBRANCH   7   6
ENDBRANCH   8   7
ENDBRANCH   9   8
ENDBRANCH  10   9
ENDBRANCH  11  10
BRANCH  14  15
ATOM     15  C   UNL     1      47.711   7.770  11.895  0.00  0.00    +0.000 C 
BRANCH  15  16
ATOM     16  N   UNL     1      46.927   6.571  11.731  0.00  0.00    +0.000 N 
ATOM     17  C   UNL     1      45.550   6.595  11.717  0.00  0.00    +0.000 C 
ATOM     18  O   UNL     1      44.903   7.623  11.822  0.00  0.00    +0.000 OA
ATOM     32  H   UNL     1      47.377   5.700  11.988  0.00  0.00    +0.000 HD
BRANCH  17  19
ATOM     19  C   UNL     1      44.908   5.291  11.507  0.00  0.00    +0.000 A 
ATOM     20  C   UNL     1      44.109   4.734  12.500  0.00  0.00    +0.000 A 
ATOM     21  S   UNL     1      43.466   3.208  12.081  0.00  0.00    +0.000 S 
ATOM     22  C   UNL     1      44.245   3.232  10.568  0.00  0.00    +0.000 A 
ATOM     23  N   UNL     1      44.141   2.184   9.706  0.00  0.00    +0.000 NA
ATOM     24  C   UNL     1      44.788   2.340   8.597  0.00  0.00    +0.000 A 
ATOM     25  N   UNL     1      45.521   3.454   8.269  0.00  0.00    +0.000 N 
ATOM     26  C   UNL     1      45.623   4.548   9.088  0.00  0.00    +0.000 A 
ATOM     27  O   UNL     1      46.225   5.545   8.734  0.00  0.00    +0.000 OA
ATOM     28  C   UNL     1      44.946   4.405  10.368  0.00  0.00    +0.000 A 
ATOM     33  H   UNL     1      45.966   3.530   7.367  0.00  0.00    +0.000 HD
ENDBRANCH  17  19
ENDBRANCH  15  16
ENDBRANCH  14  15
TORSDOF 12
ENDMDL
MODEL 6
REMARK VINA RESULT:    -6.236      5.135      9.721
REMARK INTER + INTRA:         -11.666
REMARK INTER:                 -10.605
REMARK INTRA:                  -1.061
REMARK UNBOUND:                -1.055
REMARK  Name = 
REMARK  13 active torsions:
REMARK  status: ('A' for Active; 'I' for Inactive)
REMARK    1  A    between atoms: C_1  and  C_2
REMARK    2  A    between atoms: C_2  and  O_3
REMARK    3  A    between atoms: O_3  and  C_4
REMARK    4  A    between atoms: C_4  and  C_5
REMARK    5  A    between atoms: C_5  and  O_6
REMARK    6  A    between atoms: O_6  and  C_7
REMARK    7  A    between atoms: C_7  and  C_8
REMARK    8  A    between atoms: C_8  and  N_9
REMARK    9  A    between atoms: N_9  and  C_10
REMARK   10  A    between atoms: C_10  and  C_11
REMARK   11  A    between atoms: C_14  and  C_15
REMARK   12  A    between atoms: C_15  and  N_16
REMARK   13  A    between atoms: C_17  and  C_19
REMARK                            x       y       z     vdW  Elec       q    Type
REMARK                         _______ _______ _______ _____ _____    ______ ____
ROOT
ATOM     11  C   UNL     1      51.123   2.311  17.490  0.00  0.00    +0.000 A 
ATOM     12  C   UNL     1      49.739   2.198  17.300  0.00  0.00    +0.000 A 
ATOM     13  C   UNL     1      48.936   3.333  17.197  0.00  0.00    +0.000 A 
ATOM     14  C   UNL     1      49.498   4.615  17.283  0.00  0.00    +0.000 A 
ATOM     29  C   UNL     1      50.885   4.724  17.475  0.00  0.00    +0.000 A 
ATOM     30  C   UNL     1      51.693   3.585  17.547  0.00  0.00    +0.000 A 
ENDROOT
BRANCH  11  10
ATOM     10  C   UNL     1      51.958   1.077  17.714  0.00  0.00    +0.000 C 
BRANCH  10   9
ATOM      9  N   UNL     1      53.077   1.394  18.591  0.00  0.00    +0.000 NA
ATOM     31  H   UNL     1      53.226   2.399  18.594  0.00  0.00    +0.000 HD
BRANCH   9   8
ATOM      8  C   UNL     1      54.301   0.725  18.171  0.00  0.00    +0.000 C 
BRANCH   8   7
ATOM      7  C   UNL     1      55.066   0.250  19.404  0.00  0.00    +0.000 C 
BRANCH   7   6
ATOM      6  O   UNL     1      54.444  -0.933  19.900  0.00  0.00    +0.000 OA
BRANCH   6   5
ATOM      5  C   UNL     1      54.284  -1.893  18.858  0.00  0.00    +0.000 C 
BRANCH   5   4
ATOM      4  C   UNL     1      53.436  -3.041  19.378  0.00  0.00    +0.000 C 
BRANCH   4   3
ATOM      3  O   UNL     1      53.570  -4.160  18.504  0.00  0.00    +0.000 OA
BRANCH   3   2
ATOM      1  C   UNL     1      52.076  -5.684  17.434  0.00  0.00    +0.000 C 
ATOM      2  C   UNL     1      52.555  -5.128  18.758  0.00  0.00    +0.000 C 
ENDBRANCH   3   2
ENDBRANCH   4   3
ENDBRANCH   5   4
ENDBRANCH   6   5
ENDBRANCH   7   6
ENDBRANCH   8   7
ENDBRANCH   9   8
ENDBRANCH  10   9
ENDBRANCH  11  10
BRANCH  14  15
ATOM     15  C   UNL     1      48.660   5.868  17.166  0.00  0.00    +0.000 C 
BRANCH  15  16
ATOM     16  N   UNL     1      47.810   5.873  16.002  0.00  0.00    +0.000 N 
ATOM     17  C   UNL     1      48.262   6.290  14.770  0.00  0.00    +0.000 C 
ATOM     18  O   UNL     1      49.406   6.663  14.573  0.00  0.00    +0.000 OA
ATOM     32  H   UNL     1      46.811   5.917  16.173  0.00  0.00    +0.000 HD
BRANCH  17  19
ATOM     19  C   UNL     1      47.277   6.200  13.683  0.00  0.00    +0.000 A 
ATOM     20  C   UNL     1      46.887   7.344  12.994  0.00  0.00    +0.000 A 
ATOM     21  S   UNL     1      45.721   7.043  11.782  0.00  0.00    +0.000 S 
ATOM     22  C   UNL     1      45.687   5.381  12.147  0.00  0.00    +0.000 A 
ATOM     23  N   UNL     1      44.852   4.533  11.487  0.00  0.00    +0.000 NA
ATOM     24  C   UNL     1      44.932   3.301  11.873  0.00  0.00    +0.000 A 
ATOM     25  N   UNL     1      45.779   2.839  12.850  0.00  0.00    +0.000 N 
ATOM     26  C   UNL     1      46.664   3.650  13.514  0.00  0.00    +0.000 A 
ATOM     27  O   UNL     1      47.447   3.193  14.326  0.00  0.00    +0.000 OA
ATOM     28  C   UNL     1      46.583   5.055  13.145  0.00  0.00    +0.000 A 
ATOM     33  H   UNL     1      45.823   1.857  13.072  0.00  0.00    +0.000 HD
ENDBRANCH  17  19
ENDBRANCH  15  16
ENDBRANCH  14  15
TORSDOF 12
ENDMDL
MODEL 7
REMARK VINA RESULT:    -6.224      4.825     10.199
REMARK INTER + INTRA:         -11.645
REMARK INTER:                 -10.675
REMARK INTRA:                  -0.970
REMARK UNBOUND:                -1.055
REMARK  Name = 
REMARK  13 active torsions:
REMARK  status: ('A' for Active; 'I' for Inactive)
REMARK    1  A    between atoms: C_1  and  C_2
REMARK    2  A    between atoms: C_2  and  O_3
REMARK    3  A    between atoms: O_3  and  C_4
REMARK    4  A    between atoms: C_4  and  C_5
REMARK    5  A    between atoms: C_5  and  O_6
REMARK    6  A    between atoms: O_6  and  C_7
REMARK    7  A    between atoms: C_7  and  C_8
REMARK    8  A    between atoms: C_8  and  N_9
REMARK    9  A    between atoms: N_9  and  C_10
REMARK   10  A    between atoms: C_10  and  C_11
REMARK   11  A    between atoms: C_14  and  C_15
REMARK   12  A    between atoms: C_15  and  N_16
REMARK   13  A    between atoms: C_17  and  C_19
REMARK                            x       y       z     vdW  Elec       q    Type
REMARK                         _______ _______ _______ _____ _____    ______ ____
ROOT
ATOM     11  C   UNL     1      51.352   3.500  17.715  0.00  0.00    +0.000 A 
ATOM     12  C   UNL     1      50.716   2.304  17.354  0.00  0.00    +0.000 A 
ATOM     13  C   UNL     1      49.349   2.276  17.078  0.00  0.00    +0.000 A 
ATOM     14  C   UNL     1      48.581   3.446  17.158  0.00  0.00    +0.000 A 
ATOM     29  C   UNL     1      49.221   4.641  17.522  0.00  0.00    +0.000 A 
ATOM     30  C   UNL     1      50.597   4.674  17.768  0.00  0.00    +0.000 A 
ENDROOT
BRANCH  11  10
ATOM     10  C   UNL     1      52.803   3.492  18.120  0.00  0.00    +0.000 C 
BRANCH  10   9
ATOM      9  N   UNL     1      53.104   2.264  18.844  0.00  0.00    +0.000 NA
ATOM     31  H   UNL     1      52.349   2.065  19.495  0.00  0.00    +0.000 HD
BRANCH   9   8
ATOM      8  C   UNL     1      54.360   2.361  19.576  0.00  0.00    +0.000 C 
BRANCH   8   7
ATOM      7  C   UNL     1      55.211   1.126  19.285  0.00  0.00    +0.000 C 
BRANCH   7   6
ATOM      6  O   UNL     1      54.975   0.159  20.304  0.00  0.00    +0.000 OA
BRANCH   6   5
ATOM      5  C   UNL     1      55.199  -1.160  19.809  0.00  0.00    +0.000 C 
BRANCH   5   4
ATOM      4  C   UNL     1      54.142  -1.476  18.765  0.00  0.00    +0.000 C 
BRANCH   4   3
ATOM      3  O   UNL     1      52.931  -1.850  19.417  0.00  0.00    +0.000 OA
BRANCH   3   2
ATOM      1  C   UNL     1      53.005  -4.209  19.061  0.00  0.00    +0.000 C 
ATOM      2  C   UNL     1      53.077  -3.099  20.087  0.00  0.00    +0.000 C 
ENDBRANCH   3   2
ENDBRANCH   4   3
ENDBRANCH   5   4
ENDBRANCH   6   5
ENDBRANCH   7   6
ENDBRANCH   8   7
ENDBRANCH   9   8
ENDBRANCH  10   9
ENDBRANCH  11  10
BRANCH  14  15
ATOM     15  C   UNL     1      47.099   3.455  16.857  0.00  0.00    +0.000 C 
BRANCH  15  16
ATOM     16  N   UNL     1      46.730   4.431  15.863  0.00  0.00    +0.000 N 
ATOM     17  C   UNL     1      46.887   4.196  14.515  0.00  0.00    +0.000 C 
ATOM     18  O   UNL     1      47.326   3.149  14.070  0.00  0.00    +0.000 OA
ATOM     32  H   UNL     1      46.702   5.397  16.169  0.00  0.00    +0.000 HD
BRANCH  17  19
ATOM     19  C   UNL     1      46.431   5.282  13.638  0.00  0.00    +0.000 A 
ATOM     20  C   UNL     1      47.239   6.393  13.419  0.00  0.00    +0.000 A 
ATOM     21  S   UNL     1      46.531   7.557  12.388  0.00  0.00    +0.000 S 
ATOM     22  C   UNL     1      45.118   6.624  12.211  0.00  0.00    +0.000 A 
ATOM     23  N   UNL     1      44.068   7.070  11.468  0.00  0.00    +0.000 NA
ATOM     24  C   UNL     1      43.062   6.259  11.427  0.00  0.00    +0.000 A 
ATOM     25  N   UNL     1      43.015   5.037  12.053  0.00  0.00    +0.000 N 
ATOM     26  C   UNL     1      44.062   4.530  12.779  0.00  0.00    +0.000 A 
ATOM     27  O   UNL     1      44.011   3.415  13.262  0.00  0.00    +0.000 OA
ATOM     28  C   UNL     1      45.204   5.425  12.891  0.00  0.00    +0.000 A 
ATOM     33  H   UNL     1      42.216   4.432  11.943  0.00  0.00    +0.000 HD
ENDBRANCH  17  19
ENDBRANCH  15  16
ENDBRANCH  14  15
TORSDOF 12
ENDMDL
MODEL 8
REMARK VINA RESULT:    -6.109      2.243      3.017
REMARK INTER + INTRA:         -11.450
REMARK INTER:                 -10.385
REMARK INTRA:                  -1.065
REMARK UNBOUND:                -1.055
REMARK  Name = 
REMARK  13 active torsions:
REMARK  status: ('A' for Active; 'I' for Inactive)
REMARK    1  A    between atoms: C_1  and  C_2
REMARK    2  A    between atoms: C_2  and  O_3
REMARK    3  A    between atoms: O_3  and  C_4
REMARK    4  A    between atoms: C_4  and  C_5
REMARK    5  A    between atoms: C_5  and  O_6
REMARK    6  A    between atoms: O_6  and  C_7
REMARK    7  A    between atoms: C_7  and  C_8
REMARK    8  A    between atoms: C_8  and  N_9
REMARK    9  A    between atoms: N_9  and  C_10
REMARK   10  A    between atoms: C_10  and  C_11
REMARK   11  A    between atoms: C_14  and  C_15
REMARK   12  A    between atoms: C_15  and  N_16
REMARK   13  A    between atoms: C_17  and  C_19
REMARK                            x       y       z     vdW  Elec       q    Type
REMARK                         _______ _______ _______ _____ _____    ______ ____
ROOT
ATOM     11  C   UNL     1      46.445   6.258  12.043  0.00  0.00    +0.000 A 
ATOM     12  C   UNL     1      46.943   5.399  13.032  0.00  0.00    +0.000 A 
ATOM     13  C   UNL     1      47.680   5.897  14.106  0.00  0.00    +0.000 A 
ATOM     14  C   UNL     1      47.940   7.270  14.218  0.00  0.00    +0.000 A 
ATOM     29  C   UNL     1      47.441   8.127  13.223  0.00  0.00    +0.000 A 
ATOM     30  C   UNL     1      46.676   7.630  12.163  0.00  0.00    +0.000 A 
ENDROOT
BRANCH  11  10
ATOM     10  C   UNL     1      45.750   5.692  10.831  0.00  0.00    +0.000 C 
BRANCH  10   9
ATOM      9  N   UNL     1      44.310   5.858  10.968  0.00  0.00    +0.000 NA
ATOM     31  H   UNL     1      44.120   6.585  11.653  0.00  0.00    +0.000 HD
BRANCH   9   8
ATOM      8  C   UNL     1      43.659   4.623  11.383  0.00  0.00    +0.000 C 
BRANCH   8   7
ATOM      7  C   UNL     1      44.407   3.432  10.786  0.00  0.00    +0.000 C 
BRANCH   7   6
ATOM      6  O   UNL     1      43.852   3.137   9.508  0.00  0.00    +0.000 OA
BRANCH   6   5
ATOM      5  C   UNL     1      44.877   3.036   8.523  0.00  0.00    +0.000 C 
BRANCH   5   4
ATOM      4  C   UNL     1      45.651   1.749   8.754  0.00  0.00    +0.000 C 
BRANCH   4   3
ATOM      3  O   UNL     1      46.754   1.694   7.852  0.00  0.00    +0.000 OA
BRANCH   3   2
ATOM      1  C   UNL     1      47.683   2.440   5.783  0.00  0.00    +0.000 C 
ATOM      2  C   UNL     1      46.652   2.710   6.859  0.00  0.00    +0.000 C 
ENDBRANCH   3   2
ENDBRANCH   4   3
ENDBRANCH   5   4
ENDBRANCH   6   5
ENDBRANCH   7   6
ENDBRANCH   8   7
ENDBRANCH   9   8
ENDBRANCH  10   9
ENDBRANCH  11  10
BRANCH  14  15
ATOM     15  C   UNL     1      48.728   7.847  15.373  0.00  0.00    +0.000 C 
BRANCH  15  16
ATOM     16  N   UNL     1      49.707   6.931  15.902  0.00  0.00    +0.000 N 
ATOM     17  C   UNL     1      49.516   6.268  17.094  0.00  0.00    +0.000 C 
ATOM     18  O   UNL     1      48.509   6.392  17.770  0.00  0.00    +0.000 OA
ATOM     32  H   UNL     1      50.661   7.059  15.586  0.00  0.00    +0.000 HD
BRANCH  17  19
ATOM     19  C   UNL     1      50.596   5.346  17.472  0.00  0.00    +0.000 A 
ATOM     20  C   UNL     1      51.786   5.839  18.000  0.00  0.00    +0.000 A 
ATOM     21  S   UNL     1      52.927   4.619  18.359  0.00  0.00    +0.000 S 
ATOM     22  C   UNL     1      51.878   3.396  17.808  0.00  0.00    +0.000 A 
ATOM     23  N   UNL     1      52.261   2.091  17.804  0.00  0.00    +0.000 NA
ATOM     24  C   UNL     1      51.365   1.274  17.355  0.00  0.00    +0.000 A 
ATOM     25  N   UNL     1      50.116   1.645  16.920  0.00  0.00    +0.000 N 
ATOM     26  C   UNL     1      49.673   2.943  16.942  0.00  0.00    +0.000 A 
ATOM     27  O   UNL     1      48.536   3.225  16.613  0.00  0.00    +0.000 OA
ATOM     28  C   UNL     1      50.662   3.907  17.400  0.00  0.00    +0.000 A 
ATOM     33  H   UNL     1      49.447   0.951  16.623  0.00  0.00    +0.000 HD
ENDBRANCH  17  19
ENDBRANCH  15  16
ENDBRANCH  14  15
TORSDOF 12
ENDMDL
MODEL 9
REMARK VINA RESULT:    -6.017      3.319      4.909
REMARK INTER + INTRA:         -11.293
REMARK INTER:                 -10.362
REMARK INTRA:                  -0.931
REMARK UNBOUND:                -1.055
REMARK  Name = 
REMARK  13 active torsions:
REMARK  status: ('A' for Active; 'I' for Inactive)
REMARK    1  A    between atoms: C_1  and  C_2
REMARK    2  A    between atoms: C_2  and  O_3
REMARK    3  A    between atoms: O_3  and  C_4
REMARK    4  A    between atoms: C_4  and  C_5
REMARK    5  A    between atoms: C_5  and  O_6
REMARK    6  A    between atoms: O_6  and  C_7
REMARK    7  A    between atoms: C_7  and  C_8
REMARK    8  A    between atoms: C_8  and  N_9
REMARK    9  A    between atoms: N_9  and  C_10
REMARK   10  A    between atoms: C_10  and  C_11
REMARK   11  A    between atoms: C_14  and  C_15
REMARK   12  A    between atoms: C_15  and  N_16
REMARK   13  A    between atoms: C_17  and  C_19
REMARK                            x       y       z     vdW  Elec       q    Type
REMARK                         _______ _______ _______ _____ _____    ______ ____
ROOT
ATOM     11  C   UNL     1      47.514   5.876  13.989  0.00  0.00    +0.000 A 
ATOM     12  C   UNL     1      48.288   6.360  15.052  0.00  0.00    +0.000 A 
ATOM     13  C   UNL     1      48.458   5.608  16.214  0.00  0.00    +0.000 A 
ATOM     14  C   UNL     1      47.854   4.349  16.344  0.00  0.00    +0.000 A 
ATOM     29  C   UNL     1      47.077   3.869  15.277  0.00  0.00    +0.000 A 
ATOM     30  C   UNL     1      46.933   4.610  14.101  0.00  0.00    +0.000 A 
ENDROOT
BRANCH  11  10
ATOM     10  C   UNL     1      47.246   6.748  12.790  0.00  0.00    +0.000 C 
BRANCH  10   9
ATOM      9  N   UNL     1      45.853   6.616  12.386  0.00  0.00    +0.000 NA
ATOM     31  H   UNL     1      45.348   6.091  13.096  0.00  0.00    +0.000 HD
BRANCH   9   8
ATOM      8  C   UNL     1      45.723   5.942  11.102  0.00  0.00    +0.000 C 
BRANCH   8   7
ATOM      7  C   UNL     1      44.558   4.956  11.164  0.00  0.00    +0.000 C 
BRANCH   7   6
ATOM      6  O   UNL     1      45.055   3.645  10.911  0.00  0.00    +0.000 OA
BRANCH   6   5
ATOM      5  C   UNL     1      44.146   2.911  10.095  0.00  0.00    +0.000 C 
BRANCH   5   4
ATOM      4  C   UNL     1      44.813   2.615   8.763  0.00  0.00    +0.000 C 
BRANCH   4   3
ATOM      3  O   UNL     1      45.884   1.696   8.965  0.00  0.00    +0.000 OA
BRANCH   3   2
ATOM      1  C   UNL     1      46.964   2.729   7.103  0.00  0.00    +0.000 C 
ATOM      2  C   UNL     1      46.555   1.418   7.738  0.00  0.00    +0.000 C 
ENDBRANCH   3   2
ENDBRANCH   4   3
ENDBRANCH   5   4
ENDBRANCH   6   5
ENDBRANCH   7   6
ENDBRANCH   8   7
ENDBRANCH   9   8
ENDBRANCH  10   9
ENDBRANCH  11  10
BRANCH  14  15
ATOM     15  C   UNL     1      48.023   3.501  17.585  0.00  0.00    +0.000 C 
BRANCH  15  16
ATOM     16  N   UNL     1      49.401   3.186  17.870  0.00  0.00    +0.000 N 
ATOM     17  C   UNL     1      50.123   2.306  17.096  0.00  0.00    +0.000 C 
ATOM     18  O   UNL     1      49.661   1.749  16.115  0.00  0.00    +0.000 OA
ATOM     32  H   UNL     1      49.707   3.330  18.826  0.00  0.00    +0.000 HD
BRANCH  17  19
ATOM     19  C   UNL     1      51.522   2.123  17.506  0.00  0.00    +0.000 A 
ATOM     20  C   UNL     1      52.044   0.843  17.669  0.00  0.00    +0.000 A 
ATOM     21  S   UNL     1      53.678   0.833  18.166  0.00  0.00    +0.000 S 
ATOM     22  C   UNL     1      53.740   2.534  18.195  0.00  0.00    +0.000 A 
ATOM     23  N   UNL     1      54.867   3.191  18.581  0.00  0.00    +0.000 NA
ATOM     24  C   UNL     1      54.766   4.481  18.559  0.00  0.00    +0.000 A 
ATOM     25  N   UNL     1      53.643   5.171  18.174  0.00  0.00    +0.000 N 
ATOM     26  C   UNL     1      52.498   4.552  17.741  0.00  0.00    +0.000 A 
ATOM     27  O   UNL     1      51.546   5.198  17.344  0.00  0.00    +0.000 OA
ATOM     28  C   UNL     1      52.547   3.099  17.789  0.00  0.00    +0.000 A 
ATOM     33  H   UNL     1      53.646   6.179  18.137  0.00  0.00    +0.000 HD
ENDBRANCH  17  19
ENDBRANCH  15  16
ENDBRANCH  14  15
TORSDOF 12
ENDMDL
