MODEL 1
REMARK VINA RESULT:    -7.893      0.000      0.000
REMARK INTER + INTRA:         -14.739
REMARK INTER:                 -12.508
REMARK INTRA:                  -2.232
REMARK UNBOUND:                -2.232
REMARK  Name = 
REMARK  11 active torsions:
REMARK  status: ('A' for Active; 'I' for Inactive)
REMARK    1  A    between atoms: C_1  and  C_2
REMARK    2  A    between atoms: C_2  and  C_3
REMARK    3  A    between atoms: C_3  and  O_4
REMARK    4  A    between atoms: O_4  and  C_5
REMARK    5  A    between atoms: C_12  and  C_13
REMARK    6  A    between atoms: N_15  and  C_16
REMARK    7  A    between atoms: C_16  and  C_17
REMARK    8  A    between atoms: C_20  and  C_21
REMARK    9  A    between atoms: C_21  and  N_22
REMARK   10  A    between atoms: N_22  and  C_23
REMARK   11  A    between atoms: C_23  and  C_24
REMARK                            x       y       z     vdW  Elec       q    Type
REMARK                         _______ _______ _______ _____ _____    ______ ____
ROOT
ATOM     13  C   UNL     1      48.819   7.486  15.214  0.00  0.00    +0.000 C 
ATOM     14  O   UNL     1      49.803   6.964  14.694  0.00  0.00    +0.000 OA
ATOM     15  N   UNL     1      47.858   8.091  14.450  0.00  0.00    +0.000 N 
ATOM     33  H   UNL     1      47.068   8.547  14.889  0.00  0.00    +0.000 HD
ENDROOT
BRANCH  13  12
ATOM      5  C   UNL     1      48.670   4.946  17.546  0.00  0.00    +0.000 A 
ATOM      6  N   UNL     1      48.700   4.181  18.655  0.00  0.00    +0.000 NA
ATOM      7  C   UNL     1      48.602   4.787  19.841  0.00  0.00    +0.000 A 
ATOM      8  N   UNL     1      48.467   6.092  20.064  0.00  0.00    +0.000 NA
ATOM      9  C   UNL     1      48.474   6.820  18.936  0.00  0.00    +0.000 A 
ATOM     10  S   UNL     1      48.300   8.506  19.027  0.00  0.00    +0.000 S 
ATOM     11  C   UNL     1      48.437   8.660  17.341  0.00  0.00    +0.000 A 
ATOM     12  C   UNL     1      48.625   7.453  16.675  0.00  0.00    +0.000 A 
ATOM     32  C   UNL     1      48.600   6.347  17.632  0.00  0.00    +0.000 A 
BRANCH   5   4
ATOM      4  O   UNL     1      48.724   4.333  16.315  0.00  0.00    +0.000 OA
BRANCH   4   3
ATOM      3  C   UNL     1      47.521   3.686  15.887  0.00  0.00    +0.000 C 
BRANCH   3   2
ATOM      1  C   UNL     1      46.734   3.579  13.490  0.00  0.00    +0.000 C 
ATOM      2  C   UNL     1      46.942   4.460  14.709  0.00  0.00    +0.000 C 
ENDBRANCH   3   2
ENDBRANCH   4   3
ENDBRANCH   5   4
ENDBRANCH  13  12
BRANCH  15  16
ATOM     16  C   UNL     1      47.953   8.142  13.009  0.00  0.00    +0.000 C 
BRANCH  16  17
ATOM     17  C   UNL     1      46.814   7.394  12.364  0.00  0.00    +0.000 A 
ATOM     18  C   UNL     1      45.544   7.386  12.954  0.00  0.00    +0.000 A 
ATOM     19  C   UNL     1      44.510   6.619  12.408  0.00  0.00    +0.000 A 
ATOM     20  C   UNL     1      44.721   5.841  11.260  0.00  0.00    +0.000 A 
ATOM     30  C   UNL     1      45.984   5.874  10.653  0.00  0.00    +0.000 A 
ATOM     31  C   UNL     1      47.020   6.638  11.202  0.00  0.00    +0.000 A 
BRANCH  20  21
ATOM     21  C   UNL     1      43.633   4.929  10.737  0.00  0.00    +0.000 C 
BRANCH  21  22
ATOM     22  N   UNL     1      43.961   4.395   9.417  0.00  0.00    +0.000 NA
ATOM     34  H   UNL     1      44.700   4.958   9.002  0.00  0.00    +0.000 HD
BRANCH  22  23
ATOM     23  C   UNL     1      44.412   3.006   9.503  0.00  0.00    +0.000 C 
BRANCH  23  24
ATOM     24  C   UNL     1      45.450   2.704   8.444  0.00  0.00    +0.000 A 
ATOM     25  C   UNL     1      45.880   3.692   7.549  0.00  0.00    +0.000 A 
ATOM     26  C   UNL     1      46.850   3.406   6.586  0.00  0.00    +0.000 A 
ATOM     27  C   UNL     1      47.404   2.129   6.511  0.00  0.00    +0.000 A 
ATOM     28  C   UNL     1      46.988   1.137   7.396  0.00  0.00    +0.000 A 
ATOM     29  C   UNL     1      46.017   1.422   8.359  0.00  0.00    +0.000 A 
ENDBRANCH  23  24
ENDBRANCH  22  23
ENDBRANCH  21  22
ENDBRANCH  20  21
ENDBRANCH  16  17
ENDBRANCH  15  16
TORSDOF 10
ENDMDL
MODEL 2
REMARK VINA RESULT:    -7.688      1.208      1.647
REMARK INTER + INTRA:         -14.414
REMARK INTER:                 -12.846
REMARK INTRA:                  -1.568
REMARK UNBOUND:                -2.232
REMARK  Name = 
REMARK  11 active torsions:
REMARK  status: ('A' for Active; 'I' for Inactive)
REMARK    1  A    between atoms: C_1  and  C_2
REMARK    2  A    between atoms: C_2  and  C_3
REMARK    3  A    between atoms: C_3  and  O_4
REMARK    4  A    between atoms: O_4  and  C_5
REMARK    5  A    between atoms: C_12  and  C_13
REMARK    6  A    between atoms: N_15  and  C_16
REMARK    7  A    between atoms: C_16  and  C_17
REMARK    8  A    between atoms: C_20  and  C_21
REMARK    9  A    between atoms: C_21  and  N_22
REMARK   10  A    between atoms: N_22  and  C_23
REMARK   11  A    between atoms: C_23  and  C_24
REMARK                            x       y       z     vdW  Elec       q    Type
REMARK                         _______ _______ _______ _____ _____    ______ ____
ROOT
ATOM     13  C   UNL     1      48.934   7.227  15.398  0.00  0.00    +0.000 C 
ATOM     14  O   UNL     1      50.009   6.652  15.237  0.00  0.00    +0.000 OA
ATOM     15  N   UNL     1      47.989   7.243  14.407  0.00  0.00    +0.000 N 
ATOM     33  H   UNL     1      47.122   7.747  14.536  0.00  0.00    +0.000 HD
ENDROOT
BRANCH  13  12
ATOM      5  C   UNL     1      48.440   6.102  18.623  0.00  0.00    +0.000 A 
ATOM      6  N   UNL     1      48.331   5.956  19.958  0.00  0.00    +0.000 NA
ATOM      7  C   UNL     1      48.167   7.054  20.701  0.00  0.00    +0.000 A 
ATOM      8  N   UNL     1      48.087   8.310  20.266  0.00  0.00    +0.000 NA
ATOM      9  C   UNL     1      48.233   8.413  18.936  0.00  0.00    +0.000 A 
ATOM     10  S   UNL     1      48.149   9.942  18.202  0.00  0.00    +0.000 S 
ATOM     11  C   UNL     1      48.438   9.274  16.667  0.00  0.00    +0.000 A 
ATOM     12  C   UNL     1      48.613   7.894  16.672  0.00  0.00    +0.000 A 
ATOM     32  C   UNL     1      48.444   7.377  18.030  0.00  0.00    +0.000 A 
BRANCH   5   4
ATOM      4  O   UNL     1      48.565   4.978  17.839  0.00  0.00    +0.000 OA
BRANCH   4   3
ATOM      3  C   UNL     1      47.339   4.401  17.377  0.00  0.00    +0.000 C 
BRANCH   3   2
ATOM      1  C   UNL     1      49.014   2.544  17.033  0.00  0.00    +0.000 C 
ATOM      2  C   UNL     1      47.547   2.905  17.180  0.00  0.00    +0.000 C 
ENDBRANCH   3   2
ENDBRANCH   4   3
ENDBRANCH   5   4
ENDBRANCH  13  12
BRANCH  15  16
ATOM     16  C   UNL     1      48.208   6.587  13.138  0.00  0.00    +0.000 C 
BRANCH  16  17
ATOM     17  C   UNL     1      46.947   5.926  12.644  0.00  0.00    +0.000 A 
ATOM     18  C   UNL     1      46.360   4.881  13.370  0.00  0.00    +0.000 A 
ATOM     19  C   UNL     1      45.244   4.205  12.870  0.00  0.00    +0.000 A 
ATOM     20  C   UNL     1      44.686   4.556  11.632  0.00  0.00    +0.000 A 
ATOM     30  C   UNL     1      45.255   5.622  10.920  0.00  0.00    +0.000 A 
ATOM     31  C   UNL     1      46.376   6.295  11.419  0.00  0.00    +0.000 A 
BRANCH  20  21
ATOM     21  C   UNL     1      43.548   3.752  11.044  0.00  0.00    +0.000 C 
BRANCH  21  22
ATOM     22  N   UNL     1      43.806   3.381   9.654  0.00  0.00    +0.000 NA
ATOM     34  H   UNL     1      44.276   4.152   9.184  0.00  0.00    +0.000 HD
BRANCH  22  23
ATOM     23  C   UNL     1      44.647   2.188   9.570  0.00  0.00    +0.000 C 
BRANCH  23  24
ATOM     24  C   UNL     1      45.635   2.297   8.429  0.00  0.00    +0.000 A 
ATOM     25  C   UNL     1      45.810   3.502   7.737  0.00  0.00    +0.000 A 
ATOM     26  C   UNL     1      46.737   3.597   6.695  0.00  0.00    +0.000 A 
ATOM     27  C   UNL     1      47.500   2.486   6.339  0.00  0.00    +0.000 A 
ATOM     28  C   UNL     1      47.338   1.281   7.020  0.00  0.00    +0.000 A 
ATOM     29  C   UNL     1      46.412   1.187   8.060  0.00  0.00    +0.000 A 
ENDBRANCH  23  24
ENDBRANCH  22  23
ENDBRANCH  21  22
ENDBRANCH  20  21
ENDBRANCH  16  17
ENDBRANCH  15  16
TORSDOF 10
ENDMDL
MODEL 3
REMARK VINA RESULT:    -7.210      1.899      2.428
REMARK INTER + INTRA:         -13.656
REMARK INTER:                 -11.948
REMARK INTRA:                  -1.708
REMARK UNBOUND:                -2.232
REMARK  Name = 
REMARK  11 active torsions:
REMARK  status: ('A' for Active; 'I' for Inactive)
REMARK    1  A    between atoms: C_1  and  C_2
REMARK    2  A    between atoms: C_2  and  C_3
REMARK    3  A    between atoms: C_3  and  O_4
REMARK    4  A    between atoms: O_4  and  C_5
REMARK    5  A    between atoms: C_12  and  C_13
REMARK    6  A    between atoms: N_15  and  C_16
REMARK    7  A    between atoms: C_16  and  C_17
REMARK    8  A    between atoms: C_20  and  C_21
REMARK    9  A    between atoms: C_21  and  N_22
REMARK   10  A    between atoms: N_22  and  C_23
REMARK   11  A    between atoms: C_23  and  C_24
REMARK                            x       y       z     vdW  Elec       q    Type
REMARK                         _______ _______ _______ _____ _____    ______ ____
ROOT
ATOM     13  C   UNL     1      49.102   7.605  15.149  0.00  0.00    +0.000 C 
ATOM     14  O   UNL     1      48.360   8.414  15.704  0.00  0.00    +0.000 OA
ATOM     15  N   UNL     1      48.853   7.185  13.870  0.00  0.00    +0.000 N 
ATOM     33  H   UNL     1      49.449   6.494  13.434  0.00  0.00    +0.000 HD
ENDROOT
BRANCH  13  12
ATOM      5  C   UNL     1      49.582   5.564  17.890  0.00  0.00    +0.000 A 
ATOM      6  N   UNL     1      50.045   4.707  18.821  0.00  0.00    +0.000 NA
ATOM      7  C   UNL     1      51.364   4.507  18.894  0.00  0.00    +0.000 A 
ATOM      8  N   UNL     1      52.302   5.077  18.141  0.00  0.00    +0.000 NA
ATOM      9  C   UNL     1      51.797   5.898  17.207  0.00  0.00    +0.000 A 
ATOM     10  S   UNL     1      52.849   6.722  16.160  0.00  0.00    +0.000 S 
ATOM     11  C   UNL     1      51.548   7.446  15.344  0.00  0.00    +0.000 A 
ATOM     12  C   UNL     1      50.298   7.080  15.831  0.00  0.00    +0.000 A 
ATOM     32  C   UNL     1      50.453   6.186  16.979  0.00  0.00    +0.000 A 
BRANCH   5   4
ATOM      4  O   UNL     1      48.231   5.815  17.831  0.00  0.00    +0.000 OA
BRANCH   4   3
ATOM      3  C   UNL     1      47.380   4.665  17.872  0.00  0.00    +0.000 C 
BRANCH   3   2
ATOM      1  C   UNL     1      48.108   2.645  16.544  0.00  0.00    +0.000 C 
ATOM      2  C   UNL     1      47.405   3.990  16.507  0.00  0.00    +0.000 C 
ENDBRANCH   3   2
ENDBRANCH   4   3
ENDBRANCH   5   4
ENDBRANCH  13  12
BRANCH  15  16
ATOM     16  C   UNL     1      47.720   7.673  13.117  0.00  0.00    +0.000 C 
BRANCH  16  17
ATOM     17  C   UNL     1      46.845   6.534  12.657  0.00  0.00    +0.000 A 
ATOM     18  C   UNL     1      46.235   6.570  11.396  0.00  0.00    +0.000 A 
ATOM     19  C   UNL     1      45.351   5.561  11.004  0.00  0.00    +0.000 A 
ATOM     20  C   UNL     1      45.054   4.492  11.862  0.00  0.00    +0.000 A 
ATOM     30  C   UNL     1      45.688   4.442  13.112  0.00  0.00    +0.000 A 
ATOM     31  C   UNL     1      46.569   5.454  13.506  0.00  0.00    +0.000 A 
BRANCH  20  21
ATOM     21  C   UNL     1      44.014   3.462  11.478  0.00  0.00    +0.000 C 
BRANCH  21  22
ATOM     22  N   UNL     1      43.920   3.299  10.030  0.00  0.00    +0.000 NA
ATOM     34  H   UNL     1      44.410   4.067   9.574  0.00  0.00    +0.000 HD
BRANCH  22  23
ATOM     23  C   UNL     1      44.513   2.034   9.598  0.00  0.00    +0.000 C 
BRANCH  23  24
ATOM     24  C   UNL     1      45.549   2.258   8.517  0.00  0.00    +0.000 A 
ATOM     25  C   UNL     1      46.354   1.208   8.057  0.00  0.00    +0.000 A 
ATOM     26  C   UNL     1      47.296   1.423   7.048  0.00  0.00    +0.000 A 
ATOM     27  C   UNL     1      47.438   2.690   6.485  0.00  0.00    +0.000 A 
ATOM     28  C   UNL     1      46.642   3.743   6.931  0.00  0.00    +0.000 A 
ATOM     29  C   UNL     1      45.701   3.529   7.940  0.00  0.00    +0.000 A 
ENDBRANCH  23  24
ENDBRANCH  22  23
ENDBRANCH  21  22
ENDBRANCH  20  21
ENDBRANCH  16  17
ENDBRANCH  15  16
TORSDOF 10
ENDMDL
MODEL 4
REMARK VINA RESULT:    -7.124      1.706      3.214
REMARK INTER + INTRA:         -13.520
REMARK INTER:                 -12.130
REMARK INTRA:                  -1.390
REMARK UNBOUND:                -2.232
REMARK  Name = 
REMARK  11 active torsions:
REMARK  status: ('A' for Active; 'I' for Inactive)
REMARK    1  A    between atoms: C_1  and  C_2
REMARK    2  A    between atoms: C_2  and  C_3
REMARK    3  A    between atoms: C_3  and  O_4
REMARK    4  A    between atoms: O_4  and  C_5
REMARK    5  A    between atoms: C_12  and  C_13
REMARK    6  A    between atoms: N_15  and  C_16
REMARK    7  A    between atoms: C_16  and  C_17
REMARK    8  A    between atoms: C_20  and  C_21
REMARK    9  A    between atoms: C_21  and  N_22
REMARK   10  A    between atoms: N_22  and  C_23
REMARK   11  A    between atoms: C_23  and  C_24
REMARK                            x       y       z     vdW  Elec       q    Type
REMARK                         _______ _______ _______ _____ _____    ______ ____
ROOT
ATOM     13  C   UNL     1      48.959   6.306  15.919  0.00  0.00    +0.000 C 
ATOM     14  O   UNL     1      50.042   6.661  15.457  0.00  0.00    +0.000 OA
ATOM     15  N   UNL     1      47.871   6.130  15.107  0.00  0.00    +0.000 N 
ATOM     33  H   UNL     1      46.976   5.870  15.501  0.00  0.00    +0.000 HD
ENDROOT
BRANCH  13  12
ATOM      5  C   UNL     1      47.882   8.189  18.603  0.00  0.00    +0.000 A 
ATOM      6  N   UNL     1      47.396   8.643  19.776  0.00  0.00    +0.000 NA
ATOM      7  C   UNL     1      47.384   7.808  20.818  0.00  0.00    +0.000 A 
ATOM      8  N   UNL     1      47.815   6.549  20.841  0.00  0.00    +0.000 NA
ATOM      9  C   UNL     1      48.260   6.127  19.647  0.00  0.00    +0.000 A 
ATOM     10  S   UNL     1      48.860   4.547  19.489  0.00  0.00    +0.000 S 
ATOM     11  C   UNL     1      49.155   4.772  17.831  0.00  0.00    +0.000 A 
ATOM     12  C   UNL     1      48.802   6.032  17.359  0.00  0.00    +0.000 A 
ATOM     32  C   UNL     1      48.308   6.857  18.461  0.00  0.00    +0.000 A 
BRANCH   5   4
ATOM      4  O   UNL     1      47.943   9.050  17.531  0.00  0.00    +0.000 OA
BRANCH   4   3
ATOM      3  C   UNL     1      48.004  10.443  17.853  0.00  0.00    +0.000 C 
BRANCH   3   2
ATOM      1  C   UNL     1      50.023  10.393  16.338  0.00  0.00    +0.000 C 
ATOM      2  C   UNL     1      48.784  11.163  16.760  0.00  0.00    +0.000 C 
ENDBRANCH   3   2
ENDBRANCH   4   3
ENDBRANCH   5   4
ENDBRANCH  13  12
BRANCH  15  16
ATOM     16  C   UNL     1      47.945   6.347  13.680  0.00  0.00    +0.000 C 
BRANCH  16  17
ATOM     17  C   UNL     1      46.706   5.835  12.989  0.00  0.00    +0.000 A 
ATOM     18  C   UNL     1      45.892   4.877  13.607  0.00  0.00    +0.000 A 
ATOM     19  C   UNL     1      44.795   4.333  12.932  0.00  0.00    +0.000 A 
ATOM     20  C   UNL     1      44.486   4.733  11.624  0.00  0.00    +0.000 A 
ATOM     30  C   UNL     1      45.284   5.713  11.018  0.00  0.00    +0.000 A 
ATOM     31  C   UNL     1      46.385   6.254  11.692  0.00  0.00    +0.000 A 
BRANCH  20  21
ATOM     21  C   UNL     1      43.366   4.063  10.858  0.00  0.00    +0.000 C 
BRANCH  21  22
ATOM     22  N   UNL     1      43.793   3.648   9.524  0.00  0.00    +0.000 NA
ATOM     34  H   UNL     1      44.331   4.399   9.096  0.00  0.00    +0.000 HD
BRANCH  22  23
ATOM     23  C   UNL     1      44.620   2.443   9.581  0.00  0.00    +0.000 C 
BRANCH  23  24
ATOM     24  C   UNL     1      45.625   2.417   8.451  0.00  0.00    +0.000 A 
ATOM     25  C   UNL     1      46.339   1.252   8.144  0.00  0.00    +0.000 A 
ATOM     26  C   UNL     1      47.254   1.235   7.087  0.00  0.00    +0.000 A 
ATOM     27  C   UNL     1      47.459   2.383   6.325  0.00  0.00    +0.000 A 
ATOM     28  C   UNL     1      46.754   3.549   6.618  0.00  0.00    +0.000 A 
ATOM     29  C   UNL     1      45.841   3.567   7.674  0.00  0.00    +0.000 A 
ENDBRANCH  23  24
ENDBRANCH  22  23
ENDBRANCH  21  22
ENDBRANCH  20  21
ENDBRANCH  16  17
ENDBRANCH  15  16
TORSDOF 10
ENDMDL
MODEL 5
REMARK VINA RESULT:    -7.038      1.514      3.210
REMARK INTER + INTRA:         -13.383
REMARK INTER:                 -11.645
REMARK INTRA:                  -1.738
REMARK UNBOUND:                -2.232
REMARK  Name = 
REMARK  11 active torsions:
REMARK  status: ('A' for Active; 'I' for Inactive)
REMARK    1  A    between atoms: C_1  and  C_2
REMARK    2  A    between atoms: C_2  and  C_3
REMARK    3  A    between atoms: C_3  and  O_4
REMARK    4  A    between atoms: O_4  and  C_5
REMARK    5  A    between atoms: C_12  and  C_13
REMARK    6  A    between atoms: N_15  and  C_16
REMARK    7  A    between atoms: C_16  and  C_17
REMARK    8  A    between atoms: C_20  and  C_21
REMARK    9  A    between atoms: C_21  and  N_22
REMARK   10  A    between atoms: N_22  and  C_23
REMARK   11  A    between atoms: C_23  and  C_24
REMARK                            x       y       z     vdW  Elec       q    Type
REMARK                         _______ _______ _______ _____ _____    ______ ____
ROOT
ATOM     13  C   UNL     1      48.713   5.075  16.889  0.00  0.00    +0.000 C 
ATOM     14  O   UNL     1      49.436   4.088  17.013  0.00  0.00    +0.000 OA
ATOM     15  N   UNL     1      47.650   5.064  16.026  0.00  0.00    +0.000 N 
ATOM     33  H   UNL     1      47.081   5.892  15.905  0.00  0.00    +0.000 HD
ENDROOT
BRANCH  13  12
ATOM      5  C   UNL     1      48.784   8.441  16.135  0.00  0.00    +0.000 A 
ATOM      6  N   UNL     1      48.744   9.788  16.145  0.00  0.00    +0.000 NA
ATOM      7  C   UNL     1      48.910  10.415  17.313  0.00  0.00    +0.000 A 
ATOM      8  N   UNL     1      49.127   9.852  18.500  0.00  0.00    +0.000 NA
ATOM      9  C   UNL     1      49.128   8.510  18.450  0.00  0.00    +0.000 A 
ATOM     10  S   UNL     1      49.401   7.622  19.870  0.00  0.00    +0.000 S 
ATOM     11  C   UNL     1      49.224   6.150  19.041  0.00  0.00    +0.000 A 
ATOM     12  C   UNL     1      48.948   6.293  17.685  0.00  0.00    +0.000 A 
ATOM     32  C   UNL     1      48.937   7.710  17.326  0.00  0.00    +0.000 A 
BRANCH   5   4
ATOM      4  O   UNL     1      48.659   7.782  14.934  0.00  0.00    +0.000 OA
BRANCH   4   3
ATOM      3  C   UNL     1      49.572   8.180  13.905  0.00  0.00    +0.000 C 
BRANCH   3   2
ATOM      1  C   UNL     1      49.140   7.800  11.448  0.00  0.00    +0.000 C 
ATOM      2  C   UNL     1      48.773   8.606  12.681  0.00  0.00    +0.000 C 
ENDBRANCH   3   2
ENDBRANCH   4   3
ENDBRANCH   5   4
ENDBRANCH  13  12
BRANCH  15  16
ATOM     16  C   UNL     1      47.330   3.901  15.229  0.00  0.00    +0.000 C 
BRANCH  16  17
ATOM     17  C   UNL     1      46.679   4.298  13.929  0.00  0.00    +0.000 A 
ATOM     18  C   UNL     1      46.654   5.639  13.526  0.00  0.00    +0.000 A 
ATOM     19  C   UNL     1      45.972   6.022  12.367  0.00  0.00    +0.000 A 
ATOM     20  C   UNL     1      45.298   5.074  11.583  0.00  0.00    +0.000 A 
ATOM     30  C   UNL     1      45.349   3.728  11.971  0.00  0.00    +0.000 A 
ATOM     31  C   UNL     1      46.028   3.345  13.134  0.00  0.00    +0.000 A 
BRANCH  20  21
ATOM     21  C   UNL     1      44.470   5.507  10.393  0.00  0.00    +0.000 C 
BRANCH  21  22
ATOM     22  N   UNL     1      45.100   5.133   9.129  0.00  0.00    +0.000 NA
ATOM     34  H   UNL     1      46.099   5.002   9.279  0.00  0.00    +0.000 HD
BRANCH  22  23
ATOM     23  C   UNL     1      44.532   3.893   8.599  0.00  0.00    +0.000 C 
BRANCH  23  24
ATOM     24  C   UNL     1      45.601   3.035   7.957  0.00  0.00    +0.000 A 
ATOM     25  C   UNL     1      46.430   3.545   6.950  0.00  0.00    +0.000 A 
ATOM     26  C   UNL     1      47.424   2.750   6.375  0.00  0.00    +0.000 A 
ATOM     27  C   UNL     1      47.601   1.436   6.805  0.00  0.00    +0.000 A 
ATOM     28  C   UNL     1      46.784   0.915   7.807  0.00  0.00    +0.000 A 
ATOM     29  C   UNL     1      45.791   1.711   8.382  0.00  0.00    +0.000 A 
ENDBRANCH  23  24
ENDBRANCH  22  23
ENDBRANCH  21  22
ENDBRANCH  20  21
ENDBRANCH  16  17
ENDBRANCH  15  16
TORSDOF 10
ENDMDL
MODEL 6
REMARK VINA RESULT:    -6.891      1.546      2.730
REMARK INTER + INTRA:         -13.152
REMARK INTER:                 -11.625
REMARK INTRA:                  -1.526
REMARK UNBOUND:                -2.232
REMARK  Name = 
REMARK  11 active torsions:
REMARK  status: ('A' for Active; 'I' for Inactive)
REMARK    1  A    between atoms: C_1  and  C_2
REMARK    2  A    between atoms: C_2  and  C_3
REMARK    3  A    between atoms: C_3  and  O_4
REMARK    4  A    between atoms: O_4  and  C_5
REMARK    5  A    between atoms: C_12  and  C_13
REMARK    6  A    between atoms: N_15  and  C_16
REMARK    7  A    between atoms: C_16  and  C_17
REMARK    8  A    between atoms: C_20  and  C_21
REMARK    9  A    between atoms: C_21  and  N_22
REMARK   10  A    between atoms: N_22  and  C_23
REMARK   11  A    between atoms: C_23  and  C_24
REMARK                            x       y       z     vdW  Elec       q    Type
REMARK                         _______ _______ _______ _____ _____    ______ ____
ROOT
ATOM     13  C   UNL     1      48.848   6.907  15.575  0.00  0.00    +0.000 C 
ATOM     14  O   UNL     1      49.939   6.667  15.060  0.00  0.00    +0.000 OA
ATOM     15  N   UNL     1      47.790   6.053  15.410  0.00  0.00    +0.000 N 
ATOM     33  H   UNL     1      46.887   6.276  15.809  0.00  0.00    +0.000 HD
ENDROOT
BRANCH  13  12
ATOM      5  C   UNL     1      47.785   7.408  18.819  0.00  0.00    +0.000 A 
ATOM      6  N   UNL     1      47.533   7.872  20.059  0.00  0.00    +0.000 NA
ATOM      7  C   UNL     1      47.655   9.184  20.278  0.00  0.00    +0.000 A 
ATOM      8  N   UNL     1      47.997  10.115  19.391  0.00  0.00    +0.000 NA
ATOM      9  C   UNL     1      48.270   9.608  18.179  0.00  0.00    +0.000 A 
ATOM     10  S   UNL     1      48.714  10.652  16.917  0.00  0.00    +0.000 S 
ATOM     11  C   UNL     1      48.905   9.351  15.842  0.00  0.00    +0.000 A 
ATOM     12  C   UNL     1      48.649   8.106  16.408  0.00  0.00    +0.000 A 
ATOM     32  C   UNL     1      48.224   8.269  17.798  0.00  0.00    +0.000 A 
BRANCH   5   4
ATOM      4  O   UNL     1      47.621   6.066  18.565  0.00  0.00    +0.000 OA
BRANCH   4   3
ATOM      3  C   UNL     1      48.520   5.187  19.248  0.00  0.00    +0.000 C 
BRANCH   3   2
ATOM      1  C   UNL     1      50.234   4.223  17.666  0.00  0.00    +0.000 C 
ATOM      2  C   UNL     1      48.877   4.035  18.318  0.00  0.00    +0.000 C 
ENDBRANCH   3   2
ENDBRANCH   4   3
ENDBRANCH   5   4
ENDBRANCH  13  12
BRANCH  15  16
ATOM     16  C   UNL     1      47.907   4.839  14.635  0.00  0.00    +0.000 C 
BRANCH  16  17
ATOM     17  C   UNL     1      46.891   4.809  13.521  0.00  0.00    +0.000 A 
ATOM     18  C   UNL     1      46.646   5.952  12.750  0.00  0.00    +0.000 A 
ATOM     19  C   UNL     1      45.641   5.954  11.778  0.00  0.00    +0.000 A 
ATOM     20  C   UNL     1      44.857   4.814  11.553  0.00  0.00    +0.000 A 
ATOM     30  C   UNL     1      45.123   3.660  12.304  0.00  0.00    +0.000 A 
ATOM     31  C   UNL     1      46.126   3.660  13.280  0.00  0.00    +0.000 A 
BRANCH  20  21
ATOM     21  C   UNL     1      43.700   4.854  10.579  0.00  0.00    +0.000 C 
BRANCH  21  22
ATOM     22  N   UNL     1      44.088   4.374   9.255  0.00  0.00    +0.000 NA
ATOM     34  H   UNL     1      44.892   4.907   8.928  0.00  0.00    +0.000 HD
BRANCH  22  23
ATOM     23  C   UNL     1      44.439   2.954   9.286  0.00  0.00    +0.000 C 
BRANCH  23  24
ATOM     24  C   UNL     1      45.521   2.638   8.276  0.00  0.00    +0.000 A 
ATOM     25  C   UNL     1      46.124   1.375   8.235  0.00  0.00    +0.000 A 
ATOM     26  C   UNL     1      47.111   1.088   7.288  0.00  0.00    +0.000 A 
ATOM     27  C   UNL     1      47.500   2.062   6.370  0.00  0.00    +0.000 A 
ATOM     28  C   UNL     1      46.906   3.322   6.398  0.00  0.00    +0.000 A 
ATOM     29  C   UNL     1      45.921   3.609   7.345  0.00  0.00    +0.000 A 
ENDBRANCH  23  24
ENDBRANCH  22  23
ENDBRANCH  21  22
ENDBRANCH  20  21
ENDBRANCH  16  17
ENDBRANCH  15  16
TORSDOF 10
ENDMDL
MODEL 7
REMARK VINA RESULT:    -6.826      1.540      2.106
REMARK INTER + INTRA:         -13.048
REMARK INTER:                 -11.263
REMARK INTRA:                  -1.785
REMARK UNBOUND:                -2.232
REMARK  Name = 
REMARK  11 active torsions:
REMARK  status: ('A' for Active; 'I' for Inactive)
REMARK    1  A    between atoms: C_1  and  C_2
REMARK    2  A    between atoms: C_2  and  C_3
REMARK    3  A    between atoms: C_3  and  O_4
REMARK    4  A    between atoms: O_4  and  C_5
REMARK    5  A    between atoms: C_12  and  C_13
REMARK    6  A    between atoms: N_15  and  C_16
REMARK    7  A    between atoms: C_16  and  C_17
REMARK    8  A    between atoms: C_20  and  C_21
REMARK    9  A    between atoms: C_21  and  N_22
REMARK   10  A    between atoms: N_22  and  C_23
REMARK   11  A    between atoms: C_23  and  C_24
REMARK                            x       y       z     vdW  Elec       q    Type
REMARK                         _______ _______ _______ _____ _____    ______ ____
ROOT
ATOM     13  C   UNL     1      47.935   9.063  13.438  0.00  0.00    +0.000 C 
ATOM     14  O   UNL     1      48.674   9.167  12.460  0.00  0.00    +0.000 OA
ATOM     15  N   UNL     1      46.575   9.031  13.292  0.00  0.00    +0.000 N 
ATOM     33  H   UNL     1      45.974   8.979  14.104  0.00  0.00    +0.000 HD
ENDROOT
BRANCH  13  12
ATOM      5  C   UNL     1      48.835   6.383  15.418  0.00  0.00    +0.000 A 
ATOM      6  N   UNL     1      49.372   5.549  16.329  0.00  0.00    +0.000 NA
ATOM      7  C   UNL     1      49.906   6.080  17.432  0.00  0.00    +0.000 A 
ATOM      8  N   UNL     1      49.965   7.371  17.752  0.00  0.00    +0.000 NA
ATOM      9  C   UNL     1      49.448   8.168  16.803  0.00  0.00    +0.000 A 
ATOM     10  S   UNL     1      49.428   9.848  17.044  0.00  0.00    +0.000 S 
ATOM     11  C   UNL     1      48.718  10.107  15.523  0.00  0.00    +0.000 A 
ATOM     12  C   UNL     1      48.490   8.941  14.798  0.00  0.00    +0.000 A 
ATOM     32  C   UNL     1      48.887   7.777  15.590  0.00  0.00    +0.000 A 
BRANCH   5   4
ATOM      4  O   UNL     1      48.240   5.850  14.297  0.00  0.00    +0.000 OA
BRANCH   4   3
ATOM      3  C   UNL     1      46.957   5.248  14.499  0.00  0.00    +0.000 C 
BRANCH   3   2
ATOM      1  C   UNL     1      46.372   3.189  13.159  0.00  0.00    +0.000 C 
ATOM      2  C   UNL     1      47.101   3.737  14.373  0.00  0.00    +0.000 C 
ENDBRANCH   3   2
ENDBRANCH   4   3
ENDBRANCH   5   4
ENDBRANCH  13  12
BRANCH  15  16
ATOM     16  C   UNL     1      45.948   9.113  11.992  0.00  0.00    +0.000 C 
BRANCH  16  17
ATOM     17  C   UNL     1      45.336   7.792  11.600  0.00  0.00    +0.000 A 
ATOM     18  C   UNL     1      43.955   7.586  11.714  0.00  0.00    +0.000 A 
ATOM     19  C   UNL     1      43.397   6.334  11.439  0.00  0.00    +0.000 A 
ATOM     20  C   UNL     1      44.205   5.258  11.045  0.00  0.00    +0.000 A 
ATOM     30  C   UNL     1      45.583   5.473  10.903  0.00  0.00    +0.000 A 
ATOM     31  C   UNL     1      46.143   6.725  11.182  0.00  0.00    +0.000 A 
BRANCH  20  21
ATOM     21  C   UNL     1      43.612   3.878  10.856  0.00  0.00    +0.000 C 
BRANCH  21  22
ATOM     22  N   UNL     1      43.779   3.400   9.485  0.00  0.00    +0.000 NA
ATOM     34  H   UNL     1      44.222   4.128   8.928  0.00  0.00    +0.000 HD
BRANCH  22  23
ATOM     23  C   UNL     1      44.607   2.195   9.440  0.00  0.00    +0.000 C 
BRANCH  23  24
ATOM     24  C   UNL     1      45.650   2.291   8.347  0.00  0.00    +0.000 A 
ATOM     25  C   UNL     1      46.426   1.182   7.989  0.00  0.00    +0.000 A 
ATOM     26  C   UNL     1      47.375   1.278   6.968  0.00  0.00    +0.000 A 
ATOM     27  C   UNL     1      47.553   2.484   6.292  0.00  0.00    +0.000 A 
ATOM     28  C   UNL     1      46.786   3.595   6.637  0.00  0.00    +0.000 A 
ATOM     29  C   UNL     1      45.838   3.500   7.658  0.00  0.00    +0.000 A 
ENDBRANCH  23  24
ENDBRANCH  22  23
ENDBRANCH  21  22
ENDBRANCH  20  21
ENDBRANCH  16  17
ENDBRANCH  15  16
TORSDOF 10
ENDMDL
MODEL 8
REMARK VINA RESULT:    -6.783      2.340      3.210
REMARK INTER + INTRA:         -12.980
REMARK INTER:                 -11.164
REMARK INTRA:                  -1.816
REMARK UNBOUND:                -2.232
REMARK  Name = 
REMARK  11 active torsions:
REMARK  status: ('A' for Active; 'I' for Inactive)
REMARK    1  A    between atoms: C_1  and  C_2
REMARK    2  A    between atoms: C_2  and  C_3
REMARK    3  A    between atoms: C_3  and  O_4
REMARK    4  A    between atoms: O_4  and  C_5
REMARK    5  A    between atoms: C_12  and  C_13
REMARK    6  A    between atoms: N_15  and  C_16
REMARK    7  A    between atoms: C_16  and  C_17
REMARK    8  A    between atoms: C_20  and  C_21
REMARK    9  A    between atoms: C_21  and  N_22
REMARK   10  A    between atoms: N_22  and  C_23
REMARK   11  A    between atoms: C_23  and  C_24
REMARK                            x       y       z     vdW  Elec       q    Type
REMARK                         _______ _______ _______ _____ _____    ______ ____
ROOT
ATOM     13  C   UNL     1      50.192   6.679  16.947  0.00  0.00    +0.000 C 
ATOM     14  O   UNL     1      50.014   7.650  17.680  0.00  0.00    +0.000 OA
ATOM     15  N   UNL     1      49.602   6.611  15.714  0.00  0.00    +0.000 N 
ATOM     33  H   UNL     1      49.727   5.793  15.132  0.00  0.00    +0.000 HD
ENDROOT
BRANCH  13  12
ATOM      5  C   UNL     1      49.863   3.244  16.921  0.00  0.00    +0.000 A 
ATOM      6  N   UNL     1      50.049   1.909  16.906  0.00  0.00    +0.000 NA
ATOM      7  C   UNL     1      51.227   1.432  17.316  0.00  0.00    +0.000 A 
ATOM      8  N   UNL     1      52.265   2.137  17.760  0.00  0.00    +0.000 NA
ATOM      9  C   UNL     1      52.050   3.462  17.728  0.00  0.00    +0.000 A 
ATOM     10  S   UNL     1      53.264   4.519  18.268  0.00  0.00    +0.000 S 
ATOM     11  C   UNL     1      52.312   5.877  17.901  0.00  0.00    +0.000 A 
ATOM     12  C   UNL     1      51.069   5.568  17.359  0.00  0.00    +0.000 A 
ATOM     32  C   UNL     1      50.898   4.117  17.300  0.00  0.00    +0.000 A 
BRANCH   5   4
ATOM      4  O   UNL     1      48.640   3.749  16.545  0.00  0.00    +0.000 OA
BRANCH   4   3
ATOM      3  C   UNL     1      47.589   3.625  17.509  0.00  0.00    +0.000 C 
BRANCH   3   2
ATOM      1  C   UNL     1      47.626   5.437  19.266  0.00  0.00    +0.000 C 
ATOM      2  C   UNL     1      47.116   5.019  17.898  0.00  0.00    +0.000 C 
ENDBRANCH   3   2
ENDBRANCH   4   3
ENDBRANCH   5   4
ENDBRANCH  13  12
BRANCH  15  16
ATOM     16  C   UNL     1      48.751   7.670  15.219  0.00  0.00    +0.000 C 
BRANCH  16  17
ATOM     17  C   UNL     1      47.825   7.163  14.143  0.00  0.00    +0.000 A 
ATOM     18  C   UNL     1      47.576   5.791  14.007  0.00  0.00    +0.000 A 
ATOM     19  C   UNL     1      46.791   5.311  12.954  0.00  0.00    +0.000 A 
ATOM     20  C   UNL     1      46.238   6.189  12.011  0.00  0.00    +0.000 A 
ATOM     30  C   UNL     1      46.464   7.564  12.165  0.00  0.00    +0.000 A 
ATOM     31  C   UNL     1      47.253   8.045  13.216  0.00  0.00    +0.000 A 
BRANCH  20  21
ATOM     21  C   UNL     1      45.483   5.657  10.813  0.00  0.00    +0.000 C 
BRANCH  21  22
ATOM     22  N   UNL     1      45.253   4.218  10.912  0.00  0.00    +0.000 NA
ATOM     34  H   UNL     1      44.733   4.020  11.765  0.00  0.00    +0.000 HD
BRANCH  22  23
ATOM     23  C   UNL     1      44.493   3.721   9.765  0.00  0.00    +0.000 C 
BRANCH  23  24
ATOM     24  C   UNL     1      45.410   3.120   8.722  0.00  0.00    +0.000 A 
ATOM     25  C   UNL     1      45.685   1.747   8.705  0.00  0.00    +0.000 A 
ATOM     26  C   UNL     1      46.521   1.200   7.728  0.00  0.00    +0.000 A 
ATOM     27  C   UNL     1      47.086   2.022   6.755  0.00  0.00    +0.000 A 
ATOM     28  C   UNL     1      46.820   3.390   6.758  0.00  0.00    +0.000 A 
ATOM     29  C   UNL     1      45.985   3.937   7.736  0.00  0.00    +0.000 A 
ENDBRANCH  23  24
ENDBRANCH  22  23
ENDBRANCH  21  22
ENDBRANCH  20  21
ENDBRANCH  16  17
ENDBRANCH  15  16
TORSDOF 10
ENDMDL
MODEL 9
REMARK VINA RESULT:    -6.661      2.721      4.943
REMARK INTER + INTRA:         -12.786
REMARK INTER:                 -10.995
REMARK INTRA:                  -1.792
REMARK UNBOUND:                -2.232
REMARK  Name = 
REMARK  11 active torsions:
REMARK  status: ('A' for Active; 'I' for Inactive)
REMARK    1  A    between atoms: C_1  and  C_2
REMARK    2  A    between atoms: C_2  and  C_3
REMARK    3  A    between atoms: C_3  and  O_4
REMARK    4  A    between atoms: O_4  and  C_5
REMARK    5  A    between atoms: C_12  and  C_13
REMARK    6  A    between atoms: N_15  and  C_16
REMARK    7  A    between atoms: C_16  and  C_17
REMARK    8  A    between atoms: C_20  and  C_21
REMARK    9  A    between atoms: C_21  and  N_22
REMARK   10  A    between atoms: N_22  and  C_23
REMARK   11  A    between atoms: C_23  and  C_24
REMARK                            x       y       z     vdW  Elec       q    Type
REMARK                         _______ _______ _______ _____ _____    ______ ____
ROOT
ATOM     13  C   UNL     1      49.037   7.214  14.747  0.00  0.00    +0.000 C 
ATOM     14  O   UNL     1      48.796   7.365  15.944  0.00  0.00    +0.000 OA
ATOM     15  N   UNL     1      48.437   6.214  14.030  0.00  0.00    +0.000 N 
ATOM     33  H   UNL     1      48.666   6.077  13.054  0.00  0.00    +0.000 HD
ENDROOT
BRANCH  13  12
ATOM      5  C   UNL     1      48.701   9.295  12.015  0.00  0.00    +0.000 A 
ATOM      6  N   UNL     1      48.812  10.260  11.081  0.00  0.00    +0.000 NA
ATOM      7  C   UNL     1      49.977  10.903  10.974  0.00  0.00    +0.000 A 
ATOM      8  N   UNL     1      51.076  10.693  11.695  0.00  0.00    +0.000 NA
ATOM      9  C   UNL     1      50.914   9.748  12.634  0.00  0.00    +0.000 A 
ATOM     10  S   UNL     1      52.216   9.339  13.643  0.00  0.00    +0.000 S 
ATOM     11  C   UNL     1      51.270   8.209  14.487  0.00  0.00    +0.000 A 
ATOM     12  C   UNL     1      49.957   8.121  14.038  0.00  0.00    +0.000 A 
ATOM     32  C   UNL     1      49.760   9.013  12.896  0.00  0.00    +0.000 A 
BRANCH   5   4
ATOM      4  O   UNL     1      47.522   8.592  12.108  0.00  0.00    +0.000 OA
BRANCH   4   3
ATOM      3  C   UNL     1      46.410   9.307  12.657  0.00  0.00    +0.000 C 
BRANCH   3   2
ATOM      1  C   UNL     1      44.354  10.516  11.829  0.00  0.00    +0.000 C 
ATOM      2  C   UNL     1      45.292   9.340  11.624  0.00  0.00    +0.000 C 
ENDBRANCH   3   2
ENDBRANCH   4   3
ENDBRANCH   5   4
ENDBRANCH  13  12
BRANCH  15  16
ATOM     16  C   UNL     1      47.498   5.299  14.639  0.00  0.00    +0.000 C 
BRANCH  16  17
ATOM     17  C   UNL     1      46.368   4.974  13.696  0.00  0.00    +0.000 A 
ATOM     18  C   UNL     1      46.221   3.680  13.181  0.00  0.00    +0.000 A 
ATOM     19  C   UNL     1      45.231   3.397  12.236  0.00  0.00    +0.000 A 
ATOM     20  C   UNL     1      44.363   4.401  11.782  0.00  0.00    +0.000 A 
ATOM     30  C   UNL     1      44.492   5.689  12.320  0.00  0.00    +0.000 A 
ATOM     31  C   UNL     1      45.486   5.973  13.263  0.00  0.00    +0.000 A 
BRANCH  20  21
ATOM     21  C   UNL     1      43.366   4.117  10.680  0.00  0.00    +0.000 C 
BRANCH  21  22
ATOM     22  N   UNL     1      43.932   3.255   9.645  0.00  0.00    +0.000 NA
ATOM     34  H   UNL     1      43.175   2.819   9.122  0.00  0.00    +0.000 HD
BRANCH  22  23
ATOM     23  C   UNL     1      44.773   4.016   8.720  0.00  0.00    +0.000 C 
BRANCH  23  24
ATOM     24  C   UNL     1      45.729   3.107   7.981  0.00  0.00    +0.000 A 
ATOM     25  C   UNL     1      45.949   1.790   8.404  0.00  0.00    +0.000 A 
ATOM     26  C   UNL     1      46.823   0.953   7.704  0.00  0.00    +0.000 A 
ATOM     27  C   UNL     1      47.482   1.426   6.570  0.00  0.00    +0.000 A 
ATOM     28  C   UNL     1      47.271   2.734   6.136  0.00  0.00    +0.000 A 
ATOM     29  C   UNL     1      46.399   3.569   6.836  0.00  0.00    +0.000 A 
ENDBRANCH  23  24
ENDBRANCH  22  23
ENDBRANCH  21  22
ENDBRANCH  20  21
ENDBRANCH  16  17
ENDBRANCH  15  16
TORSDOF 10
ENDMDL
