MODEL 1
REMARK VINA RESULT:    -8.096      0.000      0.000
REMARK INTER + INTRA:         -10.493
REMARK INTER:                 -10.225
REMARK INTRA:                  -0.267
REMARK UNBOUND:                -0.267
REMARK  Name = 
REMARK  5 active torsions:
REMARK  status: ('A' for Active; 'I' for Inactive)
REMARK    1  A    between atoms: N_1  and  C_2
REMARK    2  A    between atoms: C_2  and  C_3
REMARK    3  A    between atoms: C_6  and  C_7
REMARK    4  A    between atoms: C_7  and  N_8
REMARK    5  A    between atoms: C_12  and  C_13
REMARK                            x       y       z     vdW  Elec       q    Type
REMARK                         _______ _______ _______ _____ _____    ______ ____
ROOT
ATOM      8  N   UNL     1      44.616   5.613  10.378  0.00  0.00    +0.000 N 
ATOM      9  C   UNL     1      45.319   5.368  11.566  0.00  0.00    +0.000 A 
ATOM     10  C   UNL     1      46.046   6.407  12.140  0.00  0.00    +0.000 A 
ATOM     11  C   UNL     1      46.747   6.181  13.328  0.00  0.00    +0.000 A 
ATOM     12  C   UNL     1      46.707   4.922  13.924  0.00  0.00    +0.000 A 
ATOM     16  C   UNL     1      45.973   3.944  13.277  0.00  0.00    +0.000 A 
ATOM     17  N   UNL     1      45.294   4.140  12.120  0.00  0.00    +0.000 NA
ATOM     22  H   UNL     1      43.970   6.383  10.528  0.00  0.00    +0.000 HD
ENDROOT
BRANCH  12  13
ATOM     13  C   UNL     1      47.432   4.688  15.195  0.00  0.00    +0.000 C 
ATOM     14  N   UNL     1      47.076   3.624  15.975  0.00  0.00    +0.000 N 
ATOM     15  O   UNL     1      48.335   5.436  15.555  0.00  0.00    +0.000 OA
ATOM     23  H   UNL     1      46.356   2.948  15.776  0.00  0.00    +0.000 HD
ATOM     24  H   UNL     1      47.596   3.505  16.833  0.00  0.00    +0.000 HD
ENDBRANCH  12  13
BRANCH   8   7
ATOM      7  C   UNL     1      43.925   4.436   9.857  0.00  0.00    +0.000 C 
BRANCH   7   6
ATOM      3  C   UNL     1      46.625   2.013   7.474  0.00  0.00    +0.000 A 
ATOM      4  C   UNL     1      46.572   3.401   7.291  0.00  0.00    +0.000 A 
ATOM      5  C   UNL     1      45.699   4.189   8.045  0.00  0.00    +0.000 A 
ATOM      6  C   UNL     1      44.834   3.603   8.978  0.00  0.00    +0.000 A 
ATOM     18  C   UNL     1      44.884   2.212   9.157  0.00  0.00    +0.000 A 
ATOM     19  C   UNL     1      45.766   1.425   8.411  0.00  0.00    +0.000 A 
BRANCH   3   2
ATOM      2  C   UNL     1      47.588   1.175   6.671  0.00  0.00    +0.000 C 
BRANCH   2   1
ATOM      1  N   UNL     1      48.437   2.000   5.818  0.00  0.00    +0.000 NA
ATOM     20  H   UNL     1      48.174   1.857   4.846  0.00  0.00    +0.000 HD
ATOM     21  H   UNL     1      49.401   1.681   5.910  0.00  0.00    +0.000 HD
ENDBRANCH   2   1
ENDBRANCH   3   2
ENDBRANCH   7   6
ENDBRANCH   8   7
TORSDOF 5
ENDMDL
MODEL 2
REMARK VINA RESULT:    -7.929      0.142      1.114
REMARK INTER + INTRA:         -10.282
REMARK INTER:                 -10.127
REMARK INTRA:                  -0.155
REMARK UNBOUND:                -0.267
REMARK  Name = 
REMARK  5 active torsions:
REMARK  status: ('A' for Active; 'I' for Inactive)
REMARK    1  A    between atoms: N_1  and  C_2
REMARK    2  A    between atoms: C_2  and  C_3
REMARK    3  A    between atoms: C_6  and  C_7
REMARK    4  A    between atoms: C_7  and  N_8
REMARK    5  A    between atoms: C_12  and  C_13
REMARK                            x       y       z     vdW  Elec       q    Type
REMARK                         _______ _______ _______ _____ _____    ______ ____
ROOT
ATOM      8  N   UNL     1      44.523   5.646  10.454  0.00  0.00    +0.000 N 
ATOM      9  C   UNL     1      45.265   5.397  11.618  0.00  0.00    +0.000 A 
ATOM     10  C   UNL     1      45.928   6.458  12.228  0.00  0.00    +0.000 A 
ATOM     11  C   UNL     1      46.665   6.228  13.393  0.00  0.00    +0.000 A 
ATOM     12  C   UNL     1      46.726   4.943  13.930  0.00  0.00    +0.000 A 
ATOM     16  C   UNL     1      46.050   3.947  13.249  0.00  0.00    +0.000 A 
ATOM     17  N   UNL     1      45.337   4.146  12.114  0.00  0.00    +0.000 NA
ATOM     22  H   UNL     1      43.827   6.360  10.650  0.00  0.00    +0.000 HD
ENDROOT
BRANCH  12  13
ATOM     13  C   UNL     1      47.490   4.705  15.176  0.00  0.00    +0.000 C 
ATOM     14  N   UNL     1      47.127   3.666  15.987  0.00  0.00    +0.000 N 
ATOM     15  O   UNL     1      48.431   5.426  15.490  0.00  0.00    +0.000 OA
ATOM     23  H   UNL     1      46.378   3.012  15.826  0.00  0.00    +0.000 HD
ATOM     24  H   UNL     1      47.676   3.542  16.826  0.00  0.00    +0.000 HD
ENDBRANCH  12  13
BRANCH   8   7
ATOM      7  C   UNL     1      43.906   4.447   9.890  0.00  0.00    +0.000 C 
BRANCH   7   6
ATOM      3  C   UNL     1      46.664   2.167   7.433  0.00  0.00    +0.000 A 
ATOM      4  C   UNL     1      45.870   1.521   8.391  0.00  0.00    +0.000 A 
ATOM      5  C   UNL     1      44.987   2.247   9.194  0.00  0.00    +0.000 A 
ATOM      6  C   UNL     1      44.901   3.640   9.082  0.00  0.00    +0.000 A 
ATOM     18  C   UNL     1      45.700   4.287   8.126  0.00  0.00    +0.000 A 
ATOM     19  C   UNL     1      46.575   3.559   7.314  0.00  0.00    +0.000 A 
BRANCH   3   2
ATOM      2  C   UNL     1      47.597   1.371   6.555  0.00  0.00    +0.000 C 
BRANCH   2   1
ATOM      1  N   UNL     1      48.653   2.207   5.995  0.00  0.00    +0.000 NA
ATOM     20  H   UNL     1      48.261   2.798   5.265  0.00  0.00    +0.000 HD
ATOM     21  H   UNL     1      49.343   1.606   5.545  0.00  0.00    +0.000 HD
ENDBRANCH   2   1
ENDBRANCH   3   2
ENDBRANCH   7   6
ENDBRANCH   8   7
TORSDOF 5
ENDMDL
MODEL 3
REMARK VINA RESULT:    -7.922      2.101      2.654
REMARK INTER + INTRA:         -10.274
REMARK INTER:                 -10.048
REMARK INTRA:                  -0.226
REMARK UNBOUND:                -0.267
REMARK  Name = 
REMARK  5 active torsions:
REMARK  status: ('A' for Active; 'I' for Inactive)
REMARK    1  A    between atoms: N_1  and  C_2
REMARK    2  A    between atoms: C_2  and  C_3
REMARK    3  A    between atoms: C_6  and  C_7
REMARK    4  A    between atoms: C_7  and  N_8
REMARK    5  A    between atoms: C_12  and  C_13
REMARK                            x       y       z     vdW  Elec       q    Type
REMARK                         _______ _______ _______ _____ _____    ______ ____
ROOT
ATOM      8  N   UNL     1      45.101   3.095  11.547  0.00  0.00    +0.000 N 
ATOM      9  C   UNL     1      45.249   4.440  11.918  0.00  0.00    +0.000 A 
ATOM     10  C   UNL     1      46.052   4.747  13.013  0.00  0.00    +0.000 A 
ATOM     11  C   UNL     1      46.216   6.082  13.391  0.00  0.00    +0.000 A 
ATOM     12  C   UNL     1      45.578   7.088  12.667  0.00  0.00    +0.000 A 
ATOM     16  C   UNL     1      44.787   6.691  11.604  0.00  0.00    +0.000 A 
ATOM     17  N   UNL     1      44.607   5.401  11.227  0.00  0.00    +0.000 NA
ATOM     22  H   UNL     1      46.018   2.697  11.367  0.00  0.00    +0.000 HD
ENDROOT
BRANCH  12  13
ATOM     13  C   UNL     1      45.769   8.505  13.055  0.00  0.00    +0.000 C 
ATOM     14  N   UNL     1      46.662   8.807  14.045  0.00  0.00    +0.000 N 
ATOM     15  O   UNL     1      45.137   9.402  12.507  0.00  0.00    +0.000 OA
ATOM     23  H   UNL     1      47.234   8.154  14.556  0.00  0.00    +0.000 HD
ATOM     24  H   UNL     1      46.760   9.785  14.276  0.00  0.00    +0.000 HD
ENDBRANCH  12  13
BRANCH   8   7
ATOM      7  C   UNL     1      44.206   2.901  10.409  0.00  0.00    +0.000 C 
BRANCH   7   6
ATOM      3  C   UNL     1      46.553   2.655   6.766  0.00  0.00    +0.000 A 
ATOM      4  C   UNL     1      45.875   3.838   7.093  0.00  0.00    +0.000 A 
ATOM      5  C   UNL     1      45.108   3.924   8.257  0.00  0.00    +0.000 A 
ATOM      6  C   UNL     1      44.974   2.819   9.107  0.00  0.00    +0.000 A 
ATOM     18  C   UNL     1      45.649   1.633   8.776  0.00  0.00    +0.000 A 
ATOM     19  C   UNL     1      46.426   1.550   7.618  0.00  0.00    +0.000 A 
BRANCH   3   2
ATOM      2  C   UNL     1      47.397   2.581   5.519  0.00  0.00    +0.000 C 
BRANCH   2   1
ATOM      1  N   UNL     1      48.601   1.783   5.730  0.00  0.00    +0.000 NA
ATOM     20  H   UNL     1      49.095   1.681   4.847  0.00  0.00    +0.000 HD
ATOM     21  H   UNL     1      48.325   0.845   6.021  0.00  0.00    +0.000 HD
ENDBRANCH   2   1
ENDBRANCH   3   2
ENDBRANCH   7   6
ENDBRANCH   8   7
TORSDOF 5
ENDMDL
MODEL 4
REMARK VINA RESULT:    -7.575      2.808      6.731
REMARK INTER + INTRA:          -9.836
REMARK INTER:                  -9.624
REMARK INTRA:                  -0.211
REMARK UNBOUND:                -0.267
REMARK  Name = 
REMARK  5 active torsions:
REMARK  status: ('A' for Active; 'I' for Inactive)
REMARK    1  A    between atoms: N_1  and  C_2
REMARK    2  A    between atoms: C_2  and  C_3
REMARK    3  A    between atoms: C_6  and  C_7
REMARK    4  A    between atoms: C_7  and  N_8
REMARK    5  A    between atoms: C_12  and  C_13
REMARK                            x       y       z     vdW  Elec       q    Type
REMARK                         _______ _______ _______ _____ _____    ______ ____
ROOT
ATOM      8  N   UNL     1      43.964   3.317  10.454  0.00  0.00    +0.000 N 
ATOM      9  C   UNL     1      44.860   3.080   9.401  0.00  0.00    +0.000 A 
ATOM     10  C   UNL     1      45.180   1.764   9.079  0.00  0.00    +0.000 A 
ATOM     11  C   UNL     1      46.065   1.510   8.028  0.00  0.00    +0.000 A 
ATOM     12  C   UNL     1      46.614   2.575   7.315  0.00  0.00    +0.000 A 
ATOM     16  C   UNL     1      46.253   3.850   7.714  0.00  0.00    +0.000 A 
ATOM     17  N   UNL     1      45.404   4.118   8.736  0.00  0.00    +0.000 NA
ATOM     22  H   UNL     1      43.090   2.836  10.261  0.00  0.00    +0.000 HD
ENDROOT
BRANCH  12  13
ATOM     13  C   UNL     1      47.536   2.305   6.187  0.00  0.00    +0.000 C 
ATOM     14  N   UNL     1      47.469   3.094   5.073  0.00  0.00    +0.000 N 
ATOM     15  O   UNL     1      48.346   1.385   6.238  0.00  0.00    +0.000 OA
ATOM     23  H   UNL     1      46.848   3.874   4.927  0.00  0.00    +0.000 HD
ATOM     24  H   UNL     1      48.115   2.873   4.329  0.00  0.00    +0.000 HD
ENDBRANCH  12  13
BRANCH   8   7
ATOM      7  C   UNL     1      43.739   4.737  10.718  0.00  0.00    +0.000 C 
BRANCH   7   6
ATOM      3  C   UNL     1      46.931   6.350  13.177  0.00  0.00    +0.000 A 
ATOM      4  C   UNL     1      46.291   5.157  13.541  0.00  0.00    +0.000 A 
ATOM      5  C   UNL     1      45.256   4.635  12.762  0.00  0.00    +0.000 A 
ATOM      6  C   UNL     1      44.812   5.310  11.618  0.00  0.00    +0.000 A 
ATOM     18  C   UNL     1      45.450   6.508  11.258  0.00  0.00    +0.000 A 
ATOM     19  C   UNL     1      46.495   7.024  12.030  0.00  0.00    +0.000 A 
BRANCH   3   2
ATOM      2  C   UNL     1      48.064   6.892  14.012  0.00  0.00    +0.000 C 
BRANCH   2   1
ATOM      1  N   UNL     1      49.354   6.702  13.357  0.00  0.00    +0.000 NA
ATOM     20  H   UNL     1      49.425   7.338  12.567  0.00  0.00    +0.000 HD
ATOM     21  H   UNL     1      49.391   5.757  12.976  0.00  0.00    +0.000 HD
ENDBRANCH   2   1
ENDBRANCH   3   2
ENDBRANCH   7   6
ENDBRANCH   8   7
TORSDOF 5
ENDMDL
MODEL 5
REMARK VINA RESULT:    -7.326      2.787      6.708
REMARK INTER + INTRA:          -9.520
REMARK INTER:                  -9.362
REMARK INTRA:                  -0.158
REMARK UNBOUND:                -0.267
REMARK  Name = 
REMARK  5 active torsions:
REMARK  status: ('A' for Active; 'I' for Inactive)
REMARK    1  A    between atoms: N_1  and  C_2
REMARK    2  A    between atoms: C_2  and  C_3
REMARK    3  A    between atoms: C_6  and  C_7
REMARK    4  A    between atoms: C_7  and  N_8
REMARK    5  A    between atoms: C_12  and  C_13
REMARK                            x       y       z     vdW  Elec       q    Type
REMARK                         _______ _______ _______ _____ _____    ______ ____
ROOT
ATOM      8  N   UNL     1      44.014   3.680  10.420  0.00  0.00    +0.000 N 
ATOM      9  C   UNL     1      44.897   3.360   9.379  0.00  0.00    +0.000 A 
ATOM     10  C   UNL     1      45.149   2.018   9.104  0.00  0.00    +0.000 A 
ATOM     11  C   UNL     1      46.020   1.681   8.066  0.00  0.00    +0.000 A 
ATOM     12  C   UNL     1      46.625   2.690   7.317  0.00  0.00    +0.000 A 
ATOM     16  C   UNL     1      46.330   3.995   7.669  0.00  0.00    +0.000 A 
ATOM     17  N   UNL     1      45.495   4.343   8.679  0.00  0.00    +0.000 NA
ATOM     22  H   UNL     1      43.117   3.238  10.242  0.00  0.00    +0.000 HD
ENDROOT
BRANCH  12  13
ATOM     13  C   UNL     1      47.532   2.332   6.202  0.00  0.00    +0.000 C 
ATOM     14  N   UNL     1      47.484   3.063   5.048  0.00  0.00    +0.000 N 
ATOM     15  O   UNL     1      48.313   1.392   6.298  0.00  0.00    +0.000 OA
ATOM     23  H   UNL     1      46.887   3.854   4.863  0.00  0.00    +0.000 HD
ATOM     24  H   UNL     1      48.119   2.783   4.314  0.00  0.00    +0.000 HD
ENDBRANCH  12  13
BRANCH   8   7
ATOM      7  C   UNL     1      43.863   5.118  10.633  0.00  0.00    +0.000 C 
BRANCH   7   6
ATOM      3  C   UNL     1      46.998   6.714  13.175  0.00  0.00    +0.000 A 
ATOM      4  C   UNL     1      46.436   7.505  12.164  0.00  0.00    +0.000 A 
ATOM      5  C   UNL     1      45.434   6.998  11.334  0.00  0.00    +0.000 A 
ATOM      6  C   UNL     1      44.993   5.676  11.472  0.00  0.00    +0.000 A 
ATOM     18  C   UNL     1      45.561   4.882  12.481  0.00  0.00    +0.000 A 
ATOM     19  C   UNL     1      46.555   5.393  13.321  0.00  0.00    +0.000 A 
BRANCH   3   2
ATOM      2  C   UNL     1      48.063   7.279  14.081  0.00  0.00    +0.000 C 
BRANCH   2   1
ATOM      1  N   UNL     1      49.388   6.773  13.736  0.00  0.00    +0.000 NA
ATOM     20  H   UNL     1      49.579   6.974  12.757  0.00  0.00    +0.000 HD
ATOM     21  H   UNL     1      49.385   5.758  13.830  0.00  0.00    +0.000 HD
ENDBRANCH   2   1
ENDBRANCH   3   2
ENDBRANCH   7   6
ENDBRANCH   8   7
TORSDOF 5
ENDMDL
MODEL 6
REMARK VINA RESULT:    -7.140      1.891      2.186
REMARK INTER + INTRA:          -9.286
REMARK INTER:                  -9.156
REMARK INTRA:                  -0.130
REMARK UNBOUND:                -0.267
REMARK  Name = 
REMARK  5 active torsions:
REMARK  status: ('A' for Active; 'I' for Inactive)
REMARK    1  A    between atoms: N_1  and  C_2
REMARK    2  A    between atoms: C_2  and  C_3
REMARK    3  A    between atoms: C_6  and  C_7
REMARK    4  A    between atoms: C_7  and  N_8
REMARK    5  A    between atoms: C_12  and  C_13
REMARK                            x       y       z     vdW  Elec       q    Type
REMARK                         _______ _______ _______ _____ _____    ______ ____
ROOT
ATOM      8  N   UNL     1      43.600   5.730  10.633  0.00  0.00    +0.000 N 
ATOM      9  C   UNL     1      44.605   6.310  11.420  0.00  0.00    +0.000 A 
ATOM     10  C   UNL     1      44.750   7.695  11.407  0.00  0.00    +0.000 A 
ATOM     11  C   UNL     1      45.741   8.290  12.191  0.00  0.00    +0.000 A 
ATOM     12  C   UNL     1      46.571   7.492  12.978  0.00  0.00    +0.000 A 
ATOM     16  C   UNL     1      46.367   6.125  12.918  0.00  0.00    +0.000 A 
ATOM     17  N   UNL     1      45.418   5.527  12.156  0.00  0.00    +0.000 NA
ATOM     22  H   UNL     1      42.703   6.126  10.895  0.00  0.00    +0.000 HD
ENDROOT
BRANCH  12  13
ATOM     13  C   UNL     1      47.607   8.124  13.826  0.00  0.00    +0.000 C 
ATOM     14  N   UNL     1      47.218   8.867  14.905  0.00  0.00    +0.000 N 
ATOM     15  O   UNL     1      48.800   7.996  13.569  0.00  0.00    +0.000 OA
ATOM     23  H   UNL     1      46.272   9.035  15.209  0.00  0.00    +0.000 HD
ATOM     24  H   UNL     1      47.959   9.280  15.454  0.00  0.00    +0.000 HD
ENDBRANCH  12  13
BRANCH   8   7
ATOM      7  C   UNL     1      43.576   4.270  10.704  0.00  0.00    +0.000 C 
BRANCH   7   6
ATOM      3  C   UNL     1      46.213   2.445   7.779  0.00  0.00    +0.000 A 
ATOM      4  C   UNL     1      46.010   3.832   7.781  0.00  0.00    +0.000 A 
ATOM      5  C   UNL     1      45.155   4.428   8.710  0.00  0.00    +0.000 A 
ATOM      6  C   UNL     1      44.457   3.648   9.641  0.00  0.00    +0.000 A 
ATOM     18  C   UNL     1      44.656   2.259   9.635  0.00  0.00    +0.000 A 
ATOM     19  C   UNL     1      45.521   1.663   8.712  0.00  0.00    +0.000 A 
BRANCH   3   2
ATOM      2  C   UNL     1      47.156   1.814   6.785  0.00  0.00    +0.000 C 
BRANCH   2   1
ATOM      1  N   UNL     1      47.103   0.357   6.844  0.00  0.00    +0.000 NA
ATOM     20  H   UNL     1      48.025  -0.020   6.638  0.00  0.00    +0.000 HD
ATOM     21  H   UNL     1      46.481   0.022   6.109  0.00  0.00    +0.000 HD
ENDBRANCH   2   1
ENDBRANCH   3   2
ENDBRANCH   7   6
ENDBRANCH   8   7
TORSDOF 5
ENDMDL
MODEL 7
REMARK VINA RESULT:    -7.071      1.051      1.115
REMARK INTER + INTRA:          -9.199
REMARK INTER:                  -8.832
REMARK INTRA:                  -0.366
REMARK UNBOUND:                -0.267
REMARK  Name = 
REMARK  5 active torsions:
REMARK  status: ('A' for Active; 'I' for Inactive)
REMARK    1  A    between atoms: N_1  and  C_2
REMARK    2  A    between atoms: C_2  and  C_3
REMARK    3  A    between atoms: C_6  and  C_7
REMARK    4  A    between atoms: C_7  and  N_8
REMARK    5  A    between atoms: C_12  and  C_13
REMARK                            x       y       z     vdW  Elec       q    Type
REMARK                         _______ _______ _______ _____ _____    ______ ____
ROOT
ATOM      8  N   UNL     1      44.993   4.948  11.329  0.00  0.00    +0.000 N 
ATOM      9  C   UNL     1      45.722   4.893  12.525  0.00  0.00    +0.000 A 
ATOM     10  C   UNL     1      46.154   6.085  13.102  0.00  0.00    +0.000 A 
ATOM     11  C   UNL     1      46.874   6.049  14.298  0.00  0.00    +0.000 A 
ATOM     12  C   UNL     1      47.150   4.822  14.901  0.00  0.00    +0.000 A 
ATOM     16  C   UNL     1      46.697   3.688  14.251  0.00  0.00    +0.000 A 
ATOM     17  N   UNL     1      46.005   3.701  13.085  0.00  0.00    +0.000 NA
ATOM     22  H   UNL     1      44.171   5.528  11.467  0.00  0.00    +0.000 HD
ENDROOT
BRANCH  12  13
ATOM     13  C   UNL     1      47.895   4.785  16.180  0.00  0.00    +0.000 C 
ATOM     14  N   UNL     1      47.198   4.680  17.351  0.00  0.00    +0.000 N 
ATOM     15  O   UNL     1      49.120   4.854  16.202  0.00  0.00    +0.000 OA
ATOM     23  H   UNL     1      46.197   4.614  17.449  0.00  0.00    +0.000 HD
ATOM     24  H   UNL     1      47.747   4.660  18.198  0.00  0.00    +0.000 HD
ENDBRANCH  12  13
BRANCH   8   7
ATOM      7  C   UNL     1      44.632   3.632  10.807  0.00  0.00    +0.000 C 
BRANCH   7   6
ATOM      3  C   UNL     1      46.565   2.867   6.997  0.00  0.00    +0.000 A 
ATOM      4  C   UNL     1      46.241   4.177   7.376  0.00  0.00    +0.000 A 
ATOM      5  C   UNL     1      45.609   4.433   8.594  0.00  0.00    +0.000 A 
ATOM      6  C   UNL     1      45.256   3.382   9.450  0.00  0.00    +0.000 A 
ATOM     18  C   UNL     1      45.576   2.070   9.068  0.00  0.00    +0.000 A 
ATOM     19  C   UNL     1      46.219   1.814   7.853  0.00  0.00    +0.000 A 
BRANCH   3   2
ATOM      2  C   UNL     1      47.268   2.604   5.689  0.00  0.00    +0.000 C 
BRANCH   2   1
ATOM      1  N   UNL     1      48.461   1.785   5.874  0.00  0.00    +0.000 NA
ATOM     20  H   UNL     1      48.193   0.889   6.276  0.00  0.00    +0.000 HD
ATOM     21  H   UNL     1      49.068   2.240   6.555  0.00  0.00    +0.000 HD
ENDBRANCH   2   1
ENDBRANCH   3   2
ENDBRANCH   7   6
ENDBRANCH   8   7
TORSDOF 5
ENDMDL
MODEL 8
REMARK VINA RESULT:    -6.625      3.418      7.742
REMARK INTER + INTRA:          -8.636
REMARK INTER:                  -8.307
REMARK INTRA:                  -0.328
REMARK UNBOUND:                -0.267
REMARK  Name = 
REMARK  5 active torsions:
REMARK  status: ('A' for Active; 'I' for Inactive)
REMARK    1  A    between atoms: N_1  and  C_2
REMARK    2  A    between atoms: C_2  and  C_3
REMARK    3  A    between atoms: C_6  and  C_7
REMARK    4  A    between atoms: C_7  and  N_8
REMARK    5  A    between atoms: C_12  and  C_13
REMARK                            x       y       z     vdW  Elec       q    Type
REMARK                         _______ _______ _______ _____ _____    ______ ____
ROOT
ATOM      8  N   UNL     1      47.488   5.420  15.299  0.00  0.00    +0.000 N 
ATOM      9  C   UNL     1      46.783   5.276  14.096  0.00  0.00    +0.000 A 
ATOM     10  C   UNL     1      46.947   6.240  13.104  0.00  0.00    +0.000 A 
ATOM     11  C   UNL     1      46.258   6.108  11.896  0.00  0.00    +0.000 A 
ATOM     12  C   UNL     1      45.418   5.013  11.697  0.00  0.00    +0.000 A 
ATOM     16  C   UNL     1      45.302   4.113  12.741  0.00  0.00    +0.000 A 
ATOM     17  N   UNL     1      45.954   4.228  13.924  0.00  0.00    +0.000 NA
ATOM     22  H   UNL     1      48.482   5.475  15.098  0.00  0.00    +0.000 HD
ENDROOT
BRANCH  12  13
ATOM     13  C   UNL     1      44.704   4.862  10.408  0.00  0.00    +0.000 C 
ATOM     14  N   UNL     1      45.392   5.055   9.243  0.00  0.00    +0.000 N 
ATOM     15  O   UNL     1      43.512   4.575  10.374  0.00  0.00    +0.000 OA
ATOM     23  H   UNL     1      46.368   5.288   9.154  0.00  0.00    +0.000 HD
ATOM     24  H   UNL     1      44.865   4.942   8.388  0.00  0.00    +0.000 HD
ENDBRANCH  12  13
BRANCH   8   7
ATOM      7  C   UNL     1      47.202   4.366  16.270  0.00  0.00    +0.000 C 
BRANCH   7   6
ATOM      3  C   UNL     1      50.914   2.430  17.417  0.00  0.00    +0.000 A 
ATOM      4  C   UNL     1      49.918   1.709  16.744  0.00  0.00    +0.000 A 
ATOM      5  C   UNL     1      48.716   2.319  16.381  0.00  0.00    +0.000 A 
ATOM      6  C   UNL     1      48.466   3.658  16.709  0.00  0.00    +0.000 A 
ATOM     18  C   UNL     1      49.462   4.378  17.387  0.00  0.00    +0.000 A 
ATOM     19  C   UNL     1      50.670   3.771  17.741  0.00  0.00    +0.000 A 
BRANCH   3   2
ATOM      2  C   UNL     1      52.218   1.768  17.784  0.00  0.00    +0.000 C 
BRANCH   2   1
ATOM      1  N   UNL     1      52.022   0.374  18.172  0.00  0.00    +0.000 NA
ATOM     20  H   UNL     1      51.063   0.103  17.974  0.00  0.00    +0.000 HD
ATOM     21  H   UNL     1      52.146   0.296  19.181  0.00  0.00    +0.000 HD
ENDBRANCH   2   1
ENDBRANCH   3   2
ENDBRANCH   7   6
ENDBRANCH   8   7
TORSDOF 5
ENDMDL
MODEL 9
REMARK VINA RESULT:    -6.229      2.616      4.513
REMARK INTER + INTRA:          -8.135
REMARK INTER:                  -7.879
REMARK INTRA:                  -0.255
REMARK UNBOUND:                -0.267
REMARK  Name = 
REMARK  5 active torsions:
REMARK  status: ('A' for Active; 'I' for Inactive)
REMARK    1  A    between atoms: N_1  and  C_2
REMARK    2  A    between atoms: C_2  and  C_3
REMARK    3  A    between atoms: C_6  and  C_7
REMARK    4  A    between atoms: C_7  and  N_8
REMARK    5  A    between atoms: C_12  and  C_13
REMARK                            x       y       z     vdW  Elec       q    Type
REMARK                         _______ _______ _______ _____ _____    ______ ____
ROOT
ATOM      8  N   UNL     1      46.911   3.629  14.458  0.00  0.00    +0.000 N 
ATOM      9  C   UNL     1      47.467   3.806  15.733  0.00  0.00    +0.000 A 
ATOM     10  C   UNL     1      48.188   2.758  16.300  0.00  0.00    +0.000 A 
ATOM     11  C   UNL     1      48.755   2.921  17.566  0.00  0.00    +0.000 A 
ATOM     12  C   UNL     1      48.595   4.128  18.245  0.00  0.00    +0.000 A 
ATOM     16  C   UNL     1      47.850   5.108  17.613  0.00  0.00    +0.000 A 
ATOM     17  N   UNL     1      47.284   4.967  16.390  0.00  0.00    +0.000 NA
ATOM     22  H   UNL     1      47.649   3.386  13.804  0.00  0.00    +0.000 HD
ENDROOT
BRANCH  12  13
ATOM     13  C   UNL     1      49.214   4.308  19.578  0.00  0.00    +0.000 C 
ATOM     14  N   UNL     1      48.504   3.960  20.693  0.00  0.00    +0.000 N 
ATOM     15  O   UNL     1      50.346   4.769  19.694  0.00  0.00    +0.000 OA
ATOM     23  H   UNL     1      47.574   3.571  20.714  0.00  0.00    +0.000 HD
ATOM     24  H   UNL     1      48.966   4.101  21.580  0.00  0.00    +0.000 HD
ENDBRANCH  12  13
BRANCH   8   7
ATOM      7  C   UNL     1      46.148   4.784  13.991  0.00  0.00    +0.000 C 
BRANCH   7   6
ATOM      3  C   UNL     1      45.061   4.205   9.829  0.00  0.00    +0.000 A 
ATOM      4  C   UNL     1      45.593   5.429  10.258  0.00  0.00    +0.000 A 
ATOM      5  C   UNL     1      45.936   5.629  11.596  0.00  0.00    +0.000 A 
ATOM      6  C   UNL     1      45.725   4.622  12.546  0.00  0.00    +0.000 A 
ATOM     18  C   UNL     1      45.186   3.398  12.117  0.00  0.00    +0.000 A 
ATOM     19  C   UNL     1      44.855   3.193  10.775  0.00  0.00    +0.000 A 
BRANCH   3   2
ATOM      2  C   UNL     1      44.716   3.992   8.376  0.00  0.00    +0.000 C 
BRANCH   2   1
ATOM      1  N   UNL     1      45.893   4.103   7.521  0.00  0.00    +0.000 NA
ATOM     20  H   UNL     1      45.597   4.217   6.555  0.00  0.00    +0.000 HD
ATOM     21  H   UNL     1      46.413   3.227   7.566  0.00  0.00    +0.000 HD
ENDBRANCH   2   1
ENDBRANCH   3   2
ENDBRANCH   7   6
ENDBRANCH   8   7
TORSDOF 5
ENDMDL
