MODEL 1
REMARK VINA RESULT:    -6.981      0.000      0.000
REMARK INTER + INTRA:         -13.724
REMARK INTER:                 -12.287
REMARK INTRA:                  -1.438
REMARK UNBOUND:                -1.438
REMARK  Name = 
REMARK  15 active torsions:
REMARK  status: ('A' for Active; 'I' for Inactive)
REMARK    1  A    between atoms: C_1  and  C_2
REMARK    2  A    between atoms: C_2  and  C_3
REMARK    3  A    between atoms: C_3  and  C_4
REMARK    4  A    between atoms: C_4  and  C_5
REMARK    5  A    between atoms: C_5  and  C_6
REMARK    6  A    between atoms: C_6  and  C_7
REMARK    7  A    between atoms: C_7  and  C_8
REMARK    8  A    between atoms: C_8  and  N_9
REMARK    9  A    between atoms: N_9  and  C_10
REMARK   10  A    between atoms: N_9  and  C_12
REMARK   11  A    between atoms: C_10  and  C_11
REMARK   12  A    between atoms: C_12  and  C_13
REMARK   13  A    between atoms: C_16  and  C_17
REMARK   14  A    between atoms: C_17  and  N_18
REMARK   15  A    between atoms: C_19  and  C_21
REMARK                            x       y       z     vdW  Elec       q    Type
REMARK                         _______ _______ _______ _____ _____    ______ ____
ROOT
ATOM     13  C   UNL     1      47.017   5.256  13.843  0.00  0.00    +0.000 A 
ATOM     14  C   UNL     1      47.824   6.402  13.822  0.00  0.00    +0.000 A 
ATOM     15  C   UNL     1      48.560   6.777  14.953  0.00  0.00    +0.000 A 
ATOM     16  C   UNL     1      48.516   6.006  16.121  0.00  0.00    +0.000 A 
ATOM     31  C   UNL     1      47.722   4.850  16.134  0.00  0.00    +0.000 A 
ATOM     32  C   UNL     1      46.988   4.475  15.005  0.00  0.00    +0.000 A 
ENDROOT
BRANCH  13  12
ATOM     12  C   UNL     1      46.170   4.875  12.642  0.00  0.00    +0.000 C 
BRANCH  12   9
ATOM      9  N   UNL     1      45.051   5.796  12.380  0.00  0.00    +0.000 NA
BRANCH   9  10
ATOM     10  C   UNL     1      43.803   5.322  13.005  0.00  0.00    +0.000 C 
ATOM     11  C   UNL     1      42.531   5.419  12.164  0.00  0.00    +0.000 C 
ENDBRANCH   9  10
BRANCH   9   8
ATOM      8  C   UNL     1      44.933   6.080  10.939  0.00  0.00    +0.000 C 
BRANCH   8   7
ATOM      7  C   UNL     1      45.392   4.912  10.070  0.00  0.00    +0.000 C 
BRANCH   7   6
ATOM      6  C   UNL     1      44.233   4.264   9.321  0.00  0.00    +0.000 C 
BRANCH   6   5
ATOM      5  C   UNL     1      44.807   3.372   8.226  0.00  0.00    +0.000 C 
BRANCH   5   4
ATOM      4  C   UNL     1      46.152   3.881   7.735  0.00  0.00    +0.000 C 
BRANCH   4   3
ATOM      3  C   UNL     1      46.602   3.089   6.511  0.00  0.00    +0.000 C 
BRANCH   3   2
ATOM      1  C   UNL     1      47.031   0.773   7.384  0.00  0.00    +0.000 C 
ATOM      2  C   UNL     1      47.662   2.064   6.897  0.00  0.00    +0.000 C 
ENDBRANCH   3   2
ENDBRANCH   4   3
ENDBRANCH   5   4
ENDBRANCH   6   5
ENDBRANCH   7   6
ENDBRANCH   8   7
ENDBRANCH   9   8
ENDBRANCH  12   9
ENDBRANCH  13  12
BRANCH  16  17
ATOM     17  C   UNL     1      49.262   6.422  17.364  0.00  0.00    +0.000 C 
BRANCH  17  18
ATOM     18  N   UNL     1      50.240   5.431  17.733  0.00  0.00    +0.000 N 
ATOM     19  C   UNL     1      51.513   5.440  17.212  0.00  0.00    +0.000 C 
ATOM     20  O   UNL     1      51.890   6.300  16.419  0.00  0.00    +0.000 OA
ATOM     33  H   UNL     1      49.897   4.590  18.178  0.00  0.00    +0.000 HD
BRANCH  19  21
ATOM     21  C   UNL     1      52.423   4.401  17.710  0.00  0.00    +0.000 A 
ATOM     22  C   UNL     1      53.656   4.758  18.234  0.00  0.00    +0.000 A 
ATOM     23  S   UNL     1      54.555   3.432  18.828  0.00  0.00    +0.000 S 
ATOM     24  C   UNL     1      53.348   2.334  18.347  0.00  0.00    +0.000 A 
ATOM     25  N   UNL     1      53.508   0.995  18.543  0.00  0.00    +0.000 NA
ATOM     26  C   UNL     1      52.527   0.274  18.109  0.00  0.00    +0.000 A 
ATOM     27  N   UNL     1      51.402   0.766  17.503  0.00  0.00    +0.000 N 
ATOM     28  C   UNL     1      51.185   2.113  17.319  0.00  0.00    +0.000 A 
ATOM     29  O   UNL     1      50.141   2.527  16.823  0.00  0.00    +0.000 OA
ATOM     30  C   UNL     1      52.269   2.967  17.769  0.00  0.00    +0.000 A 
ATOM     34  H   UNL     1      50.664   0.154  17.200  0.00  0.00    +0.000 HD
ENDBRANCH  19  21
ENDBRANCH  17  18
ENDBRANCH  16  17
TORSDOF 13
ENDMDL
MODEL 2
REMARK VINA RESULT:    -6.784      5.177      6.355
REMARK INTER + INTRA:         -13.378
REMARK INTER:                 -11.855
REMARK INTRA:                  -1.523
REMARK UNBOUND:                -1.438
REMARK  Name = 
REMARK  15 active torsions:
REMARK  status: ('A' for Active; 'I' for Inactive)
REMARK    1  A    between atoms: C_1  and  C_2
REMARK    2  A    between atoms: C_2  and  C_3
REMARK    3  A    between atoms: C_3  and  C_4
REMARK    4  A    between atoms: C_4  and  C_5
REMARK    5  A    between atoms: C_5  and  C_6
REMARK    6  A    between atoms: C_6  and  C_7
REMARK    7  A    between atoms: C_7  and  C_8
REMARK    8  A    between atoms: C_8  and  N_9
REMARK    9  A    between atoms: N_9  and  C_10
REMARK   10  A    between atoms: N_9  and  C_12
REMARK   11  A    between atoms: C_10  and  C_11
REMARK   12  A    between atoms: C_12  and  C_13
REMARK   13  A    between atoms: C_16  and  C_17
REMARK   14  A    between atoms: C_17  and  N_18
REMARK   15  A    between atoms: C_19  and  C_21
REMARK                            x       y       z     vdW  Elec       q    Type
REMARK                         _______ _______ _______ _____ _____    ______ ____
ROOT
ATOM     13  C   UNL     1      46.813   6.020  13.014  0.00  0.00    +0.000 A 
ATOM     14  C   UNL     1      47.973   6.219  13.776  0.00  0.00    +0.000 A 
ATOM     15  C   UNL     1      49.044   6.961  13.264  0.00  0.00    +0.000 A 
ATOM     16  C   UNL     1      48.971   7.533  11.987  0.00  0.00    +0.000 A 
ATOM     31  C   UNL     1      47.802   7.349  11.234  0.00  0.00    +0.000 A 
ATOM     32  C   UNL     1      46.732   6.609  11.746  0.00  0.00    +0.000 A 
ENDROOT
BRANCH  13  12
ATOM     12  C   UNL     1      45.671   5.168  13.538  0.00  0.00    +0.000 C 
BRANCH  12   9
ATOM      9  N   UNL     1      44.715   4.743  12.502  0.00  0.00    +0.000 NA
BRANCH   9  10
ATOM     10  C   UNL     1      43.322   4.979  12.922  0.00  0.00    +0.000 C 
ATOM     11  C   UNL     1      42.397   5.640  11.900  0.00  0.00    +0.000 C 
ENDBRANCH   9  10
BRANCH   9   8
ATOM      8  C   UNL     1      44.989   3.360  12.073  0.00  0.00    +0.000 C 
BRANCH   8   7
ATOM      7  C   UNL     1      44.799   3.160  10.572  0.00  0.00    +0.000 C 
BRANCH   7   6
ATOM      6  C   UNL     1      45.000   4.453   9.791  0.00  0.00    +0.000 C 
BRANCH   6   5
ATOM      5  C   UNL     1      44.936   4.130   8.302  0.00  0.00    +0.000 C 
BRANCH   5   4
ATOM      4  C   UNL     1      45.727   2.878   7.965  0.00  0.00    +0.000 C 
BRANCH   4   3
ATOM      3  C   UNL     1      46.840   3.207   6.975  0.00  0.00    +0.000 C 
BRANCH   3   2
ATOM      1  C   UNL     1      47.139   0.736   7.304  0.00  0.00    +0.000 C 
ATOM      2  C   UNL     1      47.781   2.019   6.812  0.00  0.00    +0.000 C 
ENDBRANCH   3   2
ENDBRANCH   4   3
ENDBRANCH   5   4
ENDBRANCH   6   5
ENDBRANCH   7   6
ENDBRANCH   8   7
ENDBRANCH   9   8
ENDBRANCH  12   9
ENDBRANCH  13  12
BRANCH  16  17
ATOM     17  C   UNL     1      50.133   8.293  11.400  0.00  0.00    +0.000 C 
BRANCH  17  18
ATOM     18  N   UNL     1      51.218   7.404  11.072  0.00  0.00    +0.000 N 
ATOM     19  C   UNL     1      52.210   7.765  10.190  0.00  0.00    +0.000 C 
ATOM     20  O   UNL     1      52.235   8.869   9.649  0.00  0.00    +0.000 OA
ATOM     33  H   UNL     1      51.095   6.426  11.301  0.00  0.00    +0.000 HD
BRANCH  19  21
ATOM     21  C   UNL     1      53.279   6.781   9.982  0.00  0.00    +0.000 A 
ATOM     22  C   UNL     1      54.195   6.534  10.993  0.00  0.00    +0.000 A 
ATOM     23  S   UNL     1      55.326   5.314  10.607  0.00  0.00    +0.000 S 
ATOM     24  C   UNL     1      54.664   5.123   9.052  0.00  0.00    +0.000 A 
ATOM     25  N   UNL     1      55.200   4.230   8.172  0.00  0.00    +0.000 NA
ATOM     26  C   UNL     1      54.615   4.204   7.020  0.00  0.00    +0.000 A 
ATOM     27  N   UNL     1      53.545   4.981   6.668  0.00  0.00    +0.000 N 
ATOM     28  C   UNL     1      52.951   5.868   7.537  0.00  0.00    +0.000 A 
ATOM     29  O   UNL     1      51.957   6.510   7.209  0.00  0.00    +0.000 OA
ATOM     30  C   UNL     1      53.584   5.953   8.840  0.00  0.00    +0.000 A 
ATOM     34  H   UNL     1      53.123   4.904   5.758  0.00  0.00    +0.000 HD
ENDBRANCH  19  21
ENDBRANCH  17  18
ENDBRANCH  16  17
TORSDOF 13
ENDMDL
MODEL 3
REMARK VINA RESULT:    -6.777      4.005      9.095
REMARK INTER + INTRA:         -13.366
REMARK INTER:                 -10.426
REMARK INTRA:                  -2.940
REMARK UNBOUND:                -1.438
REMARK  Name = 
REMARK  15 active torsions:
REMARK  status: ('A' for Active; 'I' for Inactive)
REMARK    1  A    between atoms: C_1  and  C_2
REMARK    2  A    between atoms: C_2  and  C_3
REMARK    3  A    between atoms: C_3  and  C_4
REMARK    4  A    between atoms: C_4  and  C_5
REMARK    5  A    between atoms: C_5  and  C_6
REMARK    6  A    between atoms: C_6  and  C_7
REMARK    7  A    between atoms: C_7  and  C_8
REMARK    8  A    between atoms: C_8  and  N_9
REMARK    9  A    between atoms: N_9  and  C_10
REMARK   10  A    between atoms: N_9  and  C_12
REMARK   11  A    between atoms: C_10  and  C_11
REMARK   12  A    between atoms: C_12  and  C_13
REMARK   13  A    between atoms: C_16  and  C_17
REMARK   14  A    between atoms: C_17  and  N_18
REMARK   15  A    between atoms: C_19  and  C_21
REMARK                            x       y       z     vdW  Elec       q    Type
REMARK                         _______ _______ _______ _____ _____    ______ ____
ROOT
ATOM     13  C   UNL     1      49.469   7.953  15.901  0.00  0.00    +0.000 A 
ATOM     14  C   UNL     1      49.915   7.121  14.864  0.00  0.00    +0.000 A 
ATOM     15  C   UNL     1      49.264   7.114  13.625  0.00  0.00    +0.000 A 
ATOM     16  C   UNL     1      48.164   7.949  13.391  0.00  0.00    +0.000 A 
ATOM     31  C   UNL     1      47.730   8.794  14.423  0.00  0.00    +0.000 A 
ATOM     32  C   UNL     1      48.381   8.802  15.660  0.00  0.00    +0.000 A 
ENDROOT
BRANCH  13  12
ATOM     12  C   UNL     1      50.132   7.925  17.266  0.00  0.00    +0.000 C 
BRANCH  12   9
ATOM      9  N   UNL     1      49.738   6.777  18.100  0.00  0.00    +0.000 NA
BRANCH   9  10
ATOM     10  C   UNL     1      48.933   7.203  19.261  0.00  0.00    +0.000 C 
ATOM     11  C   UNL     1      47.426   6.971  19.175  0.00  0.00    +0.000 C 
ENDBRANCH   9  10
BRANCH   9   8
ATOM      8  C   UNL     1      50.911   5.956  18.450  0.00  0.00    +0.000 C 
BRANCH   8   7
ATOM      7  C   UNL     1      50.541   4.516  18.793  0.00  0.00    +0.000 C 
BRANCH   7   6
ATOM      6  C   UNL     1      50.864   3.554  17.656  0.00  0.00    +0.000 C 
BRANCH   6   5
ATOM      5  C   UNL     1      49.577   2.845  17.247  0.00  0.00    +0.000 C 
BRANCH   5   4
ATOM      4  C   UNL     1      48.409   3.244  18.134  0.00  0.00    +0.000 C 
BRANCH   4   3
ATOM      3  C   UNL     1      47.209   3.639  17.280  0.00  0.00    +0.000 C 
BRANCH   3   2
ATOM      1  C   UNL     1      47.043   4.309  14.865  0.00  0.00    +0.000 C 
ATOM      2  C   UNL     1      47.615   4.661  16.225  0.00  0.00    +0.000 C 
ENDBRANCH   3   2
ENDBRANCH   4   3
ENDBRANCH   5   4
ENDBRANCH   6   5
ENDBRANCH   7   6
ENDBRANCH   8   7
ENDBRANCH   9   8
ENDBRANCH  12   9
ENDBRANCH  13  12
BRANCH  16  17
ATOM     17  C   UNL     1      47.421   7.918  12.080  0.00  0.00    +0.000 C 
BRANCH  17  18
ATOM     18  N   UNL     1      46.752   6.655  11.896  0.00  0.00    +0.000 N 
ATOM     19  C   UNL     1      45.385   6.571  11.762  0.00  0.00    +0.000 C 
ATOM     20  O   UNL     1      44.664   7.567  11.772  0.00  0.00    +0.000 OA
ATOM     33  H   UNL     1      47.275   5.821  12.126  0.00  0.00    +0.000 HD
BRANCH  19  21
ATOM     21  C   UNL     1      44.840   5.228  11.533  0.00  0.00    +0.000 A 
ATOM     22  C   UNL     1      44.120   4.597  12.537  0.00  0.00    +0.000 A 
ATOM     23  S   UNL     1      43.502   3.073  12.077  0.00  0.00    +0.000 S 
ATOM     24  C   UNL     1      44.230   3.183  10.544  0.00  0.00    +0.000 A 
ATOM     25  N   UNL     1      44.111   2.167   9.643  0.00  0.00    +0.000 NA
ATOM     26  C   UNL     1      44.733   2.372   8.528  0.00  0.00    +0.000 A 
ATOM     27  N   UNL     1      45.456   3.496   8.230  0.00  0.00    +0.000 N 
ATOM     28  C   UNL     1      45.570   4.559   9.097  0.00  0.00    +0.000 A 
ATOM     29  O   UNL     1      46.180   5.576   8.778  0.00  0.00    +0.000 OA
ATOM     30  C   UNL     1      44.908   4.371  10.374  0.00  0.00    +0.000 A 
ATOM     34  H   UNL     1      45.906   3.603   7.337  0.00  0.00    +0.000 HD
ENDBRANCH  19  21
ENDBRANCH  17  18
ENDBRANCH  16  17
TORSDOF 13
ENDMDL
MODEL 4
REMARK VINA RESULT:    -6.738      2.892      3.443
REMARK INTER + INTRA:         -13.296
REMARK INTER:                 -11.826
REMARK INTRA:                  -1.469
REMARK UNBOUND:                -1.438
REMARK  Name = 
REMARK  15 active torsions:
REMARK  status: ('A' for Active; 'I' for Inactive)
REMARK    1  A    between atoms: C_1  and  C_2
REMARK    2  A    between atoms: C_2  and  C_3
REMARK    3  A    between atoms: C_3  and  C_4
REMARK    4  A    between atoms: C_4  and  C_5
REMARK    5  A    between atoms: C_5  and  C_6
REMARK    6  A    between atoms: C_6  and  C_7
REMARK    7  A    between atoms: C_7  and  C_8
REMARK    8  A    between atoms: C_8  and  N_9
REMARK    9  A    between atoms: N_9  and  C_10
REMARK   10  A    between atoms: N_9  and  C_12
REMARK   11  A    between atoms: C_10  and  C_11
REMARK   12  A    between atoms: C_12  and  C_13
REMARK   13  A    between atoms: C_16  and  C_17
REMARK   14  A    between atoms: C_17  and  N_18
REMARK   15  A    between atoms: C_19  and  C_21
REMARK                            x       y       z     vdW  Elec       q    Type
REMARK                         _______ _______ _______ _____ _____    ______ ____
ROOT
ATOM     13  C   UNL     1      46.208   6.801  11.633  0.00  0.00    +0.000 A 
ATOM     14  C   UNL     1      45.494   7.855  12.220  0.00  0.00    +0.000 A 
ATOM     15  C   UNL     1      46.076   8.639  13.224  0.00  0.00    +0.000 A 
ATOM     16  C   UNL     1      47.388   8.395  13.650  0.00  0.00    +0.000 A 
ATOM     31  C   UNL     1      48.107   7.351  13.049  0.00  0.00    +0.000 A 
ATOM     32  C   UNL     1      47.527   6.569  12.046  0.00  0.00    +0.000 A 
ENDROOT
BRANCH  13  12
ATOM     12  C   UNL     1      45.565   5.909  10.586  0.00  0.00    +0.000 C 
BRANCH  12   9
ATOM      9  N   UNL     1      44.269   5.341  10.997  0.00  0.00    +0.000 NA
BRANCH   9  10
ATOM     10  C   UNL     1      44.346   4.730  12.337  0.00  0.00    +0.000 C 
ATOM     11  C   UNL     1      43.101   4.836  13.215  0.00  0.00    +0.000 C 
ENDBRANCH   9  10
BRANCH   9   8
ATOM      8  C   UNL     1      43.738   4.444   9.955  0.00  0.00    +0.000 C 
BRANCH   8   7
ATOM      7  C   UNL     1      44.101   2.982  10.197  0.00  0.00    +0.000 C 
BRANCH   7   6
ATOM      6  C   UNL     1      44.978   2.418   9.084  0.00  0.00    +0.000 C 
BRANCH   6   5
ATOM      5  C   UNL     1      44.939   3.385   7.906  0.00  0.00    +0.000 C 
BRANCH   5   4
ATOM      4  C   UNL     1      46.336   3.786   7.462  0.00  0.00    +0.000 C 
BRANCH   4   3
ATOM      3  C   UNL     1      46.768   2.952   6.261  0.00  0.00    +0.000 C 
BRANCH   3   2
ATOM      1  C   UNL     1      47.181   0.681   7.252  0.00  0.00    +0.000 C 
ATOM      2  C   UNL     1      47.820   1.929   6.671  0.00  0.00    +0.000 C 
ENDBRANCH   3   2
ENDBRANCH   4   3
ENDBRANCH   5   4
ENDBRANCH   6   5
ENDBRANCH   7   6
ENDBRANCH   8   7
ENDBRANCH   9   8
ENDBRANCH  12   9
ENDBRANCH  13  12
BRANCH  16  17
ATOM     17  C   UNL     1      48.012   9.196  14.764  0.00  0.00    +0.000 C 
BRANCH  17  18
ATOM     18  N   UNL     1      48.192   8.388  15.943  0.00  0.00    +0.000 N 
ATOM     19  C   UNL     1      49.442   8.095  16.436  0.00  0.00    +0.000 C 
ATOM     20  O   UNL     1      50.470   8.520  15.912  0.00  0.00    +0.000 OA
ATOM     33  H   UNL     1      47.402   7.834  16.244  0.00  0.00    +0.000 HD
BRANCH  19  21
ATOM     21  C   UNL     1      49.480   7.301  17.670  0.00  0.00    +0.000 A 
ATOM     22  C   UNL     1      49.967   7.866  18.839  0.00  0.00    +0.000 A 
ATOM     23  S   UNL     1      49.874   6.826  20.190  0.00  0.00    +0.000 S 
ATOM     24  C   UNL     1      49.236   5.567  19.241  0.00  0.00    +0.000 A 
ATOM     25  N   UNL     1      48.950   4.354  19.794  0.00  0.00    +0.000 NA
ATOM     26  C   UNL     1      48.494   3.483  18.955  0.00  0.00    +0.000 A 
ATOM     27  N   UNL     1      48.294   3.711  17.620  0.00  0.00    +0.000 N 
ATOM     28  C   UNL     1      48.536   4.931  17.030  0.00  0.00    +0.000 A 
ATOM     29  O   UNL     1      48.294   5.121  15.841  0.00  0.00    +0.000 OA
ATOM     30  C   UNL     1      49.071   5.940  17.924  0.00  0.00    +0.000 A 
ATOM     34  H   UNL     1      47.922   2.995  17.020  0.00  0.00    +0.000 HD
ENDBRANCH  19  21
ENDBRANCH  17  18
ENDBRANCH  16  17
TORSDOF 13
ENDMDL
MODEL 5
REMARK VINA RESULT:    -6.431      3.974     10.041
REMARK INTER + INTRA:         -12.756
REMARK INTER:                  -9.835
REMARK INTRA:                  -2.921
REMARK UNBOUND:                -1.438
REMARK  Name = 
REMARK  15 active torsions:
REMARK  status: ('A' for Active; 'I' for Inactive)
REMARK    1  A    between atoms: C_1  and  C_2
REMARK    2  A    between atoms: C_2  and  C_3
REMARK    3  A    between atoms: C_3  and  C_4
REMARK    4  A    between atoms: C_4  and  C_5
REMARK    5  A    between atoms: C_5  and  C_6
REMARK    6  A    between atoms: C_6  and  C_7
REMARK    7  A    between atoms: C_7  and  C_8
REMARK    8  A    between atoms: C_8  and  N_9
REMARK    9  A    between atoms: N_9  and  C_10
REMARK   10  A    between atoms: N_9  and  C_12
REMARK   11  A    between atoms: C_10  and  C_11
REMARK   12  A    between atoms: C_12  and  C_13
REMARK   13  A    between atoms: C_16  and  C_17
REMARK   14  A    between atoms: C_17  and  N_18
REMARK   15  A    between atoms: C_19  and  C_21
REMARK                            x       y       z     vdW  Elec       q    Type
REMARK                         _______ _______ _______ _____ _____    ______ ____
ROOT
ATOM     13  C   UNL     1      51.399   4.159  17.670  0.00  0.00    +0.000 A 
ATOM     14  C   UNL     1      50.544   5.250  17.457  0.00  0.00    +0.000 A 
ATOM     15  C   UNL     1      49.190   5.049  17.164  0.00  0.00    +0.000 A 
ATOM     16  C   UNL     1      48.660   3.754  17.095  0.00  0.00    +0.000 A 
ATOM     31  C   UNL     1      49.512   2.665  17.327  0.00  0.00    +0.000 A 
ATOM     32  C   UNL     1      50.864   2.866  17.620  0.00  0.00    +0.000 A 
ENDROOT
BRANCH  13  12
ATOM     12  C   UNL     1      52.881   4.367  17.929  0.00  0.00    +0.000 C 
BRANCH  12   9
ATOM      9  N   UNL     1      53.237   5.747  18.301  0.00  0.00    +0.000 NA
BRANCH   9  10
ATOM     10  C   UNL     1      54.312   6.278  17.441  0.00  0.00    +0.000 C 
ATOM     11  C   UNL     1      54.047   6.289  15.937  0.00  0.00    +0.000 C 
ENDBRANCH   9  10
BRANCH   9   8
ATOM      8  C   UNL     1      53.516   5.845  19.744  0.00  0.00    +0.000 C 
BRANCH   8   7
ATOM      7  C   UNL     1      52.350   6.437  20.531  0.00  0.00    +0.000 C 
BRANCH   7   6
ATOM      6  C   UNL     1      52.076   7.886  20.145  0.00  0.00    +0.000 C 
BRANCH   6   5
ATOM      5  C   UNL     1      50.593   8.022  19.815  0.00  0.00    +0.000 C 
BRANCH   5   4
ATOM      4  C   UNL     1      49.730   7.202  20.759  0.00  0.00    +0.000 C 
BRANCH   4   3
ATOM      3  C   UNL     1      48.318   7.063  20.197  0.00  0.00    +0.000 C 
BRANCH   3   2
ATOM      1  C   UNL     1      48.844   4.703  20.876  0.00  0.00    +0.000 C 
ATOM      2  C   UNL     1      47.746   5.689  20.523  0.00  0.00    +0.000 C 
ENDBRANCH   3   2
ENDBRANCH   4   3
ENDBRANCH   5   4
ENDBRANCH   6   5
ENDBRANCH   7   6
ENDBRANCH   8   7
ENDBRANCH   9   8
ENDBRANCH  12   9
ENDBRANCH  13  12
BRANCH  16  17
ATOM     17  C   UNL     1      47.215   3.517  16.733  0.00  0.00    +0.000 C 
BRANCH  17  18
ATOM     18  N   UNL     1      46.761   4.483  15.766  0.00  0.00    +0.000 N 
ATOM     19  C   UNL     1      46.783   4.223  14.415  0.00  0.00    +0.000 C 
ATOM     20  O   UNL     1      47.173   3.148  13.962  0.00  0.00    +0.000 OA
ATOM     33  H   UNL     1      46.671   5.440  16.081  0.00  0.00    +0.000 HD
BRANCH  19  21
ATOM     21  C   UNL     1      46.248   5.276  13.545  0.00  0.00    +0.000 A 
ATOM     22  C   UNL     1      47.007   6.407  13.284  0.00  0.00    +0.000 A 
ATOM     23  S   UNL     1      46.260   7.495  12.200  0.00  0.00    +0.000 S 
ATOM     24  C   UNL     1      44.872   6.517  12.095  0.00  0.00    +0.000 A 
ATOM     25  N   UNL     1      43.809   6.897  11.332  0.00  0.00    +0.000 NA
ATOM     26  C   UNL     1      42.813   6.074  11.361  0.00  0.00    +0.000 A 
ATOM     27  N   UNL     1      42.783   4.907  12.077  0.00  0.00    +0.000 N 
ATOM     28  C   UNL     1      43.849   4.469  12.830  0.00  0.00    +0.000 A 
ATOM     29  O   UNL     1      43.812   3.390  13.416  0.00  0.00    +0.000 OA
ATOM     30  C   UNL     1      44.986   5.369  12.850  0.00  0.00    +0.000 A 
ATOM     34  H   UNL     1      41.982   4.299  12.047  0.00  0.00    +0.000 HD
ENDBRANCH  19  21
ENDBRANCH  17  18
ENDBRANCH  16  17
TORSDOF 13
ENDMDL
MODEL 6
REMARK VINA RESULT:    -6.413      1.651      2.858
REMARK INTER + INTRA:         -12.724
REMARK INTER:                 -11.460
REMARK INTRA:                  -1.264
REMARK UNBOUND:                -1.438
REMARK  Name = 
REMARK  15 active torsions:
REMARK  status: ('A' for Active; 'I' for Inactive)
REMARK    1  A    between atoms: C_1  and  C_2
REMARK    2  A    between atoms: C_2  and  C_3
REMARK    3  A    between atoms: C_3  and  C_4
REMARK    4  A    between atoms: C_4  and  C_5
REMARK    5  A    between atoms: C_5  and  C_6
REMARK    6  A    between atoms: C_6  and  C_7
REMARK    7  A    between atoms: C_7  and  C_8
REMARK    8  A    between atoms: C_8  and  N_9
REMARK    9  A    between atoms: N_9  and  C_10
REMARK   10  A    between atoms: N_9  and  C_12
REMARK   11  A    between atoms: C_10  and  C_11
REMARK   12  A    between atoms: C_12  and  C_13
REMARK   13  A    between atoms: C_16  and  C_17
REMARK   14  A    between atoms: C_17  and  N_18
REMARK   15  A    between atoms: C_19  and  C_21
REMARK                            x       y       z     vdW  Elec       q    Type
REMARK                         _______ _______ _______ _____ _____    ______ ____
ROOT
ATOM     13  C   UNL     1      47.212   5.684  13.491  0.00  0.00    +0.000 A 
ATOM     14  C   UNL     1      47.852   6.258  14.598  0.00  0.00    +0.000 A 
ATOM     15  C   UNL     1      48.001   5.538  15.789  0.00  0.00    +0.000 A 
ATOM     16  C   UNL     1      47.528   4.224  15.893  0.00  0.00    +0.000 A 
ATOM     31  C   UNL     1      46.904   3.644  14.778  0.00  0.00    +0.000 A 
ATOM     32  C   UNL     1      46.757   4.363  13.588  0.00  0.00    +0.000 A 
ENDROOT
BRANCH  13  12
ATOM     12  C   UNL     1      46.994   6.478  12.216  0.00  0.00    +0.000 C 
BRANCH  12   9
ATOM      9  N   UNL     1      45.702   7.182  12.161  0.00  0.00    +0.000 NA
BRANCH   9  10
ATOM     10  C   UNL     1      45.743   8.446  12.921  0.00  0.00    +0.000 C 
ATOM     11  C   UNL     1      45.251   9.699  12.198  0.00  0.00    +0.000 C 
ENDBRANCH   9  10
BRANCH   9   8
ATOM      8  C   UNL     1      44.600   6.284  12.547  0.00  0.00    +0.000 C 
BRANCH   8   7
ATOM      7  C   UNL     1      43.639   6.003  11.395  0.00  0.00    +0.000 C 
BRANCH   7   6
ATOM      6  C   UNL     1      43.467   4.509  11.144  0.00  0.00    +0.000 C 
BRANCH   6   5
ATOM      5  C   UNL     1      44.790   3.954  10.627  0.00  0.00    +0.000 C 
BRANCH   5   4
ATOM      4  C   UNL     1      45.159   4.545   9.277  0.00  0.00    +0.000 C 
BRANCH   4   3
ATOM      3  C   UNL     1      45.009   3.494   8.182  0.00  0.00    +0.000 C 
BRANCH   3   2
ATOM      1  C   UNL     1      46.413   1.420   7.996  0.00  0.00    +0.000 C 
ATOM      2  C   UNL     1      45.279   2.101   8.738  0.00  0.00    +0.000 C 
ENDBRANCH   3   2
ENDBRANCH   4   3
ENDBRANCH   5   4
ENDBRANCH   6   5
ENDBRANCH   7   6
ENDBRANCH   8   7
ENDBRANCH   9   8
ENDBRANCH  12   9
ENDBRANCH  13  12
BRANCH  16  17
ATOM     17  C   UNL     1      47.635   3.451  17.183  0.00  0.00    +0.000 C 
BRANCH  17  18
ATOM     18  N   UNL     1      49.013   3.264  17.560  0.00  0.00    +0.000 N 
ATOM     19  C   UNL     1      49.816   2.337  16.936  0.00  0.00    +0.000 C 
ATOM     20  O   UNL     1      49.409   1.633  16.015  0.00  0.00    +0.000 OA
ATOM     33  H   UNL     1      49.300   3.641  18.453  0.00  0.00    +0.000 HD
BRANCH  19  21
ATOM     21  C   UNL     1      51.212   2.284  17.386  0.00  0.00    +0.000 A 
ATOM     22  C   UNL     1      51.818   1.057  17.610  0.00  0.00    +0.000 A 
ATOM     23  S   UNL     1      53.460   1.180  18.062  0.00  0.00    +0.000 S 
ATOM     24  C   UNL     1      53.394   2.880  18.033  0.00  0.00    +0.000 A 
ATOM     25  N   UNL     1      54.488   3.625  18.358  0.00  0.00    +0.000 NA
ATOM     26  C   UNL     1      54.292   4.901  18.317  0.00  0.00    +0.000 A 
ATOM     27  N   UNL     1      53.109   5.501  17.978  0.00  0.00    +0.000 N 
ATOM     28  C   UNL     1      51.992   4.786  17.608  0.00  0.00    +0.000 A 
ATOM     29  O   UNL     1      50.962   5.355  17.255  0.00  0.00    +0.000 OA
ATOM     30  C   UNL     1      52.152   3.345  17.658  0.00  0.00    +0.000 A 
ATOM     34  H   UNL     1      53.023   6.503  17.950  0.00  0.00    +0.000 HD
ENDBRANCH  19  21
ENDBRANCH  17  18
ENDBRANCH  16  17
TORSDOF 13
ENDMDL
MODEL 7
REMARK VINA RESULT:    -6.300      3.981      9.481
REMARK INTER + INTRA:         -12.525
REMARK INTER:                  -9.315
REMARK INTRA:                  -3.211
REMARK UNBOUND:                -1.438
REMARK  Name = 
REMARK  15 active torsions:
REMARK  status: ('A' for Active; 'I' for Inactive)
REMARK    1  A    between atoms: C_1  and  C_2
REMARK    2  A    between atoms: C_2  and  C_3
REMARK    3  A    between atoms: C_3  and  C_4
REMARK    4  A    between atoms: C_4  and  C_5
REMARK    5  A    between atoms: C_5  and  C_6
REMARK    6  A    between atoms: C_6  and  C_7
REMARK    7  A    between atoms: C_7  and  C_8
REMARK    8  A    between atoms: C_8  and  N_9
REMARK    9  A    between atoms: N_9  and  C_10
REMARK   10  A    between atoms: N_9  and  C_12
REMARK   11  A    between atoms: C_10  and  C_11
REMARK   12  A    between atoms: C_12  and  C_13
REMARK   13  A    between atoms: C_16  and  C_17
REMARK   14  A    between atoms: C_17  and  N_18
REMARK   15  A    between atoms: C_19  and  C_21
REMARK                            x       y       z     vdW  Elec       q    Type
REMARK                         _______ _______ _______ _____ _____    ______ ____
ROOT
ATOM     13  C   UNL     1      50.588   4.693  19.120  0.00  0.00    +0.000 A 
ATOM     14  C   UNL     1      49.302   5.151  19.437  0.00  0.00    +0.000 A 
ATOM     15  C   UNL     1      48.188   4.709  18.713  0.00  0.00    +0.000 A 
ATOM     16  C   UNL     1      48.336   3.788  17.668  0.00  0.00    +0.000 A 
ATOM     31  C   UNL     1      49.622   3.317  17.364  0.00  0.00    +0.000 A 
ATOM     32  C   UNL     1      50.733   3.758  18.087  0.00  0.00    +0.000 A 
ENDROOT
BRANCH  13  12
ATOM     12  C   UNL     1      51.807   5.213  19.861  0.00  0.00    +0.000 C 
BRANCH  12   9
ATOM      9  N   UNL     1      53.012   5.333  19.023  0.00  0.00    +0.000 NA
BRANCH   9  10
ATOM     10  C   UNL     1      54.181   4.700  19.662  0.00  0.00    +0.000 C 
ATOM     11  C   UNL     1      53.932   3.387  20.403  0.00  0.00    +0.000 C 
ENDBRANCH   9  10
BRANCH   9   8
ATOM      8  C   UNL     1      53.232   6.734  18.620  0.00  0.00    +0.000 C 
BRANCH   8   7
ATOM      7  C   UNL     1      53.646   6.867  17.157  0.00  0.00    +0.000 C 
BRANCH   7   6
ATOM      6  C   UNL     1      52.491   6.577  16.205  0.00  0.00    +0.000 C 
BRANCH   6   5
ATOM      5  C   UNL     1      51.249   7.293  16.726  0.00  0.00    +0.000 C 
BRANCH   5   4
ATOM      4  C   UNL     1      49.985   6.781  16.057  0.00  0.00    +0.000 C 
BRANCH   4   3
ATOM      3  C   UNL     1      48.805   7.687  16.395  0.00  0.00    +0.000 C 
BRANCH   3   2
ATOM      1  C   UNL     1      47.803   9.181  18.148  0.00  0.00    +0.000 C 
ATOM      2  C   UNL     1      48.999   8.330  17.763  0.00  0.00    +0.000 C 
ENDBRANCH   3   2
ENDBRANCH   4   3
ENDBRANCH   5   4
ENDBRANCH   6   5
ENDBRANCH   7   6
ENDBRANCH   8   7
ENDBRANCH   9   8
ENDBRANCH  12   9
ENDBRANCH  13  12
BRANCH  16  17
ATOM     17  C   UNL     1      47.155   3.338  16.846  0.00  0.00    +0.000 C 
BRANCH  17  18
ATOM     18  N   UNL     1      46.781   4.347  15.887  0.00  0.00    +0.000 N 
ATOM     19  C   UNL     1      46.874   4.128  14.532  0.00  0.00    +0.000 C 
ATOM     20  O   UNL     1      47.263   3.059  14.066  0.00  0.00    +0.000 OA
ATOM     33  H   UNL     1      46.696   5.295  16.227  0.00  0.00    +0.000 HD
BRANCH  19  21
ATOM     21  C   UNL     1      46.416   5.222  13.667  0.00  0.00    +0.000 A 
ATOM     22  C   UNL     1      47.238   6.317  13.448  0.00  0.00    +0.000 A 
ATOM     23  S   UNL     1      46.576   7.460  12.365  0.00  0.00    +0.000 S 
ATOM     24  C   UNL     1      45.144   6.556  12.205  0.00  0.00    +0.000 A 
ATOM     25  N   UNL     1      44.122   7.003  11.421  0.00  0.00    +0.000 NA
ATOM     26  C   UNL     1      43.087   6.230  11.409  0.00  0.00    +0.000 A 
ATOM     27  N   UNL     1      42.979   5.054  12.102  0.00  0.00    +0.000 N 
ATOM     28  C   UNL     1      44.000   4.550  12.875  0.00  0.00    +0.000 A 
ATOM     29  O   UNL     1      43.893   3.464  13.440  0.00  0.00    +0.000 OA
ATOM     30  C   UNL     1      45.180   5.391  12.941  0.00  0.00    +0.000 A 
ATOM     34  H   UNL     1      42.149   4.488  12.040  0.00  0.00    +0.000 HD
ENDBRANCH  19  21
ENDBRANCH  17  18
ENDBRANCH  16  17
TORSDOF 13
ENDMDL
MODEL 8
REMARK VINA RESULT:    -6.285      4.169      9.294
REMARK INTER + INTRA:         -12.499
REMARK INTER:                  -9.919
REMARK INTRA:                  -2.580
REMARK UNBOUND:                -1.438
REMARK  Name = 
REMARK  15 active torsions:
REMARK  status: ('A' for Active; 'I' for Inactive)
REMARK    1  A    between atoms: C_1  and  C_2
REMARK    2  A    between atoms: C_2  and  C_3
REMARK    3  A    between atoms: C_3  and  C_4
REMARK    4  A    between atoms: C_4  and  C_5
REMARK    5  A    between atoms: C_5  and  C_6
REMARK    6  A    between atoms: C_6  and  C_7
REMARK    7  A    between atoms: C_7  and  C_8
REMARK    8  A    between atoms: C_8  and  N_9
REMARK    9  A    between atoms: N_9  and  C_10
REMARK   10  A    between atoms: N_9  and  C_12
REMARK   11  A    between atoms: C_10  and  C_11
REMARK   12  A    between atoms: C_12  and  C_13
REMARK   13  A    between atoms: C_16  and  C_17
REMARK   14  A    between atoms: C_17  and  N_18
REMARK   15  A    between atoms: C_19  and  C_21
REMARK                            x       y       z     vdW  Elec       q    Type
REMARK                         _______ _______ _______ _____ _____    ______ ____
ROOT
ATOM     13  C   UNL     1      48.989   8.006  16.170  0.00  0.00    +0.000 A 
ATOM     14  C   UNL     1      48.950   6.775  15.500  0.00  0.00    +0.000 A 
ATOM     15  C   UNL     1      48.501   6.698  14.176  0.00  0.00    +0.000 A 
ATOM     16  C   UNL     1      48.097   7.850  13.491  0.00  0.00    +0.000 A 
ATOM     31  C   UNL     1      48.153   9.083  14.157  0.00  0.00    +0.000 A 
ATOM     32  C   UNL     1      48.602   9.161  15.478  0.00  0.00    +0.000 A 
ENDROOT
BRANCH  13  12
ATOM     12  C   UNL     1      49.418   8.091  17.624  0.00  0.00    +0.000 C 
BRANCH  12   9
ATOM      9  N   UNL     1      48.491   7.434  18.562  0.00  0.00    +0.000 NA
BRANCH   9  10
ATOM     10  C   UNL     1      47.466   8.372  19.055  0.00  0.00    +0.000 C 
ATOM     11  C   UNL     1      47.925   9.798  19.355  0.00  0.00    +0.000 C 
ENDBRANCH   9  10
BRANCH   9   8
ATOM      8  C   UNL     1      49.233   6.737  19.628  0.00  0.00    +0.000 C 
BRANCH   8   7
ATOM      7  C   UNL     1      50.637   6.325  19.196  0.00  0.00    +0.000 C 
BRANCH   7   6
ATOM      6  C   UNL     1      50.786   4.812  19.096  0.00  0.00    +0.000 C 
BRANCH   6   5
ATOM      5  C   UNL     1      50.584   4.404  17.640  0.00  0.00    +0.000 C 
BRANCH   5   4
ATOM      4  C   UNL     1      49.692   3.181  17.518  0.00  0.00    +0.000 C 
BRANCH   4   3
ATOM      3  C   UNL     1      48.387   3.401  18.277  0.00  0.00    +0.000 C 
BRANCH   3   2
ATOM      1  C   UNL     1      47.512   3.478  15.924  0.00  0.00    +0.000 C 
ATOM      2  C   UNL     1      47.316   3.962  17.349  0.00  0.00    +0.000 C 
ENDBRANCH   3   2
ENDBRANCH   4   3
ENDBRANCH   5   4
ENDBRANCH   6   5
ENDBRANCH   7   6
ENDBRANCH   8   7
ENDBRANCH   9   8
ENDBRANCH  12   9
ENDBRANCH  13  12
BRANCH  16  17
ATOM     17  C   UNL     1      47.564   7.778  12.082  0.00  0.00    +0.000 C 
BRANCH  17  18
ATOM     18  N   UNL     1      46.871   6.536  11.855  0.00  0.00    +0.000 N 
ATOM     19  C   UNL     1      45.497   6.464  11.844  0.00  0.00    +0.000 C 
ATOM     20  O   UNL     1      44.788   7.455  12.007  0.00  0.00    +0.000 OA
ATOM     33  H   UNL     1      47.407   5.685  11.962  0.00  0.00    +0.000 HD
BRANCH  19  21
ATOM     21  C   UNL     1      44.922   5.145  11.555  0.00  0.00    +0.000 A 
ATOM     22  C   UNL     1      44.208   4.474  12.537  0.00  0.00    +0.000 A 
ATOM     23  S   UNL     1      43.553   2.988  12.008  0.00  0.00    +0.000 S 
ATOM     24  C   UNL     1      44.255   3.167  10.470  0.00  0.00    +0.000 A 
ATOM     25  N   UNL     1      44.101   2.204   9.518  0.00  0.00    +0.000 NA
ATOM     26  C   UNL     1      44.706   2.457   8.404  0.00  0.00    +0.000 A 
ATOM     27  N   UNL     1      45.445   3.582   8.152  0.00  0.00    +0.000 N 
ATOM     28  C   UNL     1      45.595   4.594   9.073  0.00  0.00    +0.000 A 
ATOM     29  O   UNL     1      46.218   5.616   8.797  0.00  0.00    +0.000 OA
ATOM     30  C   UNL     1      44.953   4.350  10.351  0.00  0.00    +0.000 A 
ATOM     34  H   UNL     1      45.880   3.728   7.258  0.00  0.00    +0.000 HD
ENDBRANCH  19  21
ENDBRANCH  17  18
ENDBRANCH  16  17
TORSDOF 13
ENDMDL
MODEL 9
REMARK VINA RESULT:    -6.107      1.609      2.325
REMARK INTER + INTRA:         -12.186
REMARK INTER:                 -10.863
REMARK INTRA:                  -1.323
REMARK UNBOUND:                -1.438
REMARK  Name = 
REMARK  15 active torsions:
REMARK  status: ('A' for Active; 'I' for Inactive)
REMARK    1  A    between atoms: C_1  and  C_2
REMARK    2  A    between atoms: C_2  and  C_3
REMARK    3  A    between atoms: C_3  and  C_4
REMARK    4  A    between atoms: C_4  and  C_5
REMARK    5  A    between atoms: C_5  and  C_6
REMARK    6  A    between atoms: C_6  and  C_7
REMARK    7  A    between atoms: C_7  and  C_8
REMARK    8  A    between atoms: C_8  and  N_9
REMARK    9  A    between atoms: N_9  and  C_10
REMARK   10  A    between atoms: N_9  and  C_12
REMARK   11  A    between atoms: C_10  and  C_11
REMARK   12  A    between atoms: C_12  and  C_13
REMARK   13  A    between atoms: C_16  and  C_17
REMARK   14  A    between atoms: C_17  and  N_18
REMARK   15  A    between atoms: C_19  and  C_21
REMARK                            x       y       z     vdW  Elec       q    Type
REMARK                         _______ _______ _______ _____ _____    ______ ____
ROOT
ATOM     13  C   UNL     1      46.945   5.772  12.991  0.00  0.00    +0.000 A 
ATOM     14  C   UNL     1      46.472   4.469  13.199  0.00  0.00    +0.000 A 
ATOM     15  C   UNL     1      46.730   3.799  14.401  0.00  0.00    +0.000 A 
ATOM     16  C   UNL     1      47.452   4.424  15.426  0.00  0.00    +0.000 A 
ATOM     31  C   UNL     1      47.910   5.734  15.223  0.00  0.00    +0.000 A 
ATOM     32  C   UNL     1      47.652   6.404  14.023  0.00  0.00    +0.000 A 
ENDROOT
BRANCH  13  12
ATOM     12  C   UNL     1      46.721   6.483  11.669  0.00  0.00    +0.000 C 
BRANCH  12   9
ATOM      9  N   UNL     1      45.479   7.272  11.616  0.00  0.00    +0.000 NA
BRANCH   9  10
ATOM     10  C   UNL     1      45.675   8.627  12.167  0.00  0.00    +0.000 C 
ATOM     11  C   UNL     1      44.719   9.714  11.677  0.00  0.00    +0.000 C 
ENDBRANCH   9  10
BRANCH   9   8
ATOM      8  C   UNL     1      44.361   6.531  12.226  0.00  0.00    +0.000 C 
BRANCH   8   7
ATOM      7  C   UNL     1      43.364   6.015  11.192  0.00  0.00    +0.000 C 
BRANCH   7   6
ATOM      6  C   UNL     1      43.405   4.496  11.064  0.00  0.00    +0.000 C 
BRANCH   6   5
ATOM      5  C   UNL     1      44.326   4.137   9.903  0.00  0.00    +0.000 C 
BRANCH   5   4
ATOM      4  C   UNL     1      44.480   2.633   9.751  0.00  0.00    +0.000 C 
BRANCH   4   3
ATOM      3  C   UNL     1      45.484   2.314   8.648  0.00  0.00    +0.000 C 
BRANCH   3   2
ATOM      1  C   UNL     1      46.572   3.172   6.554  0.00  0.00    +0.000 C 
ATOM      2  C   UNL     1      45.552   3.455   7.640  0.00  0.00    +0.000 C 
ENDBRANCH   3   2
ENDBRANCH   4   3
ENDBRANCH   5   4
ENDBRANCH   6   5
ENDBRANCH   7   6
ENDBRANCH   8   7
ENDBRANCH   9   8
ENDBRANCH  12   9
ENDBRANCH  13  12
BRANCH  16  17
ATOM     17  C   UNL     1      47.782   3.700  16.707  0.00  0.00    +0.000 C 
BRANCH  17  18
ATOM     18  N   UNL     1      49.208   3.599  16.890  0.00  0.00    +0.000 N 
ATOM     19  C   UNL     1      49.838   4.144  17.984  0.00  0.00    +0.000 C 
ATOM     20  O   UNL     1      49.221   4.728  18.872  0.00  0.00    +0.000 OA
ATOM     33  H   UNL     1      49.758   3.350  16.079  0.00  0.00    +0.000 HD
BRANCH  19  21
ATOM     21  C   UNL     1      51.288   3.927  18.069  0.00  0.00    +0.000 A 
ATOM     22  C   UNL     1      52.122   4.976  18.424  0.00  0.00    +0.000 A 
ATOM     23  S   UNL     1      53.767   4.530  18.541  0.00  0.00    +0.000 S 
ATOM     24  C   UNL     1      53.421   2.936  18.060  0.00  0.00    +0.000 A 
ATOM     25  N   UNL     1      54.419   2.017  17.927  0.00  0.00    +0.000 NA
ATOM     26  C   UNL     1      54.020   0.853  17.533  0.00  0.00    +0.000 A 
ATOM     27  N   UNL     1      52.718   0.521  17.265  0.00  0.00    +0.000 N 
ATOM     28  C   UNL     1      51.677   1.408  17.422  0.00  0.00    +0.000 A 
ATOM     29  O   UNL     1      50.515   1.063  17.226  0.00  0.00    +0.000 OA
ATOM     30  C   UNL     1      52.074   2.738  17.841  0.00  0.00    +0.000 A 
ATOM     34  H   UNL     1      52.468  -0.409  16.975  0.00  0.00    +0.000 HD
ENDBRANCH  19  21
ENDBRANCH  17  18
ENDBRANCH  16  17
TORSDOF 13
ENDMDL
