MODEL 1
REMARK VINA RESULT:    -7.596      0.000      0.000
REMARK INTER + INTRA:          -9.966
REMARK INTER:                  -9.372
REMARK INTRA:                  -0.594
REMARK UNBOUND:                -0.594
REMARK  Name = 
REMARK  4 active torsions:
REMARK  status: ('A' for Active; 'I' for Inactive)
REMARK    1  A    between atoms: C_2  and  C_4
REMARK    2  A    between atoms: N_11  and  C_12
REMARK    3  A    between atoms: C_12  and  C_13
REMARK    4  A    between atoms: N_15  and  C_16
REMARK                            x       y       z     vdW  Elec       q    Type
REMARK                         _______ _______ _______ _____ _____    ______ ____
ROOT
ATOM      4  C   UNL     1      46.639   2.780   7.538  0.00  0.00    +0.000 A 
ATOM      5  C   UNL     1      46.552   4.164   7.675  0.00  0.00    +0.000 A 
ATOM      6  N   UNL     1      45.741   4.829   8.543  0.00  0.00    +0.000 NA
ATOM      7  C   UNL     1      45.039   3.996   9.341  0.00  0.00    +0.000 A 
ATOM      8  C   UNL     1      45.065   2.602   9.332  0.00  0.00    +0.000 A 
ATOM      9  C   UNL     1      44.188   2.161  10.357  0.00  0.00    +0.000 A 
ATOM     10  C   UNL     1      43.649   3.280  10.955  0.00  0.00    +0.000 A 
ATOM     11  N   UNL     1      44.163   4.386  10.323  0.00  0.00    +0.000 N 
ATOM     20  C   UNL     1      45.890   1.966   8.390  0.00  0.00    +0.000 A 
ENDROOT
BRANCH   4   2
ATOM      1  N   UNL     1      47.846   3.045   5.446  0.00  0.00    +0.000 N 
ATOM      2  C   UNL     1      47.529   2.226   6.497  0.00  0.00    +0.000 C 
ATOM      3  O   UNL     1      47.991   1.098   6.582  0.00  0.00    +0.000 OA
ATOM     21  H   UNL     1      48.537   2.698   4.793  0.00  0.00    +0.000 HD
ATOM     22  H   UNL     1      47.682   4.042   5.460  0.00  0.00    +0.000 HD
ENDBRANCH   4   2
BRANCH  11  12
ATOM     12  C   UNL     1      43.879   5.762  10.681  0.00  0.00    +0.000 C 
BRANCH  12  13
ATOM     13  C   UNL     1      44.764   6.263  11.798  0.00  0.00    +0.000 C 
ATOM     14  O   UNL     1      44.375   6.294  12.966  0.00  0.00    +0.000 OA
ATOM     15  N   UNL     1      46.047   6.624  11.438  0.00  0.00    +0.000 N 
ATOM     23  H   UNL     1      46.298   6.578  10.451  0.00  0.00    +0.000 HD
BRANCH  15  16
ATOM     16  C   UNL     1      47.048   6.994  12.465  0.00  0.00    +0.000 C 
ATOM     17  C   UNL     1      48.465   7.317  11.960  0.00  0.00    +0.000 C 
ATOM     18  N   UNL     1      49.029   6.459  13.024  0.00  0.00    +0.000 NA
ATOM     19  C   UNL     1      47.717   5.795  13.170  0.00  0.00    +0.000 C 
ATOM     24  H   UNL     1      49.307   6.976  13.860  0.00  0.00    +0.000 HD
ENDBRANCH  15  16
ENDBRANCH  12  13
ENDBRANCH  11  12
TORSDOF 4
ENDMDL
MODEL 2
REMARK VINA RESULT:    -7.109      1.936      6.157
REMARK INTER + INTRA:          -9.365
REMARK INTER:                  -9.034
REMARK INTRA:                  -0.330
REMARK UNBOUND:                -0.594
REMARK  Name = 
REMARK  4 active torsions:
REMARK  status: ('A' for Active; 'I' for Inactive)
REMARK    1  A    between atoms: C_2  and  C_4
REMARK    2  A    between atoms: N_11  and  C_12
REMARK    3  A    between atoms: C_12  and  C_13
REMARK    4  A    between atoms: N_15  and  C_16
REMARK                            x       y       z     vdW  Elec       q    Type
REMARK                         _______ _______ _______ _____ _____    ______ ____
ROOT
ATOM      4  C   UNL     1      46.777   6.405  12.897  0.00  0.00    +0.000 A 
ATOM      5  C   UNL     1      46.777   6.604  11.518  0.00  0.00    +0.000 A 
ATOM      6  N   UNL     1      46.067   5.881  10.608  0.00  0.00    +0.000 NA
ATOM      7  C   UNL     1      45.277   4.950  11.187  0.00  0.00    +0.000 A 
ATOM      8  C   UNL     1      45.157   4.679  12.549  0.00  0.00    +0.000 A 
ATOM      9  C   UNL     1      44.197   3.641  12.684  0.00  0.00    +0.000 A 
ATOM     10  C   UNL     1      43.766   3.304  11.419  0.00  0.00    +0.000 A 
ATOM     11  N   UNL     1      44.437   4.095  10.519  0.00  0.00    +0.000 N 
ATOM     20  C   UNL     1      45.941   5.428  13.441  0.00  0.00    +0.000 A 
ENDROOT
BRANCH   4   2
ATOM      1  N   UNL     1      47.128   8.402  14.235  0.00  0.00    +0.000 N 
ATOM      2  C   UNL     1      47.660   7.243  13.734  0.00  0.00    +0.000 C 
ATOM      3  O   UNL     1      48.804   6.906  13.997  0.00  0.00    +0.000 OA
ATOM     21  H   UNL     1      47.702   8.917  14.891  0.00  0.00    +0.000 HD
ATOM     22  H   UNL     1      46.137   8.593  14.238  0.00  0.00    +0.000 HD
ENDBRANCH   4   2
BRANCH  11  12
ATOM     12  C   UNL     1      44.239   4.082   9.083  0.00  0.00    +0.000 C 
BRANCH  12  13
ATOM     13  C   UNL     1      44.988   2.956   8.407  0.00  0.00    +0.000 C 
ATOM     14  O   UNL     1      44.822   1.781   8.736  0.00  0.00    +0.000 OA
ATOM     15  N   UNL     1      45.818   3.321   7.367  0.00  0.00    +0.000 N 
ATOM     23  H   UNL     1      45.911   4.313   7.154  0.00  0.00    +0.000 HD
BRANCH  15  16
ATOM     16  C   UNL     1      46.493   2.294   6.539  0.00  0.00    +0.000 C 
ATOM     17  C   UNL     1      47.877   1.824   7.020  0.00  0.00    +0.000 C 
ATOM     18  N   UNL     1      48.393   1.968   5.641  0.00  0.00    +0.000 NA
ATOM     19  C   UNL     1      47.254   2.853   5.319  0.00  0.00    +0.000 C 
ATOM     24  H   UNL     1      48.382   1.097   5.109  0.00  0.00    +0.000 HD
ENDBRANCH  15  16
ENDBRANCH  12  13
ENDBRANCH  11  12
TORSDOF 4
ENDMDL
MODEL 3
REMARK VINA RESULT:    -6.782      2.367      6.316
REMARK INTER + INTRA:          -8.962
REMARK INTER:                  -8.581
REMARK INTRA:                  -0.381
REMARK UNBOUND:                -0.594
REMARK  Name = 
REMARK  4 active torsions:
REMARK  status: ('A' for Active; 'I' for Inactive)
REMARK    1  A    between atoms: C_2  and  C_4
REMARK    2  A    between atoms: N_11  and  C_12
REMARK    3  A    between atoms: C_12  and  C_13
REMARK    4  A    between atoms: N_15  and  C_16
REMARK                            x       y       z     vdW  Elec       q    Type
REMARK                         _______ _______ _______ _____ _____    ______ ____
ROOT
ATOM      4  C   UNL     1      45.475   7.796  12.276  0.00  0.00    +0.000 A 
ATOM      5  C   UNL     1      44.489   7.329  11.410  0.00  0.00    +0.000 A 
ATOM      6  N   UNL     1      44.241   6.024  11.113  0.00  0.00    +0.000 NA
ATOM      7  C   UNL     1      45.029   5.175  11.808  0.00  0.00    +0.000 A 
ATOM      8  C   UNL     1      46.021   5.510  12.728  0.00  0.00    +0.000 A 
ATOM      9  C   UNL     1      46.564   4.294  13.219  0.00  0.00    +0.000 A 
ATOM     10  C   UNL     1      45.904   3.259  12.590  0.00  0.00    +0.000 A 
ATOM     11  N   UNL     1      44.985   3.805  11.728  0.00  0.00    +0.000 N 
ATOM     20  C   UNL     1      46.262   6.872  12.968  0.00  0.00    +0.000 A 
ENDROOT
BRANCH   4   2
ATOM      1  N   UNL     1      44.510  10.008  12.555  0.00  0.00    +0.000 N 
ATOM      2  C   UNL     1      45.648   9.254  12.434  0.00  0.00    +0.000 C 
ATOM      3  O   UNL     1      46.755   9.768  12.487  0.00  0.00    +0.000 OA
ATOM     21  H   UNL     1      44.637  10.990  12.768  0.00  0.00    +0.000 HD
ATOM     22  H   UNL     1      43.605   9.605  12.752  0.00  0.00    +0.000 HD
ENDBRANCH   4   2
BRANCH  11  12
ATOM     12  C   UNL     1      44.057   3.052  10.908  0.00  0.00    +0.000 C 
BRANCH  12  13
ATOM     13  C   UNL     1      44.504   2.961   9.467  0.00  0.00    +0.000 C 
ATOM     14  O   UNL     1      44.195   3.819   8.639  0.00  0.00    +0.000 OA
ATOM     15  N   UNL     1      45.322   1.895   9.153  0.00  0.00    +0.000 N 
ATOM     23  H   UNL     1      45.531   1.220   9.888  0.00  0.00    +0.000 HD
BRANCH  15  16
ATOM     16  C   UNL     1      45.936   1.779   7.811  0.00  0.00    +0.000 C 
ATOM     17  C   UNL     1      46.882   0.585   7.587  0.00  0.00    +0.000 C 
ATOM     18  N   UNL     1      47.865   1.495   6.961  0.00  0.00    +0.000 NA
ATOM     19  C   UNL     1      47.197   2.645   7.606  0.00  0.00    +0.000 C 
ATOM     24  H   UNL     1      47.805   1.521   5.941  0.00  0.00    +0.000 HD
ENDBRANCH  15  16
ENDBRANCH  12  13
ENDBRANCH  11  12
TORSDOF 4
ENDMDL
MODEL 4
REMARK VINA RESULT:    -6.670      2.387      6.471
REMARK INTER + INTRA:          -8.823
REMARK INTER:                  -8.576
REMARK INTRA:                  -0.248
REMARK UNBOUND:                -0.594
REMARK  Name = 
REMARK  4 active torsions:
REMARK  status: ('A' for Active; 'I' for Inactive)
REMARK    1  A    between atoms: C_2  and  C_4
REMARK    2  A    between atoms: N_11  and  C_12
REMARK    3  A    between atoms: C_12  and  C_13
REMARK    4  A    between atoms: N_15  and  C_16
REMARK                            x       y       z     vdW  Elec       q    Type
REMARK                         _______ _______ _______ _____ _____    ______ ____
ROOT
ATOM      4  C   UNL     1      47.126   4.924  14.337  0.00  0.00    +0.000 A 
ATOM      5  C   UNL     1      46.783   3.625  13.972  0.00  0.00    +0.000 A 
ATOM      6  N   UNL     1      45.993   3.274  12.919  0.00  0.00    +0.000 NA
ATOM      7  C   UNL     1      45.602   4.339  12.186  0.00  0.00    +0.000 A 
ATOM      8  C   UNL     1      45.908   5.679  12.420  0.00  0.00    +0.000 A 
ATOM      9  C   UNL     1      45.301   6.434  11.381  0.00  0.00    +0.000 A 
ATOM     10  C   UNL     1      44.643   5.549  10.553  0.00  0.00    +0.000 A 
ATOM     11  N   UNL     1      44.822   4.284  11.058  0.00  0.00    +0.000 N 
ATOM     20  C   UNL     1      46.694   5.988  13.542  0.00  0.00    +0.000 A 
ENDROOT
BRANCH   4   2
ATOM      1  N   UNL     1      48.267   6.418  15.876  0.00  0.00    +0.000 N 
ATOM      2  C   UNL     1      47.943   5.127  15.550  0.00  0.00    +0.000 C 
ATOM      3  O   UNL     1      48.290   4.191  16.255  0.00  0.00    +0.000 OA
ATOM     21  H   UNL     1      48.737   6.557  16.762  0.00  0.00    +0.000 HD
ATOM     22  H   UNL     1      47.810   7.218  15.463  0.00  0.00    +0.000 HD
ENDBRANCH   4   2
BRANCH  11  12
ATOM     12  C   UNL     1      44.323   3.065  10.455  0.00  0.00    +0.000 C 
BRANCH  12  13
ATOM     13  C   UNL     1      44.743   2.921   9.010  0.00  0.00    +0.000 C 
ATOM     14  O   UNL     1      44.226   3.593   8.118  0.00  0.00    +0.000 OA
ATOM     15  N   UNL     1      45.774   2.037   8.765  0.00  0.00    +0.000 N 
ATOM     23  H   UNL     1      46.150   1.510   9.552  0.00  0.00    +0.000 HD
BRANCH  15  16
ATOM     16  C   UNL     1      46.366   1.918   7.412  0.00  0.00    +0.000 C 
ATOM     17  C   UNL     1      47.475   0.865   7.237  0.00  0.00    +0.000 C 
ATOM     18  N   UNL     1      48.294   1.864   6.515  0.00  0.00    +0.000 NA
ATOM     19  C   UNL     1      47.476   2.945   7.105  0.00  0.00    +0.000 C 
ATOM     24  H   UNL     1      48.204   1.807   5.500  0.00  0.00    +0.000 HD
ENDBRANCH  15  16
ENDBRANCH  12  13
ENDBRANCH  11  12
TORSDOF 4
ENDMDL
MODEL 5
REMARK VINA RESULT:    -6.011      4.058      6.139
REMARK INTER + INTRA:          -8.010
REMARK INTER:                  -7.390
REMARK INTRA:                  -0.620
REMARK UNBOUND:                -0.594
REMARK  Name = 
REMARK  4 active torsions:
REMARK  status: ('A' for Active; 'I' for Inactive)
REMARK    1  A    between atoms: C_2  and  C_4
REMARK    2  A    between atoms: N_11  and  C_12
REMARK    3  A    between atoms: C_12  and  C_13
REMARK    4  A    between atoms: N_15  and  C_16
REMARK                            x       y       z     vdW  Elec       q    Type
REMARK                         _______ _______ _______ _____ _____    ______ ____
ROOT
ATOM      4  C   UNL     1      44.784   4.547  12.419  0.00  0.00    +0.000 A 
ATOM      5  C   UNL     1      45.921   4.049  13.050  0.00  0.00    +0.000 A 
ATOM      6  N   UNL     1      46.957   4.791  13.530  0.00  0.00    +0.000 NA
ATOM      7  C   UNL     1      46.752   6.119  13.392  0.00  0.00    +0.000 A 
ATOM      8  C   UNL     1      45.646   6.744  12.818  0.00  0.00    +0.000 A 
ATOM      9  C   UNL     1      45.860   8.144  12.915  0.00  0.00    +0.000 A 
ATOM     10  C   UNL     1      47.078   8.338  13.532  0.00  0.00    +0.000 A 
ATOM     11  N   UNL     1      47.615   7.103  13.805  0.00  0.00    +0.000 N 
ATOM     20  C   UNL     1      44.624   5.930  12.303  0.00  0.00    +0.000 A 
ENDROOT
BRANCH   4   2
ATOM      1  N   UNL     1      43.761   2.344  12.467  0.00  0.00    +0.000 N 
ATOM      2  C   UNL     1      43.784   3.591  11.901  0.00  0.00    +0.000 C 
ATOM      3  O   UNL     1      42.987   3.905  11.029  0.00  0.00    +0.000 OA
ATOM     21  H   UNL     1      43.008   1.731  12.182  0.00  0.00    +0.000 HD
ATOM     22  H   UNL     1      44.231   2.128  13.334  0.00  0.00    +0.000 HD
ENDBRANCH   4   2
BRANCH  11  12
ATOM     12  C   UNL     1      48.871   6.870  14.490  0.00  0.00    +0.000 C 
BRANCH  12  13
ATOM     13  C   UNL     1      48.680   6.538  15.952  0.00  0.00    +0.000 C 
ATOM     14  O   UNL     1      48.707   7.410  16.820  0.00  0.00    +0.000 OA
ATOM     15  N   UNL     1      48.415   5.215  16.242  0.00  0.00    +0.000 N 
ATOM     23  H   UNL     1      48.414   4.547  15.472  0.00  0.00    +0.000 HD
BRANCH  15  16
ATOM     16  C   UNL     1      48.070   4.796  17.620  0.00  0.00    +0.000 C 
ATOM     17  C   UNL     1      49.231   4.297  18.499  0.00  0.00    +0.000 C 
ATOM     18  N   UNL     1      48.407   3.142  18.914  0.00  0.00    +0.000 NA
ATOM     19  C   UNL     1      47.538   3.352  17.737  0.00  0.00    +0.000 C 
ATOM     24  H   UNL     1      47.919   3.286  19.799  0.00  0.00    +0.000 HD
ENDBRANCH  15  16
ENDBRANCH  12  13
ENDBRANCH  11  12
TORSDOF 4
ENDMDL
MODEL 6
REMARK VINA RESULT:    -5.983      5.605      8.726
REMARK INTER + INTRA:          -7.976
REMARK INTER:                  -7.530
REMARK INTRA:                  -0.446
REMARK UNBOUND:                -0.594
REMARK  Name = 
REMARK  4 active torsions:
REMARK  status: ('A' for Active; 'I' for Inactive)
REMARK    1  A    between atoms: C_2  and  C_4
REMARK    2  A    between atoms: N_11  and  C_12
REMARK    3  A    between atoms: C_12  and  C_13
REMARK    4  A    between atoms: N_15  and  C_16
REMARK                            x       y       z     vdW  Elec       q    Type
REMARK                         _______ _______ _______ _____ _____    ______ ____
ROOT
ATOM      4  C   UNL     1      51.741   2.186  17.587  0.00  0.00    +0.000 A 
ATOM      5  C   UNL     1      50.593   1.629  17.028  0.00  0.00    +0.000 A 
ATOM      6  N   UNL     1      49.410   2.273  16.826  0.00  0.00    +0.000 NA
ATOM      7  C   UNL     1      49.464   3.577  17.172  0.00  0.00    +0.000 A 
ATOM      8  C   UNL     1      50.557   4.262  17.702  0.00  0.00    +0.000 A 
ATOM      9  C   UNL     1      50.155   5.612  17.884  0.00  0.00    +0.000 A 
ATOM     10  C   UNL     1      48.843   5.715  17.474  0.00  0.00    +0.000 A 
ATOM     11  N   UNL     1      48.431   4.474  17.056  0.00  0.00    +0.000 N 
ATOM     20  C   UNL     1      51.740   3.541  17.926  0.00  0.00    +0.000 A 
ENDROOT
BRANCH   4   2
ATOM      1  N   UNL     1      52.686   0.021  18.150  0.00  0.00    +0.000 N 
ATOM      2  C   UNL     1      52.921   1.322  17.792  0.00  0.00    +0.000 C 
ATOM      3  O   UNL     1      54.057   1.736  17.619  0.00  0.00    +0.000 OA
ATOM     21  H   UNL     1      53.492  -0.592  18.187  0.00  0.00    +0.000 HD
ATOM     22  H   UNL     1      51.778  -0.414  18.071  0.00  0.00    +0.000 HD
ENDBRANCH   4   2
BRANCH  11  12
ATOM     12  C   UNL     1      47.125   4.165  16.508  0.00  0.00    +0.000 C 
BRANCH  12  13
ATOM     13  C   UNL     1      47.100   4.234  14.999  0.00  0.00    +0.000 C 
ATOM     14  O   UNL     1      47.379   3.257  14.303  0.00  0.00    +0.000 OA
ATOM     15  N   UNL     1      46.692   5.435  14.455  0.00  0.00    +0.000 N 
ATOM     23  H   UNL     1      46.483   6.203  15.092  0.00  0.00    +0.000 HD
BRANCH  15  16
ATOM     16  C   UNL     1      46.491   5.577  12.994  0.00  0.00    +0.000 C 
ATOM     17  C   UNL     1      46.177   6.993  12.477  0.00  0.00    +0.000 C 
ATOM     18  N   UNL     1      45.080   6.437  11.656  0.00  0.00    +0.000 NA
ATOM     19  C   UNL     1      45.070   5.227  12.505  0.00  0.00    +0.000 C 
ATOM     24  H   UNL     1      45.351   6.243  10.691  0.00  0.00    +0.000 HD
ENDBRANCH  15  16
ENDBRANCH  12  13
ENDBRANCH  11  12
TORSDOF 4
ENDMDL
MODEL 7
REMARK VINA RESULT:    -5.964      2.229      6.143
REMARK INTER + INTRA:          -7.952
REMARK INTER:                  -7.498
REMARK INTRA:                  -0.454
REMARK UNBOUND:                -0.594
REMARK  Name = 
REMARK  4 active torsions:
REMARK  status: ('A' for Active; 'I' for Inactive)
REMARK    1  A    between atoms: C_2  and  C_4
REMARK    2  A    between atoms: N_11  and  C_12
REMARK    3  A    between atoms: C_12  and  C_13
REMARK    4  A    between atoms: N_15  and  C_16
REMARK                            x       y       z     vdW  Elec       q    Type
REMARK                         _______ _______ _______ _____ _____    ______ ____
ROOT
ATOM      4  C   UNL     1      48.870   7.317  12.929  0.00  0.00    +0.000 A 
ATOM      5  C   UNL     1      48.100   7.679  11.826  0.00  0.00    +0.000 A 
ATOM      6  N   UNL     1      46.927   7.100  11.447  0.00  0.00    +0.000 NA
ATOM      7  C   UNL     1      46.520   6.141  12.307  0.00  0.00    +0.000 A 
ATOM      8  C   UNL     1      47.175   5.714  13.461  0.00  0.00    +0.000 A 
ATOM      9  C   UNL     1      46.365   4.708  14.052  0.00  0.00    +0.000 A 
ATOM     10  C   UNL     1      45.255   4.543  13.252  0.00  0.00    +0.000 A 
ATOM     11  N   UNL     1      45.366   5.408  12.190  0.00  0.00    +0.000 N 
ATOM     20  C   UNL     1      48.400   6.317  13.784  0.00  0.00    +0.000 A 
ENDROOT
BRANCH   4   2
ATOM      1  N   UNL     1      50.867   7.654  14.270  0.00  0.00    +0.000 N 
ATOM      2  C   UNL     1      50.153   8.011  13.157  0.00  0.00    +0.000 C 
ATOM      3  O   UNL     1      50.580   8.845  12.372  0.00  0.00    +0.000 OA
ATOM     21  H   UNL     1      51.792   8.057  14.364  0.00  0.00    +0.000 HD
ATOM     22  H   UNL     1      50.670   6.819  14.803  0.00  0.00    +0.000 HD
ENDBRANCH   4   2
BRANCH  11  12
ATOM     12  C   UNL     1      44.381   5.575  11.140  0.00  0.00    +0.000 C 
BRANCH  12  13
ATOM     13  C   UNL     1      44.353   4.405  10.184  0.00  0.00    +0.000 C 
ATOM     14  O   UNL     1      43.508   3.514  10.278  0.00  0.00    +0.000 OA
ATOM     15  N   UNL     1      45.290   4.429   9.171  0.00  0.00    +0.000 N 
ATOM     23  H   UNL     1      45.962   5.195   9.159  0.00  0.00    +0.000 HD
BRANCH  15  16
ATOM     16  C   UNL     1      45.268   3.414   8.092  0.00  0.00    +0.000 C 
ATOM     17  C   UNL     1      45.884   2.043   8.427  0.00  0.00    +0.000 C 
ATOM     18  N   UNL     1      46.615   2.070   7.142  0.00  0.00    +0.000 NA
ATOM     19  C   UNL     1      46.421   3.534   7.074  0.00  0.00    +0.000 C 
ATOM     24  H   UNL     1      46.137   1.571   6.390  0.00  0.00    +0.000 HD
ENDBRANCH  15  16
ENDBRANCH  12  13
ENDBRANCH  11  12
TORSDOF 4
ENDMDL
MODEL 8
REMARK VINA RESULT:    -5.893      3.429      7.413
REMARK INTER + INTRA:          -7.865
REMARK INTER:                  -7.381
REMARK INTRA:                  -0.484
REMARK UNBOUND:                -0.594
REMARK  Name = 
REMARK  4 active torsions:
REMARK  status: ('A' for Active; 'I' for Inactive)
REMARK    1  A    between atoms: C_2  and  C_4
REMARK    2  A    between atoms: N_11  and  C_12
REMARK    3  A    between atoms: C_12  and  C_13
REMARK    4  A    between atoms: N_15  and  C_16
REMARK                            x       y       z     vdW  Elec       q    Type
REMARK                         _______ _______ _______ _____ _____    ______ ____
ROOT
ATOM      4  C   UNL     1      47.782   4.252  16.508  0.00  0.00    +0.000 A 
ATOM      5  C   UNL     1      47.244   3.931  15.264  0.00  0.00    +0.000 A 
ATOM      6  N   UNL     1      47.243   4.733  14.164  0.00  0.00    +0.000 NA
ATOM      7  C   UNL     1      47.894   5.899  14.371  0.00  0.00    +0.000 A 
ATOM      8  C   UNL     1      48.506   6.322  15.550  0.00  0.00    +0.000 A 
ATOM      9  C   UNL     1      49.078   7.596  15.289  0.00  0.00    +0.000 A 
ATOM     10  C   UNL     1      48.799   7.918  13.978  0.00  0.00    +0.000 A 
ATOM     11  N   UNL     1      48.070   6.888  13.435  0.00  0.00    +0.000 N 
ATOM     20  C   UNL     1      48.443   5.472  16.665  0.00  0.00    +0.000 A 
ENDROOT
BRANCH   4   2
ATOM      1  N   UNL     1      48.635   3.257  18.553  0.00  0.00    +0.000 N 
ATOM      2  C   UNL     1      47.638   3.284  17.614  0.00  0.00    +0.000 C 
ATOM      3  O   UNL     1      46.658   2.560  17.709  0.00  0.00    +0.000 OA
ATOM     21  H   UNL     1      48.479   2.668  19.362  0.00  0.00    +0.000 HD
ATOM     22  H   UNL     1      49.326   3.988  18.639  0.00  0.00    +0.000 HD
ENDBRANCH   4   2
BRANCH  11  12
ATOM     12  C   UNL     1      47.613   6.819  12.061  0.00  0.00    +0.000 C 
BRANCH  12  13
ATOM     13  C   UNL     1      46.119   6.616  11.959  0.00  0.00    +0.000 C 
ATOM     14  O   UNL     1      45.326   7.528  12.194  0.00  0.00    +0.000 OA
ATOM     15  N   UNL     1      45.706   5.371  11.530  0.00  0.00    +0.000 N 
ATOM     23  H   UNL     1      46.419   4.662  11.359  0.00  0.00    +0.000 HD
BRANCH  15  16
ATOM     16  C   UNL     1      44.276   5.100  11.255  0.00  0.00    +0.000 C 
ATOM     17  C   UNL     1      43.459   4.483  12.405  0.00  0.00    +0.000 C 
ATOM     18  N   UNL     1      42.890   3.499  11.458  0.00  0.00    +0.000 NA
ATOM     19  C   UNL     1      44.005   3.767  10.525  0.00  0.00    +0.000 C 
ATOM     24  H   UNL     1      41.982   3.774  11.081  0.00  0.00    +0.000 HD
ENDBRANCH  15  16
ENDBRANCH  12  13
ENDBRANCH  11  12
TORSDOF 4
ENDMDL
MODEL 9
REMARK VINA RESULT:    -5.729      4.037      5.927
REMARK INTER + INTRA:          -7.662
REMARK INTER:                  -7.414
REMARK INTRA:                  -0.248
REMARK UNBOUND:                -0.594
REMARK  Name = 
REMARK  4 active torsions:
REMARK  status: ('A' for Active; 'I' for Inactive)
REMARK    1  A    between atoms: C_2  and  C_4
REMARK    2  A    between atoms: N_11  and  C_12
REMARK    3  A    between atoms: C_12  and  C_13
REMARK    4  A    between atoms: N_15  and  C_16
REMARK                            x       y       z     vdW  Elec       q    Type
REMARK                         _______ _______ _______ _____ _____    ______ ____
ROOT
ATOM      4  C   UNL     1      45.056   4.262  11.362  0.00  0.00    +0.000 A 
ATOM      5  C   UNL     1      45.143   3.398  12.452  0.00  0.00    +0.000 A 
ATOM      6  N   UNL     1      45.908   3.590  13.562  0.00  0.00    +0.000 NA
ATOM      7  C   UNL     1      46.560   4.773  13.546  0.00  0.00    +0.000 A 
ATOM      8  C   UNL     1      46.527   5.737  12.540  0.00  0.00    +0.000 A 
ATOM      9  C   UNL     1      47.343   6.817  12.970  0.00  0.00    +0.000 A 
ATOM     10  C   UNL     1      47.854   6.487  14.207  0.00  0.00    +0.000 A 
ATOM     11  N   UNL     1      47.382   5.241  14.541  0.00  0.00    +0.000 N 
ATOM     20  C   UNL     1      45.753   5.472  11.399  0.00  0.00    +0.000 A 
ENDROOT
BRANCH   4   2
ATOM      1  N   UNL     1      44.001   4.813   9.245  0.00  0.00    +0.000 N 
ATOM      2  C   UNL     1      44.223   3.866  10.209  0.00  0.00    +0.000 C 
ATOM      3  O   UNL     1      43.777   2.733  10.098  0.00  0.00    +0.000 OA
ATOM     21  H   UNL     1      43.519   4.506   8.409  0.00  0.00    +0.000 HD
ATOM     22  H   UNL     1      44.537   5.667   9.182  0.00  0.00    +0.000 HD
ENDBRANCH   4   2
BRANCH  11  12
ATOM     12  C   UNL     1      47.653   4.549  15.785  0.00  0.00    +0.000 C 
BRANCH  12  13
ATOM     13  C   UNL     1      48.504   5.368  16.728  0.00  0.00    +0.000 C 
ATOM     14  O   UNL     1      49.733   5.365  16.656  0.00  0.00    +0.000 OA
ATOM     15  N   UNL     1      47.819   6.158  17.629  0.00  0.00    +0.000 N 
ATOM     23  H   UNL     1      46.801   6.105  17.635  0.00  0.00    +0.000 HD
BRANCH  15  16
ATOM     16  C   UNL     1      48.541   7.109  18.505  0.00  0.00    +0.000 C 
ATOM     17  C   UNL     1      48.851   6.628  19.934  0.00  0.00    +0.000 C 
ATOM     18  N   UNL     1      48.364   7.921  20.463  0.00  0.00    +0.000 NA
ATOM     19  C   UNL     1      47.641   8.156  19.195  0.00  0.00    +0.000 C 
ATOM     24  H   UNL     1      49.108   8.601  20.627  0.00  0.00    +0.000 HD
ENDBRANCH  15  16
ENDBRANCH  12  13
ENDBRANCH  11  12
TORSDOF 4
ENDMDL
