MODEL 1
REMARK VINA RESULT:    -7.867      0.000      0.000
REMARK INTER + INTRA:         -10.594
REMARK INTER:                 -10.396
REMARK INTRA:                  -0.198
REMARK UNBOUND:                -0.198
REMARK  Name = 
REMARK  6 active torsions:
REMARK  status: ('A' for Active; 'I' for Inactive)
REMARK    1  A    between atoms: N_1  and  C_2
REMARK    2  A    between atoms: C_2  and  C_3
REMARK    3  A    between atoms: C_6  and  C_7
REMARK    4  A    between atoms: C_7  and  N_8
REMARK    5  A    between atoms: C_9  and  C_10
REMARK    6  A    between atoms: C_16  and  C_17
REMARK                            x       y       z     vdW  Elec       q    Type
REMARK                         _______ _______ _______ _____ _____    ______ ____
ROOT
ATOM      8  N   UNL     1      44.585   4.748  10.239  0.00  0.00    +0.000 N 
ATOM      9  C   UNL     1      43.979   3.686  10.888  0.00  0.00    +0.000 A 
ATOM     13  C   UNL     1      44.374   2.527  10.250  0.00  0.00    +0.000 A 
ATOM     14  C   UNL     1      45.256   2.880   9.205  0.00  0.00    +0.000 A 
ATOM     15  C   UNL     1      45.971   2.159   8.236  0.00  0.00    +0.000 A 
ATOM     16  C   UNL     1      46.753   2.883   7.334  0.00  0.00    +0.000 A 
ATOM     20  C   UNL     1      46.792   4.272   7.458  0.00  0.00    +0.000 A 
ATOM     21  N   UNL     1      46.117   5.013   8.376  0.00  0.00    +0.000 NA
ATOM     22  C   UNL     1      45.373   4.265   9.215  0.00  0.00    +0.000 A 
ENDROOT
BRANCH  16  17
ATOM     17  C   UNL     1      47.532   2.250   6.243  0.00  0.00    +0.000 C 
ATOM     18  N   UNL     1      47.802   2.981   5.121  0.00  0.00    +0.000 N 
ATOM     19  O   UNL     1      47.940   1.100   6.341  0.00  0.00    +0.000 OA
ATOM     27  H   UNL     1      47.521   3.932   4.956  0.00  0.00    +0.000 HD
ATOM     28  H   UNL     1      48.352   2.521   4.402  0.00  0.00    +0.000 HD
ENDBRANCH  16  17
BRANCH   9  10
ATOM     10  C   UNL     1      43.059   3.742  12.106  0.00  0.00    +0.000 C 
ATOM     11  C   UNL     1      42.673   5.113  12.638  0.00  0.00    +0.000 C 
ATOM     12  C   UNL     1      43.609   4.262  13.421  0.00  0.00    +0.000 C 
ENDBRANCH   9  10
BRANCH   8   7
ATOM      7  C   UNL     1      44.380   6.174  10.482  0.00  0.00    +0.000 C 
BRANCH   7   6
ATOM      3  C   UNL     1      47.162   8.169  13.166  0.00  0.00    +0.000 A 
ATOM      4  C   UNL     1      47.406   6.852  12.759  0.00  0.00    +0.000 A 
ATOM      5  C   UNL     1      46.537   6.194  11.883  0.00  0.00    +0.000 A 
ATOM      6  C   UNL     1      45.390   6.834  11.396  0.00  0.00    +0.000 A 
ATOM     23  C   UNL     1      45.165   8.168  11.783  0.00  0.00    +0.000 A 
ATOM     24  C   UNL     1      46.038   8.828  12.655  0.00  0.00    +0.000 A 
BRANCH   3   2
ATOM      2  C   UNL     1      48.068   8.840  14.168  0.00  0.00    +0.000 C 
BRANCH   2   1
ATOM      1  N   UNL     1      47.461   8.918  15.491  0.00  0.00    +0.000 NA
ATOM     25  H   UNL     1      47.130   7.995  15.760  0.00  0.00    +0.000 HD
ATOM     26  H   UNL     1      46.639   9.518  15.439  0.00  0.00    +0.000 HD
ENDBRANCH   2   1
ENDBRANCH   3   2
ENDBRANCH   7   6
ENDBRANCH   8   7
TORSDOF 6
ENDMDL
MODEL 2
REMARK VINA RESULT:    -7.332      2.882      6.778
REMARK INTER + INTRA:          -9.887
REMARK INTER:                  -9.440
REMARK INTRA:                  -0.446
REMARK UNBOUND:                -0.198
REMARK  Name = 
REMARK  6 active torsions:
REMARK  status: ('A' for Active; 'I' for Inactive)
REMARK    1  A    between atoms: N_1  and  C_2
REMARK    2  A    between atoms: C_2  and  C_3
REMARK    3  A    between atoms: C_6  and  C_7
REMARK    4  A    between atoms: C_7  and  N_8
REMARK    5  A    between atoms: C_9  and  C_10
REMARK    6  A    between atoms: C_16  and  C_17
REMARK                            x       y       z     vdW  Elec       q    Type
REMARK                         _______ _______ _______ _____ _____    ______ ____
ROOT
ATOM      8  N   UNL     1      45.108   5.530  11.618  0.00  0.00    +0.000 N 
ATOM      9  C   UNL     1      45.307   6.894  11.746  0.00  0.00    +0.000 A 
ATOM     13  C   UNL     1      46.105   7.097  12.855  0.00  0.00    +0.000 A 
ATOM     14  C   UNL     1      46.421   5.835  13.405  0.00  0.00    +0.000 A 
ATOM     15  C   UNL     1      47.181   5.403  14.503  0.00  0.00    +0.000 A 
ATOM     16  C   UNL     1      47.250   4.030  14.745  0.00  0.00    +0.000 A 
ATOM     20  C   UNL     1      46.578   3.169  13.876  0.00  0.00    +0.000 A 
ATOM     21  N   UNL     1      45.830   3.539  12.803  0.00  0.00    +0.000 NA
ATOM     22  C   UNL     1      45.791   4.875  12.621  0.00  0.00    +0.000 A 
ENDROOT
BRANCH  16  17
ATOM     17  C   UNL     1      47.990   3.442  15.887  0.00  0.00    +0.000 C 
ATOM     18  N   UNL     1      47.911   4.056  17.105  0.00  0.00    +0.000 N 
ATOM     19  O   UNL     1      48.653   2.421  15.755  0.00  0.00    +0.000 OA
ATOM     27  H   UNL     1      47.384   4.886  17.313  0.00  0.00    +0.000 HD
ATOM     28  H   UNL     1      48.417   3.616  17.868  0.00  0.00    +0.000 HD
ENDBRANCH  16  17
BRANCH   9  10
ATOM     10  C   UNL     1      44.781   8.001  10.835  0.00  0.00    +0.000 C 
ATOM     11  C   UNL     1      44.559   9.375  11.448  0.00  0.00    +0.000 C 
ATOM     12  C   UNL     1      43.383   8.545  11.069  0.00  0.00    +0.000 C 
ENDBRANCH   9  10
BRANCH   8   7
ATOM      7  C   UNL     1      44.242   4.842  10.664  0.00  0.00    +0.000 C 
BRANCH   7   6
ATOM      3  C   UNL     1      46.394   2.612   7.610  0.00  0.00    +0.000 A 
ATOM      4  C   UNL     1      45.627   1.931   8.563  0.00  0.00    +0.000 A 
ATOM      5  C   UNL     1      44.912   2.626   9.544  0.00  0.00    +0.000 A 
ATOM      6  C   UNL     1      44.952   4.024   9.606  0.00  0.00    +0.000 A 
ATOM     23  C   UNL     1      45.699   4.706   8.628  0.00  0.00    +0.000 A 
ATOM     24  C   UNL     1      46.410   4.011   7.643  0.00  0.00    +0.000 A 
BRANCH   3   2
ATOM      2  C   UNL     1      47.218   1.848   6.605  0.00  0.00    +0.000 C 
BRANCH   2   1
ATOM      1  N   UNL     1      48.544   2.427   6.428  0.00  0.00    +0.000 NA
ATOM     25  H   UNL     1      48.451   3.352   6.016  0.00  0.00    +0.000 HD
ATOM     26  H   UNL     1      49.062   1.861   5.757  0.00  0.00    +0.000 HD
ENDBRANCH   2   1
ENDBRANCH   3   2
ENDBRANCH   7   6
ENDBRANCH   8   7
TORSDOF 6
ENDMDL
MODEL 3
REMARK VINA RESULT:    -7.269      2.754      6.576
REMARK INTER + INTRA:          -9.803
REMARK INTER:                  -9.266
REMARK INTRA:                  -0.538
REMARK UNBOUND:                -0.198
REMARK  Name = 
REMARK  6 active torsions:
REMARK  status: ('A' for Active; 'I' for Inactive)
REMARK    1  A    between atoms: N_1  and  C_2
REMARK    2  A    between atoms: C_2  and  C_3
REMARK    3  A    between atoms: C_6  and  C_7
REMARK    4  A    between atoms: C_7  and  N_8
REMARK    5  A    between atoms: C_9  and  C_10
REMARK    6  A    between atoms: C_16  and  C_17
REMARK                            x       y       z     vdW  Elec       q    Type
REMARK                         _______ _______ _______ _____ _____    ______ ____
ROOT
ATOM      8  N   UNL     1      45.776   5.648  11.402  0.00  0.00    +0.000 N 
ATOM      9  C   UNL     1      45.320   4.910  12.481  0.00  0.00    +0.000 A 
ATOM     13  C   UNL     1      46.202   5.107  13.525  0.00  0.00    +0.000 A 
ATOM     14  C   UNL     1      47.206   5.999  13.088  0.00  0.00    +0.000 A 
ATOM     15  C   UNL     1      48.343   6.568  13.683  0.00  0.00    +0.000 A 
ATOM     16  C   UNL     1      49.125   7.422  12.903  0.00  0.00    +0.000 A 
ATOM     20  C   UNL     1      48.725   7.672  11.590  0.00  0.00    +0.000 A 
ATOM     21  N   UNL     1      47.637   7.144  10.971  0.00  0.00    +0.000 NA
ATOM     22  C   UNL     1      46.922   6.322  11.766  0.00  0.00    +0.000 A 
ENDROOT
BRANCH  16  17
ATOM     17  C   UNL     1      50.367   8.063  13.396  0.00  0.00    +0.000 C 
ATOM     18  N   UNL     1      50.986   7.535  14.494  0.00  0.00    +0.000 N 
ATOM     19  O   UNL     1      50.844   9.039  12.832  0.00  0.00    +0.000 OA
ATOM     27  H   UNL     1      50.679   6.732  15.014  0.00  0.00    +0.000 HD
ATOM     28  H   UNL     1      51.843   7.990  14.794  0.00  0.00    +0.000 HD
ENDBRANCH  16  17
BRANCH   9  10
ATOM     10  C   UNL     1      44.062   4.046  12.553  0.00  0.00    +0.000 C 
ATOM     11  C   UNL     1      42.821   4.542  11.828  0.00  0.00    +0.000 C 
ATOM     12  C   UNL     1      42.856   4.564  13.316  0.00  0.00    +0.000 C 
ENDBRANCH   9  10
BRANCH   8   7
ATOM      7  C   UNL     1      45.237   5.667  10.045  0.00  0.00    +0.000 C 
BRANCH   7   6
ATOM      3  C   UNL     1      46.590   2.444   7.453  0.00  0.00    +0.000 A 
ATOM      4  C   UNL     1      45.738   2.166   8.528  0.00  0.00    +0.000 A 
ATOM      5  C   UNL     1      45.275   3.186   9.366  0.00  0.00    +0.000 A 
ATOM      6  C   UNL     1      45.660   4.516   9.156  0.00  0.00    +0.000 A 
ATOM     23  C   UNL     1      46.491   4.796   8.055  0.00  0.00    +0.000 A 
ATOM     24  C   UNL     1      46.950   3.776   7.215  0.00  0.00    +0.000 A 
BRANCH   3   2
ATOM      2  C   UNL     1      47.139   1.327   6.603  0.00  0.00    +0.000 C 
BRANCH   2   1
ATOM      1  N   UNL     1      48.314   1.739   5.846  0.00  0.00    +0.000 NA
ATOM     25  H   UNL     1      48.022   2.335   5.076  0.00  0.00    +0.000 HD
ATOM     26  H   UNL     1      48.741   0.913   5.428  0.00  0.00    +0.000 HD
ENDBRANCH   2   1
ENDBRANCH   3   2
ENDBRANCH   7   6
ENDBRANCH   8   7
TORSDOF 6
ENDMDL
MODEL 4
REMARK VINA RESULT:    -6.944      4.780      6.961
REMARK INTER + INTRA:          -9.374
REMARK INTER:                  -8.699
REMARK INTRA:                  -0.675
REMARK UNBOUND:                -0.198
REMARK  Name = 
REMARK  6 active torsions:
REMARK  status: ('A' for Active; 'I' for Inactive)
REMARK    1  A    between atoms: N_1  and  C_2
REMARK    2  A    between atoms: C_2  and  C_3
REMARK    3  A    between atoms: C_6  and  C_7
REMARK    4  A    between atoms: C_7  and  N_8
REMARK    5  A    between atoms: C_9  and  C_10
REMARK    6  A    between atoms: C_16  and  C_17
REMARK                            x       y       z     vdW  Elec       q    Type
REMARK                         _______ _______ _______ _____ _____    ______ ____
ROOT
ATOM      8  N   UNL     1      47.503   5.476  15.109  0.00  0.00    +0.000 N 
ATOM      9  C   UNL     1      48.438   6.438  14.767  0.00  0.00    +0.000 A 
ATOM     13  C   UNL     1      48.239   6.759  13.438  0.00  0.00    +0.000 A 
ATOM     14  C   UNL     1      47.149   5.998  12.961  0.00  0.00    +0.000 A 
ATOM     15  C   UNL     1      46.487   5.893  11.728  0.00  0.00    +0.000 A 
ATOM     16  C   UNL     1      45.426   4.991  11.635  0.00  0.00    +0.000 A 
ATOM     20  C   UNL     1      45.075   4.262  12.771  0.00  0.00    +0.000 A 
ATOM     21  N   UNL     1      45.686   4.327  13.984  0.00  0.00    +0.000 NA
ATOM     22  C   UNL     1      46.707   5.207  14.015  0.00  0.00    +0.000 A 
ENDROOT
BRANCH  16  17
ATOM     17  C   UNL     1      44.664   4.759  10.385  0.00  0.00    +0.000 C 
ATOM     18  N   UNL     1      45.267   5.031   9.189  0.00  0.00    +0.000 N 
ATOM     19  O   UNL     1      43.521   4.322  10.411  0.00  0.00    +0.000 OA
ATOM     27  H   UNL     1      46.202   5.379   9.067  0.00  0.00    +0.000 HD
ATOM     28  H   UNL     1      44.721   4.845   8.354  0.00  0.00    +0.000 HD
ENDBRANCH  16  17
BRANCH   9  10
ATOM     10  C   UNL     1      49.493   7.073  15.669  0.00  0.00    +0.000 C 
ATOM     11  C   UNL     1      49.028   8.111  16.679  0.00  0.00    +0.000 C 
ATOM     12  C   UNL     1      49.820   8.545  15.496  0.00  0.00    +0.000 C 
ENDBRANCH   9  10
BRANCH   8   7
ATOM      7  C   UNL     1      47.395   4.748  16.371  0.00  0.00    +0.000 C 
BRANCH   7   6
ATOM      3  C   UNL     1      50.840   2.273  17.338  0.00  0.00    +0.000 A 
ATOM      4  C   UNL     1      50.785   3.599  17.783  0.00  0.00    +0.000 A 
ATOM      5  C   UNL     1      49.682   4.411  17.500  0.00  0.00    +0.000 A 
ATOM      6  C   UNL     1      48.603   3.919  16.754  0.00  0.00    +0.000 A 
ATOM     23  C   UNL     1      48.647   2.576  16.337  0.00  0.00    +0.000 A 
ATOM     24  C   UNL     1      49.750   1.763  16.624  0.00  0.00    +0.000 A 
BRANCH   3   2
ATOM      2  C   UNL     1      52.067   1.434  17.587  0.00  0.00    +0.000 C 
BRANCH   2   1
ATOM      1  N   UNL     1      51.736   0.128  18.144  0.00  0.00    +0.000 NA
ATOM     25  H   UNL     1      51.082  -0.343  17.523  0.00  0.00    +0.000 HD
ATOM     26  H   UNL     1      51.250   0.263  19.030  0.00  0.00    +0.000 HD
ENDBRANCH   2   1
ENDBRANCH   3   2
ENDBRANCH   7   6
ENDBRANCH   8   7
TORSDOF 6
ENDMDL
MODEL 5
REMARK VINA RESULT:    -6.575      3.506      5.379
REMARK INTER + INTRA:          -8.887
REMARK INTER:                  -7.800
REMARK INTRA:                  -1.086
REMARK UNBOUND:                -0.198
REMARK  Name = 
REMARK  6 active torsions:
REMARK  status: ('A' for Active; 'I' for Inactive)
REMARK    1  A    between atoms: N_1  and  C_2
REMARK    2  A    between atoms: C_2  and  C_3
REMARK    3  A    between atoms: C_6  and  C_7
REMARK    4  A    between atoms: C_7  and  N_8
REMARK    5  A    between atoms: C_9  and  C_10
REMARK    6  A    between atoms: C_16  and  C_17
REMARK                            x       y       z     vdW  Elec       q    Type
REMARK                         _______ _______ _______ _____ _____    ______ ____
ROOT
ATOM      8  N   UNL     1      47.197   7.094  12.796  0.00  0.00    +0.000 N 
ATOM      9  C   UNL     1      47.617   6.634  14.033  0.00  0.00    +0.000 A 
ATOM     13  C   UNL     1      47.083   5.373  14.212  0.00  0.00    +0.000 A 
ATOM     14  C   UNL     1      46.341   5.042  13.057  0.00  0.00    +0.000 A 
ATOM     15  C   UNL     1      45.593   3.924  12.655  0.00  0.00    +0.000 A 
ATOM     16  C   UNL     1      44.971   3.975  11.406  0.00  0.00    +0.000 A 
ATOM     20  C   UNL     1      45.142   5.119  10.626  0.00  0.00    +0.000 A 
ATOM     21  N   UNL     1      45.853   6.225  10.973  0.00  0.00    +0.000 NA
ATOM     22  C   UNL     1      46.425   6.126  12.190  0.00  0.00    +0.000 A 
ENDROOT
BRANCH  16  17
ATOM     17  C   UNL     1      44.128   2.878  10.874  0.00  0.00    +0.000 C 
ATOM     18  N   UNL     1      44.601   2.134   9.830  0.00  0.00    +0.000 N 
ATOM     19  O   UNL     1      43.032   2.628  11.360  0.00  0.00    +0.000 OA
ATOM     27  H   UNL     1      45.489   2.255   9.375  0.00  0.00    +0.000 HD
ATOM     28  H   UNL     1      44.004   1.381   9.502  0.00  0.00    +0.000 HD
ENDBRANCH  16  17
BRANCH   9  10
ATOM     10  C   UNL     1      48.525   7.348  15.032  0.00  0.00    +0.000 C 
ATOM     11  C   UNL     1      50.026   7.145  14.893  0.00  0.00    +0.000 C 
ATOM     12  C   UNL     1      49.307   6.520  16.036  0.00  0.00    +0.000 C 
ENDBRANCH   9  10
BRANCH   8   7
ATOM      7  C   UNL     1      47.413   8.418  12.218  0.00  0.00    +0.000 C 
BRANCH   7   6
ATOM      3  C   UNL     1      51.454   9.362  10.908  0.00  0.00    +0.000 A 
ATOM      4  C   UNL     1      51.025   8.030  10.950  0.00  0.00    +0.000 A 
ATOM      5  C   UNL     1      49.726   7.701  11.351  0.00  0.00    +0.000 A 
ATOM      6  C   UNL     1      48.820   8.698  11.732  0.00  0.00    +0.000 A 
ATOM     23  C   UNL     1      49.243  10.038  11.657  0.00  0.00    +0.000 A 
ATOM     24  C   UNL     1      50.542  10.366  11.251  0.00  0.00    +0.000 A 
BRANCH   3   2
ATOM      2  C   UNL     1      52.878   9.695  10.545  0.00  0.00    +0.000 C 
BRANCH   2   1
ATOM      1  N   UNL     1      53.666   8.503  10.259  0.00  0.00    +0.000 NA
ATOM     25  H   UNL     1      53.500   7.812  10.987  0.00  0.00    +0.000 HD
ATOM     26  H   UNL     1      54.655   8.744  10.309  0.00  0.00    +0.000 HD
ENDBRANCH   2   1
ENDBRANCH   3   2
ENDBRANCH   7   6
ENDBRANCH   8   7
TORSDOF 6
ENDMDL
MODEL 6
REMARK VINA RESULT:    -6.479      3.876      7.404
REMARK INTER + INTRA:          -8.759
REMARK INTER:                  -8.545
REMARK INTRA:                  -0.215
REMARK UNBOUND:                -0.198
REMARK  Name = 
REMARK  6 active torsions:
REMARK  status: ('A' for Active; 'I' for Inactive)
REMARK    1  A    between atoms: N_1  and  C_2
REMARK    2  A    between atoms: C_2  and  C_3
REMARK    3  A    between atoms: C_6  and  C_7
REMARK    4  A    between atoms: C_7  and  N_8
REMARK    5  A    between atoms: C_9  and  C_10
REMARK    6  A    between atoms: C_16  and  C_17
REMARK                            x       y       z     vdW  Elec       q    Type
REMARK                         _______ _______ _______ _____ _____    ______ ____
ROOT
ATOM      8  N   UNL     1      46.222   5.842  13.473  0.00  0.00    +0.000 N 
ATOM      9  C   UNL     1      46.863   7.036  13.194  0.00  0.00    +0.000 A 
ATOM     13  C   UNL     1      47.918   7.159  14.077  0.00  0.00    +0.000 A 
ATOM     14  C   UNL     1      47.939   6.011  14.898  0.00  0.00    +0.000 A 
ATOM     15  C   UNL     1      48.757   5.568  15.950  0.00  0.00    +0.000 A 
ATOM     16  C   UNL     1      48.446   4.344  16.544  0.00  0.00    +0.000 A 
ATOM     20  C   UNL     1      47.356   3.627  16.050  0.00  0.00    +0.000 A 
ATOM     21  N   UNL     1      46.535   4.014  15.038  0.00  0.00    +0.000 NA
ATOM     22  C   UNL     1      46.877   5.205  14.507  0.00  0.00    +0.000 A 
ENDROOT
BRANCH  16  17
ATOM     17  C   UNL     1      49.206   3.777  17.683  0.00  0.00    +0.000 C 
ATOM     18  N   UNL     1      50.567   3.904  17.692  0.00  0.00    +0.000 N 
ATOM     19  O   UNL     1      48.636   3.213  18.608  0.00  0.00    +0.000 OA
ATOM     27  H   UNL     1      51.120   4.360  16.986  0.00  0.00    +0.000 HD
ATOM     28  H   UNL     1      51.053   3.519  18.495  0.00  0.00    +0.000 HD
ENDBRANCH  16  17
BRANCH   9  10
ATOM     10  C   UNL     1      46.517   8.046  12.102  0.00  0.00    +0.000 C 
ATOM     11  C   UNL     1      46.567   9.523  12.463  0.00  0.00    +0.000 C 
ATOM     12  C   UNL     1      45.249   8.870  12.237  0.00  0.00    +0.000 C 
ENDBRANCH   9  10
BRANCH   8   7
ATOM      7  C   UNL     1      44.988   5.334  12.879  0.00  0.00    +0.000 C 
BRANCH   7   6
ATOM      3  C   UNL     1      45.485   3.760   8.854  0.00  0.00    +0.000 A 
ATOM      4  C   UNL     1      45.103   2.907   9.896  0.00  0.00    +0.000 A 
ATOM      5  C   UNL     1      44.920   3.391  11.195  0.00  0.00    +0.000 A 
ATOM      6  C   UNL     1      45.123   4.744  11.491  0.00  0.00    +0.000 A 
ATOM     23  C   UNL     1      45.476   5.605  10.435  0.00  0.00    +0.000 A 
ATOM     24  C   UNL     1      45.654   5.121   9.134  0.00  0.00    +0.000 A 
BRANCH   3   2
ATOM      2  C   UNL     1      45.750   3.212   7.475  0.00  0.00    +0.000 C 
BRANCH   2   1
ATOM      1  N   UNL     1      46.739   4.000   6.751  0.00  0.00    +0.000 NA
ATOM     25  H   UNL     1      46.262   4.601   6.083  0.00  0.00    +0.000 HD
ATOM     26  H   UNL     1      47.326   3.369   6.206  0.00  0.00    +0.000 HD
ENDBRANCH   2   1
ENDBRANCH   3   2
ENDBRANCH   7   6
ENDBRANCH   8   7
TORSDOF 6
ENDMDL
MODEL 7
REMARK VINA RESULT:    -6.407      3.202      5.341
REMARK INTER + INTRA:          -8.665
REMARK INTER:                  -7.902
REMARK INTRA:                  -0.763
REMARK UNBOUND:                -0.198
REMARK  Name = 
REMARK  6 active torsions:
REMARK  status: ('A' for Active; 'I' for Inactive)
REMARK    1  A    between atoms: N_1  and  C_2
REMARK    2  A    between atoms: C_2  and  C_3
REMARK    3  A    between atoms: C_6  and  C_7
REMARK    4  A    between atoms: C_7  and  N_8
REMARK    5  A    between atoms: C_9  and  C_10
REMARK    6  A    between atoms: C_16  and  C_17
REMARK                            x       y       z     vdW  Elec       q    Type
REMARK                         _______ _______ _______ _____ _____    ______ ____
ROOT
ATOM      8  N   UNL     1      45.997   7.791  12.819  0.00  0.00    +0.000 N 
ATOM      9  C   UNL     1      45.268   8.713  12.087  0.00  0.00    +0.000 A 
ATOM     13  C   UNL     1      44.394   8.009  11.282  0.00  0.00    +0.000 A 
ATOM     14  C   UNL     1      44.572   6.632  11.540  0.00  0.00    +0.000 A 
ATOM     15  C   UNL     1      43.985   5.455  11.049  0.00  0.00    +0.000 A 
ATOM     16  C   UNL     1      44.451   4.239  11.551  0.00  0.00    +0.000 A 
ATOM     20  C   UNL     1      45.456   4.263  12.518  0.00  0.00    +0.000 A 
ATOM     21  N   UNL     1      46.056   5.374  13.022  0.00  0.00    +0.000 NA
ATOM     22  C   UNL     1      45.573   6.519  12.497  0.00  0.00    +0.000 A 
ENDROOT
BRANCH  16  17
ATOM     17  C   UNL     1      43.941   2.924  11.096  0.00  0.00    +0.000 C 
ATOM     18  N   UNL     1      44.573   2.298  10.059  0.00  0.00    +0.000 N 
ATOM     19  O   UNL     1      42.980   2.394  11.640  0.00  0.00    +0.000 OA
ATOM     27  H   UNL     1      45.374   2.647   9.561  0.00  0.00    +0.000 HD
ATOM     28  H   UNL     1      44.207   1.391   9.785  0.00  0.00    +0.000 HD
ENDBRANCH  16  17
BRANCH   9  10
ATOM     10  C   UNL     1      45.363  10.236  12.150  0.00  0.00    +0.000 C 
ATOM     11  C   UNL     1      45.271  11.004  10.840  0.00  0.00    +0.000 C 
ATOM     12  C   UNL     1      46.577  10.923  11.550  0.00  0.00    +0.000 C 
ENDBRANCH   9  10
BRANCH   8   7
ATOM      7  C   UNL     1      47.117   8.055  13.719  0.00  0.00    +0.000 C 
BRANCH   7   6
ATOM      3  C   UNL     1      51.101   8.270  11.985  0.00  0.00    +0.000 A 
ATOM      4  C   UNL     1      50.030   7.794  11.219  0.00  0.00    +0.000 A 
ATOM      5  C   UNL     1      48.736   7.731  11.748  0.00  0.00    +0.000 A 
ATOM      6  C   UNL     1      48.479   8.134  13.064  0.00  0.00    +0.000 A 
ATOM     23  C   UNL     1      49.552   8.642  13.820  0.00  0.00    +0.000 A 
ATOM     24  C   UNL     1      50.845   8.710  13.289  0.00  0.00    +0.000 A 
BRANCH   3   2
ATOM      2  C   UNL     1      52.501   8.263  11.427  0.00  0.00    +0.000 C 
BRANCH   2   1
ATOM      1  N   UNL     1      52.829   6.998  10.782  0.00  0.00    +0.000 NA
ATOM     25  H   UNL     1      52.788   7.118   9.773  0.00  0.00    +0.000 HD
ATOM     26  H   UNL     1      52.114   6.313  11.022  0.00  0.00    +0.000 HD
ENDBRANCH   2   1
ENDBRANCH   3   2
ENDBRANCH   7   6
ENDBRANCH   8   7
TORSDOF 6
ENDMDL
MODEL 8
REMARK VINA RESULT:    -6.316      2.881      7.069
REMARK INTER + INTRA:          -8.545
REMARK INTER:                  -8.044
REMARK INTRA:                  -0.501
REMARK UNBOUND:                -0.198
REMARK  Name = 
REMARK  6 active torsions:
REMARK  status: ('A' for Active; 'I' for Inactive)
REMARK    1  A    between atoms: N_1  and  C_2
REMARK    2  A    between atoms: C_2  and  C_3
REMARK    3  A    between atoms: C_6  and  C_7
REMARK    4  A    between atoms: C_7  and  N_8
REMARK    5  A    between atoms: C_9  and  C_10
REMARK    6  A    between atoms: C_16  and  C_17
REMARK                            x       y       z     vdW  Elec       q    Type
REMARK                         _______ _______ _______ _____ _____    ______ ____
ROOT
ATOM      8  N   UNL     1      44.930   7.066  11.918  0.00  0.00    +0.000 N 
ATOM      9  C   UNL     1      44.702   8.416  11.711  0.00  0.00    +0.000 A 
ATOM     13  C   UNL     1      45.649   9.115  12.434  0.00  0.00    +0.000 A 
ATOM     14  C   UNL     1      46.487   8.178  13.079  0.00  0.00    +0.000 A 
ATOM     15  C   UNL     1      47.602   8.276  13.926  0.00  0.00    +0.000 A 
ATOM     16  C   UNL     1      48.173   7.089  14.388  0.00  0.00    +0.000 A 
ATOM     20  C   UNL     1      47.616   5.880  13.970  0.00  0.00    +0.000 A 
ATOM     21  N   UNL     1      46.538   5.735  13.154  0.00  0.00    +0.000 NA
ATOM     22  C   UNL     1      46.023   6.912  12.745  0.00  0.00    +0.000 A 
ENDROOT
BRANCH  16  17
ATOM     17  C   UNL     1      49.331   7.049  15.312  0.00  0.00    +0.000 C 
ATOM     18  N   UNL     1      50.010   8.209  15.562  0.00  0.00    +0.000 N 
ATOM     19  O   UNL     1      49.675   6.007  15.854  0.00  0.00    +0.000 OA
ATOM     27  H   UNL     1      49.796   9.111  15.176  0.00  0.00    +0.000 HD
ATOM     28  H   UNL     1      50.787   8.147  16.213  0.00  0.00    +0.000 HD
ENDBRANCH  16  17
BRANCH   9  10
ATOM     10  C   UNL     1      43.630   9.055  10.831  0.00  0.00    +0.000 C 
ATOM     11  C   UNL     1      44.029  10.260   9.993  0.00  0.00    +0.000 C 
ATOM     12  C   UNL     1      43.137  10.451  11.169  0.00  0.00    +0.000 C 
ENDBRANCH   9  10
BRANCH   8   7
ATOM      7  C   UNL     1      44.118   5.945  11.452  0.00  0.00    +0.000 C 
BRANCH   7   6
ATOM      3  C   UNL     1      45.667   3.549   8.167  0.00  0.00    +0.000 A 
ATOM      4  C   UNL     1      46.194   4.822   8.413  0.00  0.00    +0.000 A 
ATOM      5  C   UNL     1      45.725   5.605   9.472  0.00  0.00    +0.000 A 
ATOM      6  C   UNL     1      44.707   5.139  10.313  0.00  0.00    +0.000 A 
ATOM     23  C   UNL     1      44.202   3.846  10.083  0.00  0.00    +0.000 A 
ATOM     24  C   UNL     1      44.675   3.061   9.025  0.00  0.00    +0.000 A 
BRANCH   3   2
ATOM      2  C   UNL     1      46.129   2.746   6.978  0.00  0.00    +0.000 C 
BRANCH   2   1
ATOM      1  N   UNL     1      47.234   1.856   7.312  0.00  0.00    +0.000 NA
ATOM     25  H   UNL     1      47.788   1.684   6.476  0.00  0.00    +0.000 HD
ATOM     26  H   UNL     1      46.853   0.955   7.598  0.00  0.00    +0.000 HD
ENDBRANCH   2   1
ENDBRANCH   3   2
ENDBRANCH   7   6
ENDBRANCH   8   7
TORSDOF 6
ENDMDL
MODEL 9
REMARK VINA RESULT:    -6.266      4.936      8.591
REMARK INTER + INTRA:          -8.478
REMARK INTER:                  -7.530
REMARK INTRA:                  -0.948
REMARK UNBOUND:                -0.198
REMARK  Name = 
REMARK  6 active torsions:
REMARK  status: ('A' for Active; 'I' for Inactive)
REMARK    1  A    between atoms: N_1  and  C_2
REMARK    2  A    between atoms: C_2  and  C_3
REMARK    3  A    between atoms: C_6  and  C_7
REMARK    4  A    between atoms: C_7  and  N_8
REMARK    5  A    between atoms: C_9  and  C_10
REMARK    6  A    between atoms: C_16  and  C_17
REMARK                            x       y       z     vdW  Elec       q    Type
REMARK                         _______ _______ _______ _____ _____    ______ ____
ROOT
ATOM      8  N   UNL     1      48.499   6.970  14.484  0.00  0.00    +0.000 N 
ATOM      9  C   UNL     1      48.574   8.336  14.692  0.00  0.00    +0.000 A 
ATOM     13  C   UNL     1      48.652   8.548  16.054  0.00  0.00    +0.000 A 
ATOM     14  C   UNL     1      48.649   7.289  16.694  0.00  0.00    +0.000 A 
ATOM     15  C   UNL     1      48.712   6.865  18.031  0.00  0.00    +0.000 A 
ATOM     16  C   UNL     1      48.666   5.492  18.280  0.00  0.00    +0.000 A 
ATOM     20  C   UNL     1      48.578   4.625  17.191  0.00  0.00    +0.000 A 
ATOM     21  N   UNL     1      48.512   4.987  15.883  0.00  0.00    +0.000 NA
ATOM     22  C   UNL     1      48.552   6.322  15.701  0.00  0.00    +0.000 A 
ENDROOT
BRANCH  16  17
ATOM     17  C   UNL     1      48.693   4.912  19.644  0.00  0.00    +0.000 C 
ATOM     18  N   UNL     1      48.574   3.558  19.783  0.00  0.00    +0.000 N 
ATOM     19  O   UNL     1      48.828   5.622  20.632  0.00  0.00    +0.000 OA
ATOM     27  H   UNL     1      48.472   2.896  19.034  0.00  0.00    +0.000 HD
ATOM     28  H   UNL     1      48.614   3.195  20.730  0.00  0.00    +0.000 HD
ENDBRANCH  16  17
BRANCH   9  10
ATOM     10  C   UNL     1      48.596   9.439  13.635  0.00  0.00    +0.000 C 
ATOM     11  C   UNL     1      49.883   9.640  12.850  0.00  0.00    +0.000 C 
ATOM     12  C   UNL     1      49.476  10.655  13.859  0.00  0.00    +0.000 C 
ENDBRANCH   9  10
BRANCH   8   7
ATOM      7  C   UNL     1      48.288   6.272  13.218  0.00  0.00    +0.000 C 
BRANCH   7   6
ATOM      3  C   UNL     1      44.121   5.487  12.246  0.00  0.00    +0.000 A 
ATOM      4  C   UNL     1      44.721   6.683  11.836  0.00  0.00    +0.000 A 
ATOM      5  C   UNL     1      46.064   6.952  12.121  0.00  0.00    +0.000 A 
ATOM      6  C   UNL     1      46.843   6.033  12.835  0.00  0.00    +0.000 A 
ATOM     23  C   UNL     1      46.245   4.818  13.218  0.00  0.00    +0.000 A 
ATOM     24  C   UNL     1      44.903   4.547  12.928  0.00  0.00    +0.000 A 
BRANCH   3   2
ATOM      2  C   UNL     1      42.654   5.243  11.996  0.00  0.00    +0.000 C 
BRANCH   2   1
ATOM      1  N   UNL     1      41.921   6.483  11.779  0.00  0.00    +0.000 NA
ATOM     25  H   UNL     1      42.323   6.974  10.985  0.00  0.00    +0.000 HD
ATOM     26  H   UNL     1      42.051   7.087  12.590  0.00  0.00    +0.000 HD
ENDBRANCH   2   1
ENDBRANCH   3   2
ENDBRANCH   7   6
ENDBRANCH   8   7
TORSDOF 6
ENDMDL
