MODEL 1
REMARK VINA RESULT:    -6.186      0.000      0.000
REMARK INTER + INTRA:         -15.750
REMARK INTER:                 -12.695
REMARK INTRA:                  -3.055
REMARK UNBOUND:                -3.055
REMARK  Name = 
REMARK  20 active torsions:
REMARK  status: ('A' for Active; 'I' for Inactive)
REMARK    1  A    between atoms: C_1  and  C_2
REMARK    2  A    between atoms: C_2  and  C_3
REMARK    3  A    between atoms: C_3  and  C_4
REMARK    4  A    between atoms: C_4  and  C_5
REMARK    5  A    between atoms: C_5  and  C_6
REMARK    6  A    between atoms: C_6  and  C_7
REMARK    7  A    between atoms: C_7  and  C_8
REMARK    8  A    between atoms: C_8  and  N_9
REMARK    9  A    between atoms: N_9  and  C_10
REMARK   10  A    between atoms: C_10  and  C_11
REMARK   11  A    between atoms: C_14  and  C_15
REMARK   12  A    between atoms: C_15  and  N_16
REMARK   13  A    between atoms: C_17  and  C_19
REMARK   14  A    between atoms: C_26  and  O_27
REMARK   15  A    between atoms: O_27  and  C_28
REMARK   16  A    between atoms: C_28  and  C_29
REMARK   17  A    between atoms: C_29  and  C_30
REMARK   18  A    between atoms: C_30  and  C_31
REMARK   19  A    between atoms: C_31  and  C_32
REMARK   20  A    between atoms: C_32  and  C_33
REMARK                            x       y       z     vdW  Elec       q    Type
REMARK                         _______ _______ _______ _____ _____    ______ ____
ROOT
ATOM     16  N   UNL     1      48.174   7.577  15.069  0.00  0.00    +0.000 N 
ATOM     17  C   UNL     1      49.307   7.193  15.735  0.00  0.00    +0.000 C 
ATOM     18  O   UNL     1      50.249   6.649  15.164  0.00  0.00    +0.000 OA
ATOM     38  H   UNL     1      47.421   8.015  15.581  0.00  0.00    +0.000 HD
ENDROOT
BRANCH  17  19
ATOM     19  C   UNL     1      49.367   7.509  17.172  0.00  0.00    +0.000 A 
ATOM     20  C   UNL     1      50.238   8.484  17.637  0.00  0.00    +0.000 A 
ATOM     21  S   UNL     1      50.152   8.728  19.322  0.00  0.00    +0.000 S 
ATOM     22  C   UNL     1      48.980   7.508  19.491  0.00  0.00    +0.000 A 
ATOM     23  N   UNL     1      48.497   7.197  20.706  0.00  0.00    +0.000 NA
ATOM     24  C   UNL     1      47.607   6.202  20.662  0.00  0.00    +0.000 A 
ATOM     25  N   UNL     1      47.175   5.546  19.585  0.00  0.00    +0.000 NA
ATOM     26  C   UNL     1      47.672   5.907  18.391  0.00  0.00    +0.000 A 
ATOM     34  C   UNL     1      48.632   6.927  18.282  0.00  0.00    +0.000 A 
BRANCH  26  27
ATOM     27  O   UNL     1      47.298   5.224  17.267  0.00  0.00    +0.000 OA
BRANCH  27  28
ATOM     28  C   UNL     1      47.242   3.803  17.382  0.00  0.00    +0.000 C 
BRANCH  28  29
ATOM     29  C   UNL     1      48.474   3.218  16.715  0.00  0.00    +0.000 C 
BRANCH  29  30
ATOM     30  C   UNL     1      49.612   3.024  17.706  0.00  0.00    +0.000 C 
BRANCH  30  31
ATOM     31  C   UNL     1      50.749   3.999  17.428  0.00  0.00    +0.000 C 
BRANCH  31  32
ATOM     32  C   UNL     1      51.847   3.825  18.469  0.00  0.00    +0.000 C 
ATOM     33  C   UNL     1      52.043   5.093  19.277  0.00  0.00    +0.000 C 
ENDBRANCH  31  32
ENDBRANCH  30  31
ENDBRANCH  29  30
ENDBRANCH  28  29
ENDBRANCH  27  28
ENDBRANCH  26  27
ENDBRANCH  17  19
BRANCH  16  15
ATOM     15  C   UNL     1      47.973   7.348  13.659  0.00  0.00    +0.000 C 
BRANCH  15  14
ATOM     11  C   UNL     1      44.781   4.501  12.921  0.00  0.00    +0.000 A 
ATOM     12  C   UNL     1      46.028   4.067  13.393  0.00  0.00    +0.000 A 
ATOM     13  C   UNL     1      47.059   4.980  13.637  0.00  0.00    +0.000 A 
ATOM     14  C   UNL     1      46.874   6.348  13.391  0.00  0.00    +0.000 A 
ATOM     35  C   UNL     1      45.641   6.774  12.879  0.00  0.00    +0.000 A 
ATOM     36  C   UNL     1      44.600   5.864  12.663  0.00  0.00    +0.000 A 
BRANCH  11  10
ATOM     10  C   UNL     1      43.651   3.524  12.695  0.00  0.00    +0.000 C 
BRANCH  10   9
ATOM      9  N   UNL     1      44.018   2.551  11.671  0.00  0.00    +0.000 NA
ATOM     37  H   UNL     1      44.996   2.295  11.781  0.00  0.00    +0.000 HD
BRANCH   9   8
ATOM      8  C   UNL     1      43.797   3.079  10.332  0.00  0.00    +0.000 C 
BRANCH   8   7
ATOM      7  C   UNL     1      45.111   3.008   9.562  0.00  0.00    +0.000 C 
BRANCH   7   6
ATOM      6  C   UNL     1      45.251   4.217   8.646  0.00  0.00    +0.000 C 
BRANCH   6   5
ATOM      5  C   UNL     1      46.464   4.069   7.738  0.00  0.00    +0.000 C 
BRANCH   5   4
ATOM      4  C   UNL     1      46.098   3.278   6.488  0.00  0.00    +0.000 C 
BRANCH   4   3
ATOM      3  C   UNL     1      47.309   2.522   5.955  0.00  0.00    +0.000 C 
BRANCH   3   2
ATOM      1  C   UNL     1      46.887   0.580   7.479  0.00  0.00    +0.000 C 
ATOM      2  C   UNL     1      47.900   1.614   7.029  0.00  0.00    +0.000 C 
ENDBRANCH   3   2
ENDBRANCH   4   3
ENDBRANCH   5   4
ENDBRANCH   6   5
ENDBRANCH   7   6
ENDBRANCH   8   7
ENDBRANCH   9   8
ENDBRANCH  10   9
ENDBRANCH  11  10
ENDBRANCH  15  14
ENDBRANCH  16  15
TORSDOF 18
ENDMDL
MODEL 2
REMARK VINA RESULT:    -6.016      1.742      2.263
REMARK INTER + INTRA:         -15.402
REMARK INTER:                 -12.499
REMARK INTRA:                  -2.903
REMARK UNBOUND:                -3.055
REMARK  Name = 
REMARK  20 active torsions:
REMARK  status: ('A' for Active; 'I' for Inactive)
REMARK    1  A    between atoms: C_1  and  C_2
REMARK    2  A    between atoms: C_2  and  C_3
REMARK    3  A    between atoms: C_3  and  C_4
REMARK    4  A    between atoms: C_4  and  C_5
REMARK    5  A    between atoms: C_5  and  C_6
REMARK    6  A    between atoms: C_6  and  C_7
REMARK    7  A    between atoms: C_7  and  C_8
REMARK    8  A    between atoms: C_8  and  N_9
REMARK    9  A    between atoms: N_9  and  C_10
REMARK   10  A    between atoms: C_10  and  C_11
REMARK   11  A    between atoms: C_14  and  C_15
REMARK   12  A    between atoms: C_15  and  N_16
REMARK   13  A    between atoms: C_17  and  C_19
REMARK   14  A    between atoms: C_26  and  O_27
REMARK   15  A    between atoms: O_27  and  C_28
REMARK   16  A    between atoms: C_28  and  C_29
REMARK   17  A    between atoms: C_29  and  C_30
REMARK   18  A    between atoms: C_30  and  C_31
REMARK   19  A    between atoms: C_31  and  C_32
REMARK   20  A    between atoms: C_32  and  C_33
REMARK                            x       y       z     vdW  Elec       q    Type
REMARK                         _______ _______ _______ _____ _____    ______ ____
ROOT
ATOM     16  N   UNL     1      49.654   6.947  14.597  0.00  0.00    +0.000 N 
ATOM     17  C   UNL     1      50.416   7.709  15.440  0.00  0.00    +0.000 C 
ATOM     18  O   UNL     1      50.305   8.932  15.498  0.00  0.00    +0.000 OA
ATOM     38  H   UNL     1      49.786   5.945  14.578  0.00  0.00    +0.000 HD
ENDROOT
BRANCH  17  19
ATOM     19  C   UNL     1      51.352   6.987  16.319  0.00  0.00    +0.000 A 
ATOM     20  C   UNL     1      52.662   6.769  15.915  0.00  0.00    +0.000 A 
ATOM     21  S   UNL     1      53.603   5.940  17.069  0.00  0.00    +0.000 S 
ATOM     22  C   UNL     1      52.280   5.807  18.128  0.00  0.00    +0.000 A 
ATOM     23  N   UNL     1      52.415   5.170  19.305  0.00  0.00    +0.000 NA
ATOM     24  C   UNL     1      51.275   5.136  20.000  0.00  0.00    +0.000 A 
ATOM     25  N   UNL     1      50.097   5.656  19.655  0.00  0.00    +0.000 NA
ATOM     26  C   UNL     1      50.017   6.301  18.480  0.00  0.00    +0.000 A 
ATOM     34  C   UNL     1      51.132   6.403  17.631  0.00  0.00    +0.000 A 
BRANCH  26  27
ATOM     27  O   UNL     1      48.816   6.802  18.063  0.00  0.00    +0.000 OA
BRANCH  27  28
ATOM     28  C   UNL     1      47.669   5.997  18.330  0.00  0.00    +0.000 C 
BRANCH  28  29
ATOM     29  C   UNL     1      47.548   4.953  17.234  0.00  0.00    +0.000 C 
BRANCH  29  30
ATOM     30  C   UNL     1      47.691   3.541  17.782  0.00  0.00    +0.000 C 
BRANCH  30  31
ATOM     31  C   UNL     1      48.649   2.719  16.930  0.00  0.00    +0.000 C 
BRANCH  31  32
ATOM     32  C   UNL     1      50.045   2.758  17.537  0.00  0.00    +0.000 C 
ATOM     33  C   UNL     1      50.894   1.606  17.034  0.00  0.00    +0.000 C 
ENDBRANCH  31  32
ENDBRANCH  30  31
ENDBRANCH  29  30
ENDBRANCH  28  29
ENDBRANCH  27  28
ENDBRANCH  26  27
ENDBRANCH  17  19
BRANCH  16  15
ATOM     15  C   UNL     1      48.686   7.507  13.686  0.00  0.00    +0.000 C 
BRANCH  15  14
ATOM     11  C   UNL     1      45.172   4.999  13.245  0.00  0.00    +0.000 A 
ATOM     12  C   UNL     1      46.369   4.467  13.747  0.00  0.00    +0.000 A 
ATOM     13  C   UNL     1      47.504   5.271  13.895  0.00  0.00    +0.000 A 
ATOM     14  C   UNL     1      47.474   6.622  13.522  0.00  0.00    +0.000 A 
ATOM     35  C   UNL     1      46.290   7.141  12.982  0.00  0.00    +0.000 A 
ATOM     36  C   UNL     1      45.147   6.343  12.861  0.00  0.00    +0.000 A 
BRANCH  11  10
ATOM     10  C   UNL     1      43.932   4.143  13.121  0.00  0.00    +0.000 C 
BRANCH  10   9
ATOM      9  N   UNL     1      44.244   2.893  12.436  0.00  0.00    +0.000 NA
ATOM     37  H   UNL     1      45.252   2.759  12.416  0.00  0.00    +0.000 HD
BRANCH   9   8
ATOM      8  C   UNL     1      43.721   2.886  11.078  0.00  0.00    +0.000 C 
BRANCH   8   7
ATOM      7  C   UNL     1      44.890   3.023  10.109  0.00  0.00    +0.000 C 
BRANCH   7   6
ATOM      6  C   UNL     1      45.014   4.465   9.633  0.00  0.00    +0.000 C 
BRANCH   6   5
ATOM      5  C   UNL     1      45.765   4.534   8.310  0.00  0.00    +0.000 C 
BRANCH   5   4
ATOM      4  C   UNL     1      45.728   3.182   7.607  0.00  0.00    +0.000 C 
BRANCH   4   3
ATOM      3  C   UNL     1      46.848   3.080   6.579  0.00  0.00    +0.000 C 
BRANCH   3   2
ATOM      1  C   UNL     1      46.892   0.809   7.636  0.00  0.00    +0.000 C 
ATOM      2  C   UNL     1      47.654   1.800   6.777  0.00  0.00    +0.000 C 
ENDBRANCH   3   2
ENDBRANCH   4   3
ENDBRANCH   5   4
ENDBRANCH   6   5
ENDBRANCH   7   6
ENDBRANCH   8   7
ENDBRANCH   9   8
ENDBRANCH  10   9
ENDBRANCH  11  10
ENDBRANCH  15  14
ENDBRANCH  16  15
TORSDOF 18
ENDMDL
MODEL 3
REMARK VINA RESULT:    -5.976      2.624      9.170
REMARK INTER + INTRA:         -15.319
REMARK INTER:                 -12.646
REMARK INTRA:                  -2.673
REMARK UNBOUND:                -3.055
REMARK  Name = 
REMARK  20 active torsions:
REMARK  status: ('A' for Active; 'I' for Inactive)
REMARK    1  A    between atoms: C_1  and  C_2
REMARK    2  A    between atoms: C_2  and  C_3
REMARK    3  A    between atoms: C_3  and  C_4
REMARK    4  A    between atoms: C_4  and  C_5
REMARK    5  A    between atoms: C_5  and  C_6
REMARK    6  A    between atoms: C_6  and  C_7
REMARK    7  A    between atoms: C_7  and  C_8
REMARK    8  A    between atoms: C_8  and  N_9
REMARK    9  A    between atoms: N_9  and  C_10
REMARK   10  A    between atoms: C_10  and  C_11
REMARK   11  A    between atoms: C_14  and  C_15
REMARK   12  A    between atoms: C_15  and  N_16
REMARK   13  A    between atoms: C_17  and  C_19
REMARK   14  A    between atoms: C_26  and  O_27
REMARK   15  A    between atoms: O_27  and  C_28
REMARK   16  A    between atoms: C_28  and  C_29
REMARK   17  A    between atoms: C_29  and  C_30
REMARK   18  A    between atoms: C_30  and  C_31
REMARK   19  A    between atoms: C_31  and  C_32
REMARK   20  A    between atoms: C_32  and  C_33
REMARK                            x       y       z     vdW  Elec       q    Type
REMARK                         _______ _______ _______ _____ _____    ______ ____
ROOT
ATOM     16  N   UNL     1      47.071   4.586  15.924  0.00  0.00    +0.000 N 
ATOM     17  C   UNL     1      47.102   4.384  14.571  0.00  0.00    +0.000 C 
ATOM     18  O   UNL     1      47.239   3.266  14.079  0.00  0.00    +0.000 OA
ATOM     38  H   UNL     1      46.963   5.525  16.284  0.00  0.00    +0.000 HD
ENDROOT
BRANCH  17  19
ATOM     19  C   UNL     1      46.914   5.573  13.721  0.00  0.00    +0.000 A 
ATOM     20  C   UNL     1      47.924   6.518  13.610  0.00  0.00    +0.000 A 
ATOM     21  S   UNL     1      47.539   7.809  12.567  0.00  0.00    +0.000 S 
ATOM     22  C   UNL     1      45.993   7.170  12.263  0.00  0.00    +0.000 A 
ATOM     23  N   UNL     1      45.137   7.822  11.456  0.00  0.00    +0.000 NA
ATOM     24  C   UNL     1      43.962   7.196  11.348  0.00  0.00    +0.000 A 
ATOM     25  N   UNL     1      43.596   6.050  11.921  0.00  0.00    +0.000 NA
ATOM     26  C   UNL     1      44.493   5.426  12.702  0.00  0.00    +0.000 A 
ATOM     34  C   UNL     1      45.767   5.974  12.926  0.00  0.00    +0.000 A 
BRANCH  26  27
ATOM     27  O   UNL     1      44.141   4.277  13.353  0.00  0.00    +0.000 OA
BRANCH  27  28
ATOM     28  C   UNL     1      43.706   3.194  12.532  0.00  0.00    +0.000 C 
BRANCH  28  29
ATOM     29  C   UNL     1      44.775   2.919  11.490  0.00  0.00    +0.000 C 
BRANCH  29  30
ATOM     30  C   UNL     1      44.191   2.848  10.087  0.00  0.00    +0.000 C 
BRANCH  30  31
ATOM     31  C   UNL     1      45.253   2.442   9.074  0.00  0.00    +0.000 C 
BRANCH  31  32
ATOM     32  C   UNL     1      45.307   3.463   7.944  0.00  0.00    +0.000 C 
ATOM     33  C   UNL     1      46.599   3.344   7.159  0.00  0.00    +0.000 C 
ENDBRANCH  31  32
ENDBRANCH  30  31
ENDBRANCH  29  30
ENDBRANCH  28  29
ENDBRANCH  27  28
ENDBRANCH  26  27
ENDBRANCH  17  19
BRANCH  16  15
ATOM     15  C   UNL     1      47.228   3.521  16.884  0.00  0.00    +0.000 C 
BRANCH  15  14
ATOM     11  C   UNL     1      51.411   2.744  17.742  0.00  0.00    +0.000 A 
ATOM     12  C   UNL     1      50.652   1.825  17.003  0.00  0.00    +0.000 A 
ATOM     13  C   UNL     1      49.305   2.071  16.720  0.00  0.00    +0.000 A 
ATOM     14  C   UNL     1      48.678   3.234  17.190  0.00  0.00    +0.000 A 
ATOM     35  C   UNL     1      49.427   4.131  17.964  0.00  0.00    +0.000 A 
ATOM     36  C   UNL     1      50.782   3.898  18.222  0.00  0.00    +0.000 A 
BRANCH  11  10
ATOM     10  C   UNL     1      52.877   2.501  18.017  0.00  0.00    +0.000 C 
BRANCH  10   9
ATOM      9  N   UNL     1      53.184   2.774  19.417  0.00  0.00    +0.000 NA
ATOM     37  H   UNL     1      52.382   3.214  19.861  0.00  0.00    +0.000 HD
BRANCH   9   8
ATOM      8  C   UNL     1      54.351   3.634  19.548  0.00  0.00    +0.000 C 
BRANCH   8   7
ATOM      7  C   UNL     1      54.433   4.527  18.315  0.00  0.00    +0.000 C 
BRANCH   7   6
ATOM      6  C   UNL     1      54.021   5.951  18.667  0.00  0.00    +0.000 C 
BRANCH   6   5
ATOM      5  C   UNL     1      53.639   6.728  17.414  0.00  0.00    +0.000 C 
BRANCH   5   4
ATOM      4  C   UNL     1      52.187   7.182  17.493  0.00  0.00    +0.000 C 
BRANCH   4   3
ATOM      3  C   UNL     1      51.435   6.805  16.223  0.00  0.00    +0.000 C 
BRANCH   3   2
ATOM      1  C   UNL     1      49.191   7.674  16.918  0.00  0.00    +0.000 C 
ATOM      2  C   UNL     1      50.328   7.812  15.925  0.00  0.00    +0.000 C 
ENDBRANCH   3   2
ENDBRANCH   4   3
ENDBRANCH   5   4
ENDBRANCH   6   5
ENDBRANCH   7   6
ENDBRANCH   8   7
ENDBRANCH   9   8
ENDBRANCH  10   9
ENDBRANCH  11  10
ENDBRANCH  15  14
ENDBRANCH  16  15
TORSDOF 18
ENDMDL
MODEL 4
REMARK VINA RESULT:    -5.901      2.493      3.928
REMARK INTER + INTRA:         -15.165
REMARK INTER:                 -12.640
REMARK INTRA:                  -2.524
REMARK UNBOUND:                -3.055
REMARK  Name = 
REMARK  20 active torsions:
REMARK  status: ('A' for Active; 'I' for Inactive)
REMARK    1  A    between atoms: C_1  and  C_2
REMARK    2  A    between atoms: C_2  and  C_3
REMARK    3  A    between atoms: C_3  and  C_4
REMARK    4  A    between atoms: C_4  and  C_5
REMARK    5  A    between atoms: C_5  and  C_6
REMARK    6  A    between atoms: C_6  and  C_7
REMARK    7  A    between atoms: C_7  and  C_8
REMARK    8  A    between atoms: C_8  and  N_9
REMARK    9  A    between atoms: N_9  and  C_10
REMARK   10  A    between atoms: C_10  and  C_11
REMARK   11  A    between atoms: C_14  and  C_15
REMARK   12  A    between atoms: C_15  and  N_16
REMARK   13  A    between atoms: C_17  and  C_19
REMARK   14  A    between atoms: C_26  and  O_27
REMARK   15  A    between atoms: O_27  and  C_28
REMARK   16  A    between atoms: C_28  and  C_29
REMARK   17  A    between atoms: C_29  and  C_30
REMARK   18  A    between atoms: C_30  and  C_31
REMARK   19  A    between atoms: C_31  and  C_32
REMARK   20  A    between atoms: C_32  and  C_33
REMARK                            x       y       z     vdW  Elec       q    Type
REMARK                         _______ _______ _______ _____ _____    ______ ____
ROOT
ATOM     16  N   UNL     1      51.094   6.254  16.371  0.00  0.00    +0.000 N 
ATOM     17  C   UNL     1      51.312   6.046  17.706  0.00  0.00    +0.000 C 
ATOM     18  O   UNL     1      50.811   6.762  18.570  0.00  0.00    +0.000 OA
ATOM     38  H   UNL     1      51.534   5.643  15.695  0.00  0.00    +0.000 HD
ENDROOT
BRANCH  17  19
ATOM     19  C   UNL     1      52.145   4.886  18.068  0.00  0.00    +0.000 A 
ATOM     20  C   UNL     1      53.387   5.075  18.658  0.00  0.00    +0.000 A 
ATOM     21  S   UNL     1      54.195   3.621  19.027  0.00  0.00    +0.000 S 
ATOM     22  C   UNL     1      52.932   2.692  18.370  0.00  0.00    +0.000 A 
ATOM     23  N   UNL     1      53.017   1.350  18.351  0.00  0.00    +0.000 NA
ATOM     24  C   UNL     1      51.953   0.780  17.778  0.00  0.00    +0.000 A 
ATOM     25  N   UNL     1      50.881   1.387  17.271  0.00  0.00    +0.000 NA
ATOM     26  C   UNL     1      50.833   2.728  17.332  0.00  0.00    +0.000 A 
ATOM     34  C   UNL     1      51.888   3.468  17.890  0.00  0.00    +0.000 A 
BRANCH  26  27
ATOM     27  O   UNL     1      49.777   3.393  16.775  0.00  0.00    +0.000 OA
BRANCH  27  28
ATOM     28  C   UNL     1      48.527   2.704  16.772  0.00  0.00    +0.000 C 
BRANCH  28  29
ATOM     29  C   UNL     1      47.718   3.167  17.970  0.00  0.00    +0.000 C 
BRANCH  29  30
ATOM     30  C   UNL     1      48.296   4.433  18.585  0.00  0.00    +0.000 C 
BRANCH  30  31
ATOM     31  C   UNL     1      47.217   5.491  18.771  0.00  0.00    +0.000 C 
BRANCH  31  32
ATOM     32  C   UNL     1      47.382   6.166  20.127  0.00  0.00    +0.000 C 
ATOM     33  C   UNL     1      48.287   5.357  21.036  0.00  0.00    +0.000 C 
ENDBRANCH  31  32
ENDBRANCH  30  31
ENDBRANCH  29  30
ENDBRANCH  28  29
ENDBRANCH  27  28
ENDBRANCH  26  27
ENDBRANCH  17  19
BRANCH  16  15
ATOM     15  C   UNL     1      50.292   7.339  15.862  0.00  0.00    +0.000 C 
BRANCH  15  14
ATOM     11  C   UNL     1      47.271   6.037  13.032  0.00  0.00    +0.000 A 
ATOM     12  C   UNL     1      47.261   5.565  14.353  0.00  0.00    +0.000 A 
ATOM     13  C   UNL     1      48.229   5.984  15.271  0.00  0.00    +0.000 A 
ATOM     14  C   UNL     1      49.246   6.868  14.881  0.00  0.00    +0.000 A 
ATOM     35  C   UNL     1      49.278   7.306  13.551  0.00  0.00    +0.000 A 
ATOM     36  C   UNL     1      48.292   6.909  12.641  0.00  0.00    +0.000 A 
BRANCH  11  10
ATOM     10  C   UNL     1      46.203   5.618  12.048  0.00  0.00    +0.000 C 
BRANCH  10   9
ATOM      9  N   UNL     1      45.029   5.116  12.755  0.00  0.00    +0.000 NA
ATOM     37  H   UNL     1      45.318   4.691  13.633  0.00  0.00    +0.000 HD
BRANCH   9   8
ATOM      8  C   UNL     1      44.304   4.140  11.954  0.00  0.00    +0.000 C 
BRANCH   8   7
ATOM      7  C   UNL     1      43.757   4.843  10.716  0.00  0.00    +0.000 C 
BRANCH   7   6
ATOM      6  C   UNL     1      44.126   4.062   9.461  0.00  0.00    +0.000 C 
BRANCH   6   5
ATOM      5  C   UNL     1      44.889   2.794   9.818  0.00  0.00    +0.000 C 
BRANCH   5   4
ATOM      4  C   UNL     1      45.605   2.242   8.591  0.00  0.00    +0.000 C 
BRANCH   4   3
ATOM      3  C   UNL     1      45.835   3.342   7.562  0.00  0.00    +0.000 C 
BRANCH   3   2
ATOM      1  C   UNL     1      47.655   1.754   6.897  0.00  0.00    +0.000 C 
ATOM      2  C   UNL     1      46.714   2.843   6.419  0.00  0.00    +0.000 C 
ENDBRANCH   3   2
ENDBRANCH   4   3
ENDBRANCH   5   4
ENDBRANCH   6   5
ENDBRANCH   7   6
ENDBRANCH   8   7
ENDBRANCH   9   8
ENDBRANCH  10   9
ENDBRANCH  11  10
ENDBRANCH  15  14
ENDBRANCH  16  15
TORSDOF 18
ENDMDL
MODEL 5
REMARK VINA RESULT:    -5.809      2.104      3.072
REMARK INTER + INTRA:         -14.976
REMARK INTER:                 -12.150
REMARK INTRA:                  -2.826
REMARK UNBOUND:                -3.055
REMARK  Name = 
REMARK  20 active torsions:
REMARK  status: ('A' for Active; 'I' for Inactive)
REMARK    1  A    between atoms: C_1  and  C_2
REMARK    2  A    between atoms: C_2  and  C_3
REMARK    3  A    between atoms: C_3  and  C_4
REMARK    4  A    between atoms: C_4  and  C_5
REMARK    5  A    between atoms: C_5  and  C_6
REMARK    6  A    between atoms: C_6  and  C_7
REMARK    7  A    between atoms: C_7  and  C_8
REMARK    8  A    between atoms: C_8  and  N_9
REMARK    9  A    between atoms: N_9  and  C_10
REMARK   10  A    between atoms: C_10  and  C_11
REMARK   11  A    between atoms: C_14  and  C_15
REMARK   12  A    between atoms: C_15  and  N_16
REMARK   13  A    between atoms: C_17  and  C_19
REMARK   14  A    between atoms: C_26  and  O_27
REMARK   15  A    between atoms: O_27  and  C_28
REMARK   16  A    between atoms: C_28  and  C_29
REMARK   17  A    between atoms: C_29  and  C_30
REMARK   18  A    between atoms: C_30  and  C_31
REMARK   19  A    between atoms: C_31  and  C_32
REMARK   20  A    between atoms: C_32  and  C_33
REMARK                            x       y       z     vdW  Elec       q    Type
REMARK                         _______ _______ _______ _____ _____    ______ ____
ROOT
ATOM     16  N   UNL     1      48.704   8.564  12.667  0.00  0.00    +0.000 N 
ATOM     17  C   UNL     1      50.023   8.601  13.032  0.00  0.00    +0.000 C 
ATOM     18  O   UNL     1      50.881   7.939  12.453  0.00  0.00    +0.000 OA
ATOM     38  H   UNL     1      48.032   9.121  13.177  0.00  0.00    +0.000 HD
ENDROOT
BRANCH  17  19
ATOM     19  C   UNL     1      50.380   9.516  14.130  0.00  0.00    +0.000 A 
ATOM     20  C   UNL     1      51.283  10.547  13.913  0.00  0.00    +0.000 A 
ATOM     21  S   UNL     1      51.555  11.516  15.290  0.00  0.00    +0.000 S 
ATOM     22  C   UNL     1      50.509  10.562  16.231  0.00  0.00    +0.000 A 
ATOM     23  N   UNL     1      50.318  10.847  17.531  0.00  0.00    +0.000 NA
ATOM     24  C   UNL     1      49.488   9.985  18.126  0.00  0.00    +0.000 A 
ATOM     25  N   UNL     1      48.864   8.946  17.573  0.00  0.00    +0.000 NA
ATOM     26  C   UNL     1      49.071   8.714  16.266  0.00  0.00    +0.000 A 
ATOM     34  C   UNL     1      49.933   9.526  15.512  0.00  0.00    +0.000 A 
BRANCH  26  27
ATOM     27  O   UNL     1      48.494   7.626  15.672  0.00  0.00    +0.000 OA
BRANCH  27  28
ATOM     28  C   UNL     1      49.137   6.372  15.892  0.00  0.00    +0.000 C 
BRANCH  28  29
ATOM     29  C   UNL     1      48.344   5.600  16.932  0.00  0.00    +0.000 C 
BRANCH  29  30
ATOM     30  C   UNL     1      47.643   4.394  16.326  0.00  0.00    +0.000 C 
BRANCH  30  31
ATOM     31  C   UNL     1      47.847   3.154  17.186  0.00  0.00    +0.000 C 
BRANCH  31  32
ATOM     32  C   UNL     1      48.941   2.281  16.586  0.00  0.00    +0.000 C 
ATOM     33  C   UNL     1      50.246   2.440  17.341  0.00  0.00    +0.000 C 
ENDBRANCH  31  32
ENDBRANCH  30  31
ENDBRANCH  29  30
ENDBRANCH  28  29
ENDBRANCH  27  28
ENDBRANCH  26  27
ENDBRANCH  17  19
BRANCH  16  15
ATOM     15  C   UNL     1      48.204   7.728  11.604  0.00  0.00    +0.000 C 
BRANCH  15  14
ATOM     11  C   UNL     1      44.780   5.346  12.804  0.00  0.00    +0.000 A 
ATOM     12  C   UNL     1      44.602   6.545  12.099  0.00  0.00    +0.000 A 
ATOM     13  C   UNL     1      45.701   7.315  11.706  0.00  0.00    +0.000 A 
ATOM     14  C   UNL     1      47.005   6.914  12.030  0.00  0.00    +0.000 A 
ATOM     35  C   UNL     1      47.179   5.738  12.771  0.00  0.00    +0.000 A 
ATOM     36  C   UNL     1      46.080   4.953  13.139  0.00  0.00    +0.000 A 
BRANCH  11  10
ATOM     10  C   UNL     1      43.597   4.490  13.196  0.00  0.00    +0.000 C 
BRANCH  10   9
ATOM      9  N   UNL     1      43.820   3.104  12.800  0.00  0.00    +0.000 NA
ATOM     37  H   UNL     1      44.818   2.909  12.793  0.00  0.00    +0.000 HD
BRANCH   9   8
ATOM      8  C   UNL     1      43.257   2.830  11.485  0.00  0.00    +0.000 C 
BRANCH   8   7
ATOM      7  C   UNL     1      44.392   2.821  10.467  0.00  0.00    +0.000 C 
BRANCH   7   6
ATOM      6  C   UNL     1      44.177   3.917   9.430  0.00  0.00    +0.000 C 
BRANCH   6   5
ATOM      5  C   UNL     1      45.481   4.246   8.715  0.00  0.00    +0.000 C 
BRANCH   5   4
ATOM      4  C   UNL     1      45.602   3.431   7.432  0.00  0.00    +0.000 C 
BRANCH   4   3
ATOM      3  C   UNL     1      46.534   2.243   7.636  0.00  0.00    +0.000 C 
BRANCH   3   2
ATOM      1  C   UNL     1      47.546   2.522   5.362  0.00  0.00    +0.000 C 
ATOM      2  C   UNL     1      47.828   2.424   6.848  0.00  0.00    +0.000 C 
ENDBRANCH   3   2
ENDBRANCH   4   3
ENDBRANCH   5   4
ENDBRANCH   6   5
ENDBRANCH   7   6
ENDBRANCH   8   7
ENDBRANCH   9   8
ENDBRANCH  10   9
ENDBRANCH  11  10
ENDBRANCH  15  14
ENDBRANCH  16  15
TORSDOF 18
ENDMDL
MODEL 6
REMARK VINA RESULT:    -5.693      1.329      2.165
REMARK INTER + INTRA:         -14.738
REMARK INTER:                 -12.143
REMARK INTRA:                  -2.595
REMARK UNBOUND:                -3.055
REMARK  Name = 
REMARK  20 active torsions:
REMARK  status: ('A' for Active; 'I' for Inactive)
REMARK    1  A    between atoms: C_1  and  C_2
REMARK    2  A    between atoms: C_2  and  C_3
REMARK    3  A    between atoms: C_3  and  C_4
REMARK    4  A    between atoms: C_4  and  C_5
REMARK    5  A    between atoms: C_5  and  C_6
REMARK    6  A    between atoms: C_6  and  C_7
REMARK    7  A    between atoms: C_7  and  C_8
REMARK    8  A    between atoms: C_8  and  N_9
REMARK    9  A    between atoms: N_9  and  C_10
REMARK   10  A    between atoms: C_10  and  C_11
REMARK   11  A    between atoms: C_14  and  C_15
REMARK   12  A    between atoms: C_15  and  N_16
REMARK   13  A    between atoms: C_17  and  C_19
REMARK   14  A    between atoms: C_26  and  O_27
REMARK   15  A    between atoms: O_27  and  C_28
REMARK   16  A    between atoms: C_28  and  C_29
REMARK   17  A    between atoms: C_29  and  C_30
REMARK   18  A    between atoms: C_30  and  C_31
REMARK   19  A    between atoms: C_31  and  C_32
REMARK   20  A    between atoms: C_32  and  C_33
REMARK                            x       y       z     vdW  Elec       q    Type
REMARK                         _______ _______ _______ _____ _____    ______ ____
ROOT
ATOM     16  N   UNL     1      49.628   7.356  15.686  0.00  0.00    +0.000 N 
ATOM     17  C   UNL     1      50.561   6.790  16.512  0.00  0.00    +0.000 C 
ATOM     18  O   UNL     1      51.548   6.199  16.078  0.00  0.00    +0.000 OA
ATOM     38  H   UNL     1      48.828   7.826  16.088  0.00  0.00    +0.000 HD
ENDROOT
BRANCH  17  19
ATOM     19  C   UNL     1      50.354   6.963  17.960  0.00  0.00    +0.000 A 
ATOM     20  C   UNL     1      51.340   7.548  18.741  0.00  0.00    +0.000 A 
ATOM     21  S   UNL     1      50.914   7.687  20.386  0.00  0.00    +0.000 S 
ATOM     22  C   UNL     1      49.417   6.929  20.116  0.00  0.00    +0.000 A 
ATOM     23  N   UNL     1      48.571   6.715  21.139  0.00  0.00    +0.000 NA
ATOM     24  C   UNL     1      47.455   6.088  20.756  0.00  0.00    +0.000 A 
ATOM     25  N   UNL     1      47.126   5.696  19.526  0.00  0.00    +0.000 NA
ATOM     26  C   UNL     1      47.994   5.951  18.533  0.00  0.00    +0.000 A 
ATOM     34  C   UNL     1      49.219   6.588  18.787  0.00  0.00    +0.000 A 
BRANCH  26  27
ATOM     27  O   UNL     1      47.719   5.518  17.266  0.00  0.00    +0.000 OA
BRANCH  27  28
ATOM     28  C   UNL     1      47.089   4.243  17.158  0.00  0.00    +0.000 C 
BRANCH  28  29
ATOM     29  C   UNL     1      48.056   3.282  16.489  0.00  0.00    +0.000 C 
BRANCH  29  30
ATOM     30  C   UNL     1      48.908   2.540  17.507  0.00  0.00    +0.000 C 
BRANCH  30  31
ATOM     31  C   UNL     1      50.364   2.979  17.423  0.00  0.00    +0.000 C 
BRANCH  31  32
ATOM     32  C   UNL     1      51.270   1.756  17.368  0.00  0.00    +0.000 C 
ATOM     33  C   UNL     1      52.659   2.079  17.886  0.00  0.00    +0.000 C 
ENDBRANCH  31  32
ENDBRANCH  30  31
ENDBRANCH  29  30
ENDBRANCH  28  29
ENDBRANCH  27  28
ENDBRANCH  26  27
ENDBRANCH  17  19
BRANCH  16  15
ATOM     15  C   UNL     1      49.700   7.282  14.247  0.00  0.00    +0.000 C 
BRANCH  15  14
ATOM     11  C   UNL     1      45.796   6.919  12.387  0.00  0.00    +0.000 A 
ATOM     12  C   UNL     1      46.520   8.117  12.296  0.00  0.00    +0.000 A 
ATOM     13  C   UNL     1      47.781   8.239  12.890  0.00  0.00    +0.000 A 
ATOM     14  C   UNL     1      48.336   7.171  13.609  0.00  0.00    +0.000 A 
ATOM     35  C   UNL     1      47.593   5.990  13.734  0.00  0.00    +0.000 A 
ATOM     36  C   UNL     1      46.345   5.859  13.115  0.00  0.00    +0.000 A 
BRANCH  11  10
ATOM     10  C   UNL     1      44.452   6.770  11.713  0.00  0.00    +0.000 C 
BRANCH  10   9
ATOM      9  N   UNL     1      43.614   5.831  12.451  0.00  0.00    +0.000 NA
ATOM     37  H   UNL     1      44.201   5.241  13.036  0.00  0.00    +0.000 HD
BRANCH   9   8
ATOM      8  C   UNL     1      42.826   5.001  11.552  0.00  0.00    +0.000 C 
BRANCH   8   7
ATOM      7  C   UNL     1      43.205   3.543  11.784  0.00  0.00    +0.000 C 
BRANCH   7   6
ATOM      6  C   UNL     1      44.626   3.284  11.299  0.00  0.00    +0.000 C 
BRANCH   6   5
ATOM      5  C   UNL     1      44.628   2.839   9.843  0.00  0.00    +0.000 C 
BRANCH   5   4
ATOM      4  C   UNL     1      45.161   3.952   8.949  0.00  0.00    +0.000 C 
BRANCH   4   3
ATOM      3  C   UNL     1      45.357   3.449   7.524  0.00  0.00    +0.000 C 
BRANCH   3   2
ATOM      1  C   UNL     1      47.230   2.254   6.366  0.00  0.00    +0.000 C 
ATOM      2  C   UNL     1      46.829   3.504   7.124  0.00  0.00    +0.000 C 
ENDBRANCH   3   2
ENDBRANCH   4   3
ENDBRANCH   5   4
ENDBRANCH   6   5
ENDBRANCH   7   6
ENDBRANCH   8   7
ENDBRANCH   9   8
ENDBRANCH  10   9
ENDBRANCH  11  10
ENDBRANCH  15  14
ENDBRANCH  16  15
TORSDOF 18
ENDMDL
MODEL 7
REMARK VINA RESULT:    -5.561      2.691      3.783
REMARK INTER + INTRA:         -14.467
REMARK INTER:                 -11.885
REMARK INTRA:                  -2.582
REMARK UNBOUND:                -3.055
REMARK  Name = 
REMARK  20 active torsions:
REMARK  status: ('A' for Active; 'I' for Inactive)
REMARK    1  A    between atoms: C_1  and  C_2
REMARK    2  A    between atoms: C_2  and  C_3
REMARK    3  A    between atoms: C_3  and  C_4
REMARK    4  A    between atoms: C_4  and  C_5
REMARK    5  A    between atoms: C_5  and  C_6
REMARK    6  A    between atoms: C_6  and  C_7
REMARK    7  A    between atoms: C_7  and  C_8
REMARK    8  A    between atoms: C_8  and  N_9
REMARK    9  A    between atoms: N_9  and  C_10
REMARK   10  A    between atoms: C_10  and  C_11
REMARK   11  A    between atoms: C_14  and  C_15
REMARK   12  A    between atoms: C_15  and  N_16
REMARK   13  A    between atoms: C_17  and  C_19
REMARK   14  A    between atoms: C_26  and  O_27
REMARK   15  A    between atoms: O_27  and  C_28
REMARK   16  A    between atoms: C_28  and  C_29
REMARK   17  A    between atoms: C_29  and  C_30
REMARK   18  A    between atoms: C_30  and  C_31
REMARK   19  A    between atoms: C_31  and  C_32
REMARK   20  A    between atoms: C_32  and  C_33
REMARK                            x       y       z     vdW  Elec       q    Type
REMARK                         _______ _______ _______ _____ _____    ______ ____
ROOT
ATOM     16  N   UNL     1      50.644   7.841  13.281  0.00  0.00    +0.000 N 
ATOM     17  C   UNL     1      51.555   8.653  13.900  0.00  0.00    +0.000 C 
ATOM     18  O   UNL     1      51.411   9.872  13.960  0.00  0.00    +0.000 OA
ATOM     38  H   UNL     1      50.808   6.844  13.250  0.00  0.00    +0.000 HD
ENDROOT
BRANCH  17  19
ATOM     19  C   UNL     1      52.704   7.990  14.540  0.00  0.00    +0.000 A 
ATOM     20  C   UNL     1      53.994   8.243  14.093  0.00  0.00    +0.000 A 
ATOM     21  S   UNL     1      55.195   7.407  14.966  0.00  0.00    +0.000 S 
ATOM     22  C   UNL     1      54.029   6.644  15.940  0.00  0.00    +0.000 A 
ATOM     23  N   UNL     1      54.405   5.767  16.887  0.00  0.00    +0.000 NA
ATOM     24  C   UNL     1      53.364   5.244  17.541  0.00  0.00    +0.000 A 
ATOM     25  N   UNL     1      52.072   5.511  17.356  0.00  0.00    +0.000 NA
ATOM     26  C   UNL     1      51.747   6.409  16.412  0.00  0.00    +0.000 A 
ATOM     34  C   UNL     1      52.734   7.031  15.630  0.00  0.00    +0.000 A 
BRANCH  26  27
ATOM     27  O   UNL     1      50.431   6.672  16.153  0.00  0.00    +0.000 OA
BRANCH  27  28
ATOM     28  C   UNL     1      49.784   7.588  17.034  0.00  0.00    +0.000 C 
BRANCH  28  29
ATOM     29  C   UNL     1      48.612   6.880  17.690  0.00  0.00    +0.000 C 
BRANCH  29  30
ATOM     30  C   UNL     1      48.418   5.477  17.133  0.00  0.00    +0.000 C 
BRANCH  30  31
ATOM     31  C   UNL     1      47.603   4.618  18.091  0.00  0.00    +0.000 C 
BRANCH  31  32
ATOM     32  C   UNL     1      47.214   3.312  17.412  0.00  0.00    +0.000 C 
ATOM     33  C   UNL     1      48.414   2.655  16.757  0.00  0.00    +0.000 C 
ENDBRANCH  31  32
ENDBRANCH  30  31
ENDBRANCH  29  30
ENDBRANCH  28  29
ENDBRANCH  27  28
ENDBRANCH  26  27
ENDBRANCH  17  19
BRANCH  16  15
ATOM     15  C   UNL     1      49.463   8.341  12.621  0.00  0.00    +0.000 C 
BRANCH  15  14
ATOM     11  C   UNL     1      46.062   5.671  13.009  0.00  0.00    +0.000 A 
ATOM     12  C   UNL     1      47.250   5.419  13.711  0.00  0.00    +0.000 A 
ATOM     13  C   UNL     1      48.348   6.277  13.593  0.00  0.00    +0.000 A 
ATOM     14  C   UNL     1      48.291   7.397  12.751  0.00  0.00    +0.000 A 
ATOM     35  C   UNL     1      47.118   7.624  12.019  0.00  0.00    +0.000 A 
ATOM     36  C   UNL     1      46.010   6.781  12.159  0.00  0.00    +0.000 A 
BRANCH  11  10
ATOM     10  C   UNL     1      44.860   4.769  13.164  0.00  0.00    +0.000 C 
BRANCH  10   9
ATOM      9  N   UNL     1      45.117   3.471  12.550  0.00  0.00    +0.000 NA
ATOM     37  H   UNL     1      45.943   3.531  11.960  0.00  0.00    +0.000 HD
BRANCH   9   8
ATOM      8  C   UNL     1      43.981   3.024  11.756  0.00  0.00    +0.000 C 
BRANCH   8   7
ATOM      7  C   UNL     1      43.719   4.056  10.665  0.00  0.00    +0.000 C 
BRANCH   7   6
ATOM      6  C   UNL     1      44.472   3.682   9.394  0.00  0.00    +0.000 C 
BRANCH   6   5
ATOM      5  C   UNL     1      44.547   2.170   9.235  0.00  0.00    +0.000 C 
BRANCH   5   4
ATOM      4  C   UNL     1      45.825   1.775   8.505  0.00  0.00    +0.000 C 
BRANCH   4   3
ATOM      3  C   UNL     1      46.309   2.913   7.614  0.00  0.00    +0.000 C 
BRANCH   3   2
ATOM      1  C   UNL     1      47.305   2.640   5.332  0.00  0.00    +0.000 C 
ATOM      2  C   UNL     1      47.545   2.497   6.823  0.00  0.00    +0.000 C 
ENDBRANCH   3   2
ENDBRANCH   4   3
ENDBRANCH   5   4
ENDBRANCH   6   5
ENDBRANCH   7   6
ENDBRANCH   8   7
ENDBRANCH   9   8
ENDBRANCH  10   9
ENDBRANCH  11  10
ENDBRANCH  15  14
ENDBRANCH  16  15
TORSDOF 18
ENDMDL
MODEL 8
REMARK VINA RESULT:    -5.488      2.138      3.058
REMARK INTER + INTRA:         -14.317
REMARK INTER:                 -11.409
REMARK INTRA:                  -2.908
REMARK UNBOUND:                -3.055
REMARK  Name = 
REMARK  20 active torsions:
REMARK  status: ('A' for Active; 'I' for Inactive)
REMARK    1  A    between atoms: C_1  and  C_2
REMARK    2  A    between atoms: C_2  and  C_3
REMARK    3  A    between atoms: C_3  and  C_4
REMARK    4  A    between atoms: C_4  and  C_5
REMARK    5  A    between atoms: C_5  and  C_6
REMARK    6  A    between atoms: C_6  and  C_7
REMARK    7  A    between atoms: C_7  and  C_8
REMARK    8  A    between atoms: C_8  and  N_9
REMARK    9  A    between atoms: N_9  and  C_10
REMARK   10  A    between atoms: C_10  and  C_11
REMARK   11  A    between atoms: C_14  and  C_15
REMARK   12  A    between atoms: C_15  and  N_16
REMARK   13  A    between atoms: C_17  and  C_19
REMARK   14  A    between atoms: C_26  and  O_27
REMARK   15  A    between atoms: O_27  and  C_28
REMARK   16  A    between atoms: C_28  and  C_29
REMARK   17  A    between atoms: C_29  and  C_30
REMARK   18  A    between atoms: C_30  and  C_31
REMARK   19  A    between atoms: C_31  and  C_32
REMARK   20  A    between atoms: C_32  and  C_33
REMARK                            x       y       z     vdW  Elec       q    Type
REMARK                         _______ _______ _______ _____ _____    ______ ____
ROOT
ATOM     16  N   UNL     1      50.088   7.367  14.027  0.00  0.00    +0.000 N 
ATOM     17  C   UNL     1      50.538   7.907  15.201  0.00  0.00    +0.000 C 
ATOM     18  O   UNL     1      50.010   8.891  15.714  0.00  0.00    +0.000 OA
ATOM     38  H   UNL     1      50.558   6.561  13.638  0.00  0.00    +0.000 HD
ENDROOT
BRANCH  17  19
ATOM     19  C   UNL     1      51.666   7.220  15.854  0.00  0.00    +0.000 A 
ATOM     20  C   UNL     1      52.959   7.704  15.703  0.00  0.00    +0.000 A 
ATOM     21  S   UNL     1      54.129   6.797  16.548  0.00  0.00    +0.000 S 
ATOM     22  C   UNL     1      52.953   5.704  17.107  0.00  0.00    +0.000 A 
ATOM     23  N   UNL     1      53.310   4.659  17.874  0.00  0.00    +0.000 NA
ATOM     24  C   UNL     1      52.269   3.888  18.203  0.00  0.00    +0.000 A 
ATOM     25  N   UNL     1      50.991   4.065  17.869  0.00  0.00    +0.000 NA
ATOM     26  C   UNL     1      50.681   5.135  17.119  0.00  0.00    +0.000 A 
ATOM     34  C   UNL     1      51.674   6.026  16.680  0.00  0.00    +0.000 A 
BRANCH  26  27
ATOM     27  O   UNL     1      49.391   5.323  16.708  0.00  0.00    +0.000 OA
BRANCH  27  28
ATOM     28  C   UNL     1      48.414   4.455  17.280  0.00  0.00    +0.000 C 
BRANCH  28  29
ATOM     29  C   UNL     1      47.222   5.290  17.713  0.00  0.00    +0.000 C 
BRANCH  29  30
ATOM     30  C   UNL     1      47.295   5.654  19.188  0.00  0.00    +0.000 C 
BRANCH  30  31
ATOM     31  C   UNL     1      47.739   7.099  19.372  0.00  0.00    +0.000 C 
BRANCH  31  32
ATOM     32  C   UNL     1      49.194   7.140  19.820  0.00  0.00    +0.000 C 
ATOM     33  C   UNL     1      49.940   8.280  19.153  0.00  0.00    +0.000 C 
ENDBRANCH  31  32
ENDBRANCH  30  31
ENDBRANCH  29  30
ENDBRANCH  28  29
ENDBRANCH  27  28
ENDBRANCH  26  27
ENDBRANCH  17  19
BRANCH  16  15
ATOM     15  C   UNL     1      48.986   7.918  13.277  0.00  0.00    +0.000 C 
BRANCH  15  14
ATOM     11  C   UNL     1      45.499   5.333  13.290  0.00  0.00    +0.000 A 
ATOM     12  C   UNL     1      46.735   4.866  13.762  0.00  0.00    +0.000 A 
ATOM     13  C   UNL     1      47.861   5.695  13.765  0.00  0.00    +0.000 A 
ATOM     14  C   UNL     1      47.782   7.006  13.272  0.00  0.00    +0.000 A 
ATOM     35  C   UNL     1      46.558   7.456  12.762  0.00  0.00    +0.000 A 
ATOM     36  C   UNL     1      45.424   6.636  12.787  0.00  0.00    +0.000 A 
BRANCH  11  10
ATOM     10  C   UNL     1      44.271   4.453  13.323  0.00  0.00    +0.000 C 
BRANCH  10   9
ATOM      9  N   UNL     1      43.134   5.146  12.727  0.00  0.00    +0.000 NA
ATOM     37  H   UNL     1      42.323   5.054  13.334  0.00  0.00    +0.000 HD
BRANCH   9   8
ATOM      8  C   UNL     1      42.820   4.616  11.408  0.00  0.00    +0.000 C 
BRANCH   8   7
ATOM      7  C   UNL     1      43.434   3.226  11.287  0.00  0.00    +0.000 C 
BRANCH   7   6
ATOM      6  C   UNL     1      44.290   3.135  10.030  0.00  0.00    +0.000 C 
BRANCH   6   5
ATOM      5  C   UNL     1      44.668   4.524   9.532  0.00  0.00    +0.000 C 
BRANCH   5   4
ATOM      4  C   UNL     1      45.739   4.426   8.452  0.00  0.00    +0.000 C 
BRANCH   4   3
ATOM      3  C   UNL     1      45.630   3.104   7.703  0.00  0.00    +0.000 C 
BRANCH   3   2
ATOM      1  C   UNL     1      47.142   1.150   7.295  0.00  0.00    +0.000 C 
ATOM      2  C   UNL     1      46.993   2.655   7.188  0.00  0.00    +0.000 C 
ENDBRANCH   3   2
ENDBRANCH   4   3
ENDBRANCH   5   4
ENDBRANCH   6   5
ENDBRANCH   7   6
ENDBRANCH   8   7
ENDBRANCH   9   8
ENDBRANCH  10   9
ENDBRANCH  11  10
ENDBRANCH  15  14
ENDBRANCH  16  15
TORSDOF 18
ENDMDL
MODEL 9
REMARK VINA RESULT:    -5.428      1.910      3.759
REMARK INTER + INTRA:         -14.194
REMARK INTER:                 -12.071
REMARK INTRA:                  -2.123
REMARK UNBOUND:                -3.055
REMARK  Name = 
REMARK  20 active torsions:
REMARK  status: ('A' for Active; 'I' for Inactive)
REMARK    1  A    between atoms: C_1  and  C_2
REMARK    2  A    between atoms: C_2  and  C_3
REMARK    3  A    between atoms: C_3  and  C_4
REMARK    4  A    between atoms: C_4  and  C_5
REMARK    5  A    between atoms: C_5  and  C_6
REMARK    6  A    between atoms: C_6  and  C_7
REMARK    7  A    between atoms: C_7  and  C_8
REMARK    8  A    between atoms: C_8  and  N_9
REMARK    9  A    between atoms: N_9  and  C_10
REMARK   10  A    between atoms: C_10  and  C_11
REMARK   11  A    between atoms: C_14  and  C_15
REMARK   12  A    between atoms: C_15  and  N_16
REMARK   13  A    between atoms: C_17  and  C_19
REMARK   14  A    between atoms: C_26  and  O_27
REMARK   15  A    between atoms: O_27  and  C_28
REMARK   16  A    between atoms: C_28  and  C_29
REMARK   17  A    between atoms: C_29  and  C_30
REMARK   18  A    between atoms: C_30  and  C_31
REMARK   19  A    between atoms: C_31  and  C_32
REMARK   20  A    between atoms: C_32  and  C_33
REMARK                            x       y       z     vdW  Elec       q    Type
REMARK                         _______ _______ _______ _____ _____    ______ ____
ROOT
ATOM     16  N   UNL     1      48.095   6.716  15.640  0.00  0.00    +0.000 N 
ATOM     17  C   UNL     1      48.921   6.235  16.620  0.00  0.00    +0.000 C 
ATOM     18  O   UNL     1      49.966   5.643  16.362  0.00  0.00    +0.000 OA
ATOM     38  H   UNL     1      47.241   7.191  15.900  0.00  0.00    +0.000 HD
ENDROOT
BRANCH  17  19
ATOM     19  C   UNL     1      48.520   6.501  18.012  0.00  0.00    +0.000 A 
ATOM     20  C   UNL     1      48.220   5.449  18.866  0.00  0.00    +0.000 A 
ATOM     21  S   UNL     1      47.801   5.947  20.441  0.00  0.00    +0.000 S 
ATOM     22  C   UNL     1      47.963   7.586  20.022  0.00  0.00    +0.000 A 
ATOM     23  N   UNL     1      47.715   8.546  20.931  0.00  0.00    +0.000 NA
ATOM     24  C   UNL     1      47.865   9.775  20.429  0.00  0.00    +0.000 A 
ATOM     25  N   UNL     1      48.230  10.107  19.191  0.00  0.00    +0.000 NA
ATOM     26  C   UNL     1      48.487   9.113  18.325  0.00  0.00    +0.000 A 
ATOM     34  C   UNL     1      48.354   7.768  18.704  0.00  0.00    +0.000 A 
BRANCH  26  27
ATOM     27  O   UNL     1      48.811   9.410  17.031  0.00  0.00    +0.000 OA
BRANCH  27  28
ATOM     28  C   UNL     1      48.676  10.776  16.644  0.00  0.00    +0.000 C 
BRANCH  28  29
ATOM     29  C   UNL     1      49.592  11.035  15.461  0.00  0.00    +0.000 C 
BRANCH  29  30
ATOM     30  C   UNL     1      49.745   9.800  14.586  0.00  0.00    +0.000 C 
BRANCH  30  31
ATOM     31  C   UNL     1      50.060  10.187  13.147  0.00  0.00    +0.000 C 
BRANCH  31  32
ATOM     32  C   UNL     1      48.998   9.621  12.213  0.00  0.00    +0.000 C 
ATOM     33  C   UNL     1      49.537   8.448  11.418  0.00  0.00    +0.000 C 
ENDBRANCH  31  32
ENDBRANCH  30  31
ENDBRANCH  29  30
ENDBRANCH  28  29
ENDBRANCH  27  28
ENDBRANCH  26  27
ENDBRANCH  17  19
BRANCH  16  15
ATOM     15  C   UNL     1      48.358   6.545  14.233  0.00  0.00    +0.000 C 
BRANCH  15  14
ATOM     11  C   UNL     1      44.881   5.048  12.110  0.00  0.00    +0.000 A 
ATOM     12  C   UNL     1      45.681   4.181  12.869  0.00  0.00    +0.000 A 
ATOM     13  C   UNL     1      46.800   4.658  13.559  0.00  0.00    +0.000 A 
ATOM     14  C   UNL     1      47.159   6.012  13.486  0.00  0.00    +0.000 A 
ATOM     35  C   UNL     1      46.384   6.868  12.693  0.00  0.00    +0.000 A 
ATOM     36  C   UNL     1      45.247   6.396  12.027  0.00  0.00    +0.000 A 
BRANCH  11  10
ATOM     10  C   UNL     1      43.648   4.545  11.396  0.00  0.00    +0.000 C 
BRANCH  10   9
ATOM      9  N   UNL     1      43.692   3.092  11.270  0.00  0.00    +0.000 NA
ATOM     37  H   UNL     1      44.280   2.705  12.003  0.00  0.00    +0.000 HD
BRANCH   9   8
ATOM      8  C   UNL     1      44.201   2.686   9.967  0.00  0.00    +0.000 C 
BRANCH   8   7
ATOM      7  C   UNL     1      44.428   3.937   9.127  0.00  0.00    +0.000 C 
BRANCH   7   6
ATOM      6  C   UNL     1      44.919   3.556   7.736  0.00  0.00    +0.000 C 
BRANCH   6   5
ATOM      5  C   UNL     1      46.405   3.855   7.586  0.00  0.00    +0.000 C 
BRANCH   5   4
ATOM      4  C   UNL     1      46.867   3.547   6.167  0.00  0.00    +0.000 C 
BRANCH   4   3
ATOM      3  C   UNL     1      46.997   2.043   5.958  0.00  0.00    +0.000 C 
BRANCH   3   2
ATOM      1  C   UNL     1      46.768   0.178   7.614  0.00  0.00    +0.000 C 
ATOM      2  C   UNL     1      47.600   1.372   7.187  0.00  0.00    +0.000 C 
ENDBRANCH   3   2
ENDBRANCH   4   3
ENDBRANCH   5   4
ENDBRANCH   6   5
ENDBRANCH   7   6
ENDBRANCH   8   7
ENDBRANCH   9   8
ENDBRANCH  10   9
ENDBRANCH  11  10
ENDBRANCH  15  14
ENDBRANCH  16  15
TORSDOF 18
ENDMDL
