MODEL 1
REMARK VINA RESULT:    -6.854      0.000      0.000
REMARK INTER + INTRA:         -10.063
REMARK INTER:                  -9.057
REMARK INTRA:                  -1.006
REMARK UNBOUND:                -1.006
REMARK  Name = 
REMARK  6 active torsions:
REMARK  status: ('A' for Active; 'I' for Inactive)
REMARK    1  A    between atoms: N_1  and  C_2
REMARK    2  A    between atoms: N_5  and  C_6
REMARK    3  A    between atoms: C_6  and  C_7
REMARK    4  A    between atoms: C_10  and  C_11
REMARK    5  A    between atoms: C_11  and  N_12
REMARK    6  A    between atoms: C_13  and  C_15
REMARK                            x       y       z     vdW  Elec       q    Type
REMARK                         _______ _______ _______ _____ _____    ______ ____
ROOT
ATOM      7  C   UNL     1      46.597   6.907  12.423  0.00  0.00    +0.000 A 
ATOM      8  C   UNL     1      47.762   6.203  12.759  0.00  0.00    +0.000 A 
ATOM      9  C   UNL     1      48.596   6.647  13.786  0.00  0.00    +0.000 A 
ATOM     10  C   UNL     1      48.295   7.823  14.481  0.00  0.00    +0.000 A 
ATOM     25  C   UNL     1      47.188   8.582  14.079  0.00  0.00    +0.000 A 
ATOM     26  C   UNL     1      46.335   8.119  13.071  0.00  0.00    +0.000 A 
ENDROOT
BRANCH   7   6
ATOM      6  C   UNL     1      45.619   6.333  11.410  0.00  0.00    +0.000 C 
BRANCH   6   5
ATOM      2  C   UNL     1      44.227   2.912  11.032  0.00  0.00    +0.000 C 
ATOM      3  C   UNL     1      45.167   3.350  12.158  0.00  0.00    +0.000 C 
ATOM      4  C   UNL     1      44.644   4.589  12.891  0.00  0.00    +0.000 C 
ATOM      5  N   UNL     1      44.405   5.740  12.004  0.00  0.00    +0.000 NA
ATOM     27  C   UNL     1      43.426   5.342  10.973  0.00  0.00    +0.000 C 
ATOM     28  C   UNL     1      43.843   4.111  10.156  0.00  0.00    +0.000 C 
BRANCH   2   1
ATOM      1  N   UNL     1      43.035   2.265  11.589  0.00  0.00    +0.000 NA
ATOM     29  H   UNL     1      42.506   2.940  12.140  0.00  0.00    +0.000 HD
ATOM     30  H   UNL     1      43.314   1.527  12.235  0.00  0.00    +0.000 HD
ENDBRANCH   2   1
ENDBRANCH   6   5
ENDBRANCH   7   6
BRANCH  10  11
ATOM     11  C   UNL     1      49.143   8.253  15.645  0.00  0.00    +0.000 C 
BRANCH  11  12
ATOM     12  N   UNL     1      50.090   7.236  16.021  0.00  0.00    +0.000 N 
ATOM     13  C   UNL     1      49.887   6.482  17.148  0.00  0.00    +0.000 C 
ATOM     14  O   UNL     1      48.878   6.606  17.839  0.00  0.00    +0.000 OA
ATOM     31  H   UNL     1      51.010   7.275  15.594  0.00  0.00    +0.000 HD
BRANCH  13  15
ATOM     15  C   UNL     1      50.905   5.473  17.462  0.00  0.00    +0.000 A 
ATOM     16  C   UNL     1      52.159   5.883  17.892  0.00  0.00    +0.000 A 
ATOM     17  S   UNL     1      53.217   4.594  18.246  0.00  0.00    +0.000 S 
ATOM     18  C   UNL     1      52.049   3.443  17.789  0.00  0.00    +0.000 A 
ATOM     19  N   UNL     1      52.331   2.111  17.826  0.00  0.00    +0.000 NA
ATOM     20  C   UNL     1      51.368   1.353  17.422  0.00  0.00    +0.000 A 
ATOM     21  N   UNL     1      50.144   1.802  16.995  0.00  0.00    +0.000 N 
ATOM     22  C   UNL     1      49.803   3.133  16.973  0.00  0.00    +0.000 A 
ATOM     23  O   UNL     1      48.683   3.498  16.633  0.00  0.00    +0.000 OA
ATOM     24  C   UNL     1      50.862   4.030  17.401  0.00  0.00    +0.000 A 
ATOM     32  H   UNL     1      49.429   1.152  16.702  0.00  0.00    +0.000 HD
ENDBRANCH  13  15
ENDBRANCH  11  12
ENDBRANCH  10  11
TORSDOF 6
ENDMDL
MODEL 2
REMARK VINA RESULT:    -6.778      1.907      2.674
REMARK INTER + INTRA:          -9.963
REMARK INTER:                  -8.990
REMARK INTRA:                  -0.973
REMARK UNBOUND:                -1.006
REMARK  Name = 
REMARK  6 active torsions:
REMARK  status: ('A' for Active; 'I' for Inactive)
REMARK    1  A    between atoms: N_1  and  C_2
REMARK    2  A    between atoms: N_5  and  C_6
REMARK    3  A    between atoms: C_6  and  C_7
REMARK    4  A    between atoms: C_10  and  C_11
REMARK    5  A    between atoms: C_11  and  N_12
REMARK    6  A    between atoms: C_13  and  C_15
REMARK                            x       y       z     vdW  Elec       q    Type
REMARK                         _______ _______ _______ _____ _____    ______ ____
ROOT
ATOM      7  C   UNL     1      47.187   4.752  14.624  0.00  0.00    +0.000 A 
ATOM      8  C   UNL     1      47.911   5.938  14.437  0.00  0.00    +0.000 A 
ATOM      9  C   UNL     1      48.683   6.475  15.467  0.00  0.00    +0.000 A 
ATOM     10  C   UNL     1      48.726   5.851  16.718  0.00  0.00    +0.000 A 
ATOM     25  C   UNL     1      47.924   4.723  16.938  0.00  0.00    +0.000 A 
ATOM     26  C   UNL     1      47.175   4.167  15.896  0.00  0.00    +0.000 A 
ENDROOT
BRANCH   7   6
ATOM      6  C   UNL     1      46.474   4.095  13.453  0.00  0.00    +0.000 C 
BRANCH   6   5
ATOM      2  C   UNL     1      44.712   4.710  10.244  0.00  0.00    +0.000 C 
ATOM      3  C   UNL     1      44.627   3.411  11.049  0.00  0.00    +0.000 C 
ATOM      4  C   UNL     1      44.217   3.665  12.503  0.00  0.00    +0.000 C 
ATOM      5  N   UNL     1      45.108   4.599  13.211  0.00  0.00    +0.000 NA
ATOM     27  C   UNL     1      45.116   5.883  12.483  0.00  0.00    +0.000 C 
ATOM     28  C   UNL     1      45.524   5.764  11.008  0.00  0.00    +0.000 C 
BRANCH   2   1
ATOM      1  N   UNL     1      43.367   5.205   9.936  0.00  0.00    +0.000 NA
ATOM     29  H   UNL     1      43.428   5.947   9.237  0.00  0.00    +0.000 HD
ATOM     30  H   UNL     1      42.958   5.632  10.767  0.00  0.00    +0.000 HD
ENDBRANCH   2   1
ENDBRANCH   6   5
ENDBRANCH   7   6
BRANCH  10  11
ATOM     11  C   UNL     1      49.628   6.379  17.798  0.00  0.00    +0.000 C 
BRANCH  11  12
ATOM     12  N   UNL     1      50.592   5.397  18.217  0.00  0.00    +0.000 N 
ATOM     13  C   UNL     1      51.791   5.279  17.561  0.00  0.00    +0.000 C 
ATOM     14  O   UNL     1      52.105   6.030  16.641  0.00  0.00    +0.000 OA
ATOM     31  H   UNL     1      50.264   4.645  18.815  0.00  0.00    +0.000 HD
BRANCH  13  15
ATOM     15  C   UNL     1      52.713   4.246  18.049  0.00  0.00    +0.000 A 
ATOM     16  C   UNL     1      53.899   4.627  18.661  0.00  0.00    +0.000 A 
ATOM     17  S   UNL     1      54.844   3.315  19.199  0.00  0.00    +0.000 S 
ATOM     18  C   UNL     1      53.723   2.190  18.586  0.00  0.00    +0.000 A 
ATOM     19  N   UNL     1      53.950   0.851  18.691  0.00  0.00    +0.000 NA
ATOM     20  C   UNL     1      53.035   0.114  18.156  0.00  0.00    +0.000 A 
ATOM     21  N   UNL     1      51.909   0.591  17.536  0.00  0.00    +0.000 N 
ATOM     22  C   UNL     1      51.622   1.931  17.437  0.00  0.00    +0.000 A 
ATOM     23  O   UNL     1      50.580   2.322  16.920  0.00  0.00    +0.000 OA
ATOM     24  C   UNL     1      52.631   2.804  18.007  0.00  0.00    +0.000 A 
ATOM     32  H   UNL     1      51.227  -0.043  17.147  0.00  0.00    +0.000 HD
ENDBRANCH  13  15
ENDBRANCH  11  12
ENDBRANCH  10  11
TORSDOF 6
ENDMDL
MODEL 3
REMARK VINA RESULT:    -6.660      3.619      8.185
REMARK INTER + INTRA:          -9.808
REMARK INTER:                  -8.730
REMARK INTRA:                  -1.077
REMARK UNBOUND:                -1.006
REMARK  Name = 
REMARK  6 active torsions:
REMARK  status: ('A' for Active; 'I' for Inactive)
REMARK    1  A    between atoms: N_1  and  C_2
REMARK    2  A    between atoms: N_5  and  C_6
REMARK    3  A    between atoms: C_6  and  C_7
REMARK    4  A    between atoms: C_10  and  C_11
REMARK    5  A    between atoms: C_11  and  N_12
REMARK    6  A    between atoms: C_13  and  C_15
REMARK                            x       y       z     vdW  Elec       q    Type
REMARK                         _______ _______ _______ _____ _____    ______ ____
ROOT
ATOM      7  C   UNL     1      49.160   7.876  16.102  0.00  0.00    +0.000 A 
ATOM      8  C   UNL     1      48.198   8.811  15.695  0.00  0.00    +0.000 A 
ATOM      9  C   UNL     1      47.715   8.818  14.386  0.00  0.00    +0.000 A 
ATOM     10  C   UNL     1      48.206   7.904  13.447  0.00  0.00    +0.000 A 
ATOM     25  C   UNL     1      49.240   7.037  13.824  0.00  0.00    +0.000 A 
ATOM     26  C   UNL     1      49.701   7.009  15.145  0.00  0.00    +0.000 A 
ENDROOT
BRANCH   7   6
ATOM      6  C   UNL     1      49.565   7.779  17.564  0.00  0.00    +0.000 C 
BRANCH   6   5
ATOM      2  C   UNL     1      49.625   4.699  19.636  0.00  0.00    +0.000 C 
ATOM      3  C   UNL     1      50.006   6.094  20.137  0.00  0.00    +0.000 C 
ATOM      4  C   UNL     1      48.901   7.120  19.869  0.00  0.00    +0.000 C 
ATOM      5  N   UNL     1      48.524   7.218  18.449  0.00  0.00    +0.000 NA
ATOM     27  C   UNL     1      48.069   5.891  17.991  0.00  0.00    +0.000 C 
ATOM     28  C   UNL     1      49.098   4.771  18.197  0.00  0.00    +0.000 C 
BRANCH   2   1
ATOM      1  N   UNL     1      48.635   4.090  20.528  0.00  0.00    +0.000 NA
ATOM     29  H   UNL     1      48.888   3.118  20.707  0.00  0.00    +0.000 HD
ATOM     30  H   UNL     1      47.725   4.067  20.069  0.00  0.00    +0.000 HD
ENDBRANCH   2   1
ENDBRANCH   6   5
ENDBRANCH   7   6
BRANCH  10  11
ATOM     11  C   UNL     1      47.622   7.852  12.063  0.00  0.00    +0.000 C 
BRANCH  11  12
ATOM     12  N   UNL     1      46.940   6.609  11.817  0.00  0.00    +0.000 N 
ATOM     13  C   UNL     1      45.574   6.537  11.912  0.00  0.00    +0.000 C 
ATOM     14  O   UNL     1      44.886   7.526  12.154  0.00  0.00    +0.000 OA
ATOM     31  H   UNL     1      47.496   5.761  11.834  0.00  0.00    +0.000 HD
BRANCH  13  15
ATOM     15  C   UNL     1      44.960   5.229  11.652  0.00  0.00    +0.000 A 
ATOM     16  C   UNL     1      44.268   4.588  12.669  0.00  0.00    +0.000 A 
ATOM     17  S   UNL     1      43.589   3.097  12.202  0.00  0.00    +0.000 S 
ATOM     18  C   UNL     1      44.241   3.233  10.635  0.00  0.00    +0.000 A 
ATOM     19  N   UNL     1      44.054   2.248   9.714  0.00  0.00    +0.000 NA
ATOM     20  C   UNL     1      44.629   2.465   8.579  0.00  0.00    +0.000 A 
ATOM     21  N   UNL     1      45.366   3.581   8.276  0.00  0.00    +0.000 N 
ATOM     22  C   UNL     1      45.553   4.616   9.162  0.00  0.00    +0.000 A 
ATOM     23  O   UNL     1      46.176   5.623   8.842  0.00  0.00    +0.000 OA
ATOM     24  C   UNL     1      44.940   4.410  10.462  0.00  0.00    +0.000 A 
ATOM     32  H   UNL     1      45.782   3.694   7.363  0.00  0.00    +0.000 HD
ENDBRANCH  13  15
ENDBRANCH  11  12
ENDBRANCH  10  11
TORSDOF 6
ENDMDL
MODEL 4
REMARK VINA RESULT:    -6.602      3.031      9.168
REMARK INTER + INTRA:          -9.731
REMARK INTER:                  -9.692
REMARK INTRA:                  -0.039
REMARK UNBOUND:                -1.006
REMARK  Name = 
REMARK  6 active torsions:
REMARK  status: ('A' for Active; 'I' for Inactive)
REMARK    1  A    between atoms: N_1  and  C_2
REMARK    2  A    between atoms: N_5  and  C_6
REMARK    3  A    between atoms: C_6  and  C_7
REMARK    4  A    between atoms: C_10  and  C_11
REMARK    5  A    between atoms: C_11  and  N_12
REMARK    6  A    between atoms: C_13  and  C_15
REMARK                            x       y       z     vdW  Elec       q    Type
REMARK                         _______ _______ _______ _____ _____    ______ ____
ROOT
ATOM      7  C   UNL     1      51.375   3.331  17.563  0.00  0.00    +0.000 A 
ATOM      8  C   UNL     1      50.713   4.567  17.604  0.00  0.00    +0.000 A 
ATOM      9  C   UNL     1      49.340   4.651  17.375  0.00  0.00    +0.000 A 
ATOM     10  C   UNL     1      48.602   3.502  17.073  0.00  0.00    +0.000 A 
ATOM     25  C   UNL     1      49.277   2.282  16.931  0.00  0.00    +0.000 A 
ATOM     26  C   UNL     1      50.649   2.193  17.192  0.00  0.00    +0.000 A 
ENDROOT
BRANCH   7   6
ATOM      6  C   UNL     1      52.838   3.231  17.963  0.00  0.00    +0.000 C 
BRANCH   6   5
ATOM      2  C   UNL     1      55.410   0.589  17.537  0.00  0.00    +0.000 C 
ATOM      3  C   UNL     1      55.611   1.880  18.335  0.00  0.00    +0.000 C 
ATOM      4  C   UNL     1      54.518   2.077  19.388  0.00  0.00    +0.000 C 
ATOM      5  N   UNL     1      53.155   2.078  18.829  0.00  0.00    +0.000 NA
ATOM     27  C   UNL     1      52.931   0.794  18.138  0.00  0.00    +0.000 C 
ATOM     28  C   UNL     1      53.961   0.483  17.043  0.00  0.00    +0.000 C 
BRANCH   2   1
ATOM      1  N   UNL     1      55.775  -0.574  18.351  0.00  0.00    +0.000 NA
ATOM     29  H   UNL     1      55.740  -1.417  17.777  0.00  0.00    +0.000 HD
ATOM     30  H   UNL     1      55.086  -0.706  19.091  0.00  0.00    +0.000 HD
ENDBRANCH   2   1
ENDBRANCH   6   5
ENDBRANCH   7   6
BRANCH  10  11
ATOM     11  C   UNL     1      47.109   3.579  16.916  0.00  0.00    +0.000 C 
BRANCH  11  12
ATOM     12  N   UNL     1      46.726   4.523  15.899  0.00  0.00    +0.000 N 
ATOM     13  C   UNL     1      46.849   4.200  14.572  0.00  0.00    +0.000 C 
ATOM     14  O   UNL     1      47.232   3.092  14.206  0.00  0.00    +0.000 OA
ATOM     31  H   UNL     1      46.621   5.493  16.179  0.00  0.00    +0.000 HD
BRANCH  13  15
ATOM     15  C   UNL     1      46.443   5.224  13.602  0.00  0.00    +0.000 A 
ATOM     16  C   UNL     1      47.337   6.228  13.257  0.00  0.00    +0.000 A 
ATOM     17  S   UNL     1      46.729   7.318  12.097  0.00  0.00    +0.000 S 
ATOM     18  C   UNL     1      45.229   6.514  12.053  0.00  0.00    +0.000 A 
ATOM     19  N   UNL     1      44.218   6.968  11.262  0.00  0.00    +0.000 NA
ATOM     20  C   UNL     1      43.127   6.284  11.350  0.00  0.00    +0.000 A 
ATOM     21  N   UNL     1      42.956   5.182  12.148  0.00  0.00    +0.000 N 
ATOM     22  C   UNL     1      43.958   4.668  12.936  0.00  0.00    +0.000 A 
ATOM     23  O   UNL     1      43.787   3.651  13.600  0.00  0.00    +0.000 OA
ATOM     24  C   UNL     1      45.202   5.415  12.887  0.00  0.00    +0.000 A 
ATOM     32  H   UNL     1      42.077   4.685  12.161  0.00  0.00    +0.000 HD
ENDBRANCH  13  15
ENDBRANCH  11  12
ENDBRANCH  10  11
TORSDOF 6
ENDMDL
MODEL 5
REMARK VINA RESULT:    -6.579      2.113      2.334
REMARK INTER + INTRA:          -9.700
REMARK INTER:                  -8.441
REMARK INTRA:                  -1.259
REMARK UNBOUND:                -1.006
REMARK  Name = 
REMARK  6 active torsions:
REMARK  status: ('A' for Active; 'I' for Inactive)
REMARK    1  A    between atoms: N_1  and  C_2
REMARK    2  A    between atoms: N_5  and  C_6
REMARK    3  A    between atoms: C_6  and  C_7
REMARK    4  A    between atoms: C_10  and  C_11
REMARK    5  A    between atoms: C_11  and  N_12
REMARK    6  A    between atoms: C_13  and  C_15
REMARK                            x       y       z     vdW  Elec       q    Type
REMARK                         _______ _______ _______ _____ _____    ______ ____
ROOT
ATOM      7  C   UNL     1      46.159   7.249  11.820  0.00  0.00    +0.000 A 
ATOM      8  C   UNL     1      47.492   6.819  11.757  0.00  0.00    +0.000 A 
ATOM      9  C   UNL     1      48.468   7.389  12.574  0.00  0.00    +0.000 A 
ATOM     10  C   UNL     1      48.136   8.424  13.455  0.00  0.00    +0.000 A 
ATOM     25  C   UNL     1      46.827   8.924  13.447  0.00  0.00    +0.000 A 
ATOM     26  C   UNL     1      45.842   8.330  12.650  0.00  0.00    +0.000 A 
ENDROOT
BRANCH   7   6
ATOM      6  C   UNL     1      45.080   6.518  11.038  0.00  0.00    +0.000 C 
BRANCH   6   5
ATOM      2  C   UNL     1      44.475   2.900  11.607  0.00  0.00    +0.000 C 
ATOM      3  C   UNL     1      45.351   3.787  12.496  0.00  0.00    +0.000 C 
ATOM      4  C   UNL     1      44.602   5.033  12.976  0.00  0.00    +0.000 C 
ATOM      5  N   UNL     1      44.063   5.854  11.878  0.00  0.00    +0.000 NA
ATOM     27  C   UNL     1      43.146   5.021  11.076  0.00  0.00    +0.000 C 
ATOM     28  C   UNL     1      43.785   3.739  10.524  0.00  0.00    +0.000 C 
BRANCH   2   1
ATOM      1  N   UNL     1      43.491   2.180  12.421  0.00  0.00    +0.000 NA
ATOM     29  H   UNL     1      43.957   1.438  12.944  0.00  0.00    +0.000 HD
ATOM     30  H   UNL     1      42.814   1.718  11.815  0.00  0.00    +0.000 HD
ENDBRANCH   2   1
ENDBRANCH   6   5
ENDBRANCH   7   6
BRANCH  10  11
ATOM     11  C   UNL     1      49.167   8.976  14.399  0.00  0.00    +0.000 C 
BRANCH  11  12
ATOM     12  N   UNL     1      49.312   8.155  15.572  0.00  0.00    +0.000 N 
ATOM     13  C   UNL     1      48.633   8.465  16.723  0.00  0.00    +0.000 C 
ATOM     14  O   UNL     1      47.847   9.407  16.780  0.00  0.00    +0.000 OA
ATOM     31  H   UNL     1      50.105   7.523  15.604  0.00  0.00    +0.000 HD
BRANCH  13  15
ATOM     15  C   UNL     1      48.845   7.580  17.875  0.00  0.00    +0.000 A 
ATOM     16  C   UNL     1      49.176   8.130  19.104  0.00  0.00    +0.000 A 
ATOM     17  S   UNL     1      49.356   6.976  20.345  0.00  0.00    +0.000 S 
ATOM     18  C   UNL     1      49.047   5.694  19.268  0.00  0.00    +0.000 A 
ATOM     19  N   UNL     1      49.080   4.402  19.695  0.00  0.00    +0.000 NA
ATOM     20  C   UNL     1      48.858   3.530  18.768  0.00  0.00    +0.000 A 
ATOM     21  N   UNL     1      48.597   3.833  17.456  0.00  0.00    +0.000 N 
ATOM     22  C   UNL     1      48.520   5.122  16.988  0.00  0.00    +0.000 A 
ATOM     23  O   UNL     1      48.235   5.359  15.819  0.00  0.00    +0.000 OA
ATOM     24  C   UNL     1      48.781   6.140  17.990  0.00  0.00    +0.000 A 
ATOM     32  H   UNL     1      48.422   3.101  16.783  0.00  0.00    +0.000 HD
ENDBRANCH  13  15
ENDBRANCH  11  12
ENDBRANCH  10  11
TORSDOF 6
ENDMDL
MODEL 6
REMARK VINA RESULT:    -6.535      3.248      9.410
REMARK INTER + INTRA:          -9.643
REMARK INTER:                  -8.771
REMARK INTRA:                  -0.872
REMARK UNBOUND:                -1.006
REMARK  Name = 
REMARK  6 active torsions:
REMARK  status: ('A' for Active; 'I' for Inactive)
REMARK    1  A    between atoms: N_1  and  C_2
REMARK    2  A    between atoms: N_5  and  C_6
REMARK    3  A    between atoms: C_6  and  C_7
REMARK    4  A    between atoms: C_10  and  C_11
REMARK    5  A    between atoms: C_11  and  N_12
REMARK    6  A    between atoms: C_13  and  C_15
REMARK                            x       y       z     vdW  Elec       q    Type
REMARK                         _______ _______ _______ _____ _____    ______ ____
ROOT
ATOM      7  C   UNL     1      51.393   4.506  17.605  0.00  0.00    +0.000 A 
ATOM      8  C   UNL     1      50.951   3.176  17.645  0.00  0.00    +0.000 A 
ATOM      9  C   UNL     1      49.624   2.853  17.364  0.00  0.00    +0.000 A 
ATOM     10  C   UNL     1      48.700   3.860  17.063  0.00  0.00    +0.000 A 
ATOM     25  C   UNL     1      49.114   5.197  17.123  0.00  0.00    +0.000 A 
ATOM     26  C   UNL     1      50.453   5.518  17.373  0.00  0.00    +0.000 A 
ENDROOT
BRANCH   7   6
ATOM      6  C   UNL     1      52.869   4.829  17.762  0.00  0.00    +0.000 C 
BRANCH   6   5
ATOM      2  C   UNL     1      54.894   7.202  19.776  0.00  0.00    +0.000 C 
ATOM      3  C   UNL     1      53.365   7.122  19.801  0.00  0.00    +0.000 C 
ATOM      4  C   UNL     1      52.871   5.702  20.092  0.00  0.00    +0.000 C 
ATOM      5  N   UNL     1      53.379   4.697  19.142  0.00  0.00    +0.000 NA
ATOM     27  C   UNL     1      54.854   4.711  19.187  0.00  0.00    +0.000 C 
ATOM     28  C   UNL     1      55.476   6.085  18.900  0.00  0.00    +0.000 C 
BRANCH   2   1
ATOM      1  N   UNL     1      55.428   7.133  21.139  0.00  0.00    +0.000 NA
ATOM     29  H   UNL     1      56.371   6.742  21.117  0.00  0.00    +0.000 HD
ATOM     30  H   UNL     1      54.868   6.490  21.697  0.00  0.00    +0.000 HD
ENDBRANCH   2   1
ENDBRANCH   6   5
ENDBRANCH   7   6
BRANCH  10  11
ATOM     11  C   UNL     1      47.293   3.505  16.672  0.00  0.00    +0.000 C 
BRANCH  11  12
ATOM     12  N   UNL     1      46.742   4.453  15.740  0.00  0.00    +0.000 N 
ATOM     13  C   UNL     1      46.749   4.187  14.395  0.00  0.00    +0.000 C 
ATOM     14  O   UNL     1      47.170   3.123  13.945  0.00  0.00    +0.000 OA
ATOM     31  H   UNL     1      46.597   5.402  16.070  0.00  0.00    +0.000 HD
BRANCH  13  15
ATOM     15  C   UNL     1      46.174   5.210  13.514  0.00  0.00    +0.000 A 
ATOM     16  C   UNL     1      46.890   6.372  13.263  0.00  0.00    +0.000 A 
ATOM     17  S   UNL     1      46.103   7.445  12.198  0.00  0.00    +0.000 S 
ATOM     18  C   UNL     1      44.753   6.415  12.076  0.00  0.00    +0.000 A 
ATOM     19  N   UNL     1      43.675   6.764  11.322  0.00  0.00    +0.000 NA
ATOM     20  C   UNL     1      42.710   5.906  11.344  0.00  0.00    +0.000 A 
ATOM     21  N   UNL     1      42.728   4.726  12.042  0.00  0.00    +0.000 N 
ATOM     22  C   UNL     1      43.807   4.317  12.789  0.00  0.00    +0.000 A 
ATOM     23  O   UNL     1      43.809   3.232  13.361  0.00  0.00    +0.000 OA
ATOM     24  C   UNL     1      44.912   5.257  12.811  0.00  0.00    +0.000 A 
ATOM     32  H   UNL     1      41.942   4.094  12.007  0.00  0.00    +0.000 HD
ENDBRANCH  13  15
ENDBRANCH  11  12
ENDBRANCH  10  11
TORSDOF 6
ENDMDL
MODEL 7
REMARK VINA RESULT:    -6.409      3.625      7.915
REMARK INTER + INTRA:          -9.475
REMARK INTER:                  -8.519
REMARK INTRA:                  -0.956
REMARK UNBOUND:                -1.006
REMARK  Name = 
REMARK  6 active torsions:
REMARK  status: ('A' for Active; 'I' for Inactive)
REMARK    1  A    between atoms: N_1  and  C_2
REMARK    2  A    between atoms: N_5  and  C_6
REMARK    3  A    between atoms: C_6  and  C_7
REMARK    4  A    between atoms: C_10  and  C_11
REMARK    5  A    between atoms: C_11  and  N_12
REMARK    6  A    between atoms: C_13  and  C_15
REMARK                            x       y       z     vdW  Elec       q    Type
REMARK                         _______ _______ _______ _____ _____    ______ ____
ROOT
ATOM      7  C   UNL     1      49.072   7.643  16.312  0.00  0.00    +0.000 A 
ATOM      8  C   UNL     1      49.418   6.688  15.346  0.00  0.00    +0.000 A 
ATOM      9  C   UNL     1      49.072   6.866  14.006  0.00  0.00    +0.000 A 
ATOM     10  C   UNL     1      48.348   7.994  13.607  0.00  0.00    +0.000 A 
ATOM     25  C   UNL     1      47.912   8.899  14.585  0.00  0.00    +0.000 A 
ATOM     26  C   UNL     1      48.287   8.736  15.923  0.00  0.00    +0.000 A 
ENDROOT
BRANCH   7   6
ATOM      6  C   UNL     1      49.584   7.514  17.736  0.00  0.00    +0.000 C 
BRANCH   6   5
ATOM      2  C   UNL     1      49.380   4.446  19.817  0.00  0.00    +0.000 C 
ATOM      3  C   UNL     1      50.009   5.766  20.270  0.00  0.00    +0.000 C 
ATOM      4  C   UNL     1      49.048   6.946  20.098  0.00  0.00    +0.000 C 
ATOM      5  N   UNL     1      48.559   7.109  18.719  0.00  0.00    +0.000 NA
ATOM     27  C   UNL     1      47.871   5.867  18.315  0.00  0.00    +0.000 C 
ATOM     28  C   UNL     1      48.737   4.605  18.433  0.00  0.00    +0.000 C 
BRANCH   2   1
ATOM      1  N   UNL     1      48.397   3.986  20.803  0.00  0.00    +0.000 NA
ATOM     29  H   UNL     1      48.635   3.041  21.107  0.00  0.00    +0.000 HD
ATOM     30  H   UNL     1      47.478   3.921  20.368  0.00  0.00    +0.000 HD
ENDBRANCH   2   1
ENDBRANCH   6   5
ENDBRANCH   7   6
BRANCH  10  11
ATOM     11  C   UNL     1      48.055   8.232  12.152  0.00  0.00    +0.000 C 
BRANCH  11  12
ATOM     12  N   UNL     1      47.455   7.080  11.533  0.00  0.00    +0.000 N 
ATOM     13  C   UNL     1      46.090   6.963  11.461  0.00  0.00    +0.000 C 
ATOM     14  O   UNL     1      45.340   7.847  11.868  0.00  0.00    +0.000 OA
ATOM     31  H   UNL     1      48.043   6.264  11.397  0.00  0.00    +0.000 HD
BRANCH  13  15
ATOM     15  C   UNL     1      45.562   5.752  10.820  0.00  0.00    +0.000 A 
ATOM     16  C   UNL     1      45.774   5.553   9.464  0.00  0.00    +0.000 A 
ATOM     17  S   UNL     1      45.128   4.089   8.878  0.00  0.00    +0.000 S 
ATOM     18  C   UNL     1      44.497   3.695  10.409  0.00  0.00    +0.000 A 
ATOM     19  N   UNL     1      43.783   2.551  10.595  0.00  0.00    +0.000 NA
ATOM     20  C   UNL     1      43.337   2.392  11.796  0.00  0.00    +0.000 A 
ATOM     21  N   UNL     1      43.548   3.267  12.831  0.00  0.00    +0.000 N 
ATOM     22  C   UNL     1      44.291   4.416  12.698  0.00  0.00    +0.000 A 
ATOM     23  O   UNL     1      44.503   5.151  13.657  0.00  0.00    +0.000 OA
ATOM     24  C   UNL     1      44.800   4.649  11.359  0.00  0.00    +0.000 A 
ATOM     32  H   UNL     1      43.179   3.077  13.751  0.00  0.00    +0.000 HD
ENDBRANCH  13  15
ENDBRANCH  11  12
ENDBRANCH  10  11
TORSDOF 6
ENDMDL
MODEL 8
REMARK VINA RESULT:    -6.261      5.353      8.744
REMARK INTER + INTRA:          -9.280
REMARK INTER:                  -8.311
REMARK INTRA:                  -0.969
REMARK UNBOUND:                -1.006
REMARK  Name = 
REMARK  6 active torsions:
REMARK  status: ('A' for Active; 'I' for Inactive)
REMARK    1  A    between atoms: N_1  and  C_2
REMARK    2  A    between atoms: N_5  and  C_6
REMARK    3  A    between atoms: C_6  and  C_7
REMARK    4  A    between atoms: C_10  and  C_11
REMARK    5  A    between atoms: C_11  and  N_12
REMARK    6  A    between atoms: C_13  and  C_15
REMARK                            x       y       z     vdW  Elec       q    Type
REMARK                         _______ _______ _______ _____ _____    ______ ____
ROOT
ATOM      7  C   UNL     1      50.841   8.551  11.748  0.00  0.00    +0.000 A 
ATOM      8  C   UNL     1      50.257   7.391  12.278  0.00  0.00    +0.000 A 
ATOM      9  C   UNL     1      48.872   7.282  12.409  0.00  0.00    +0.000 A 
ATOM     10  C   UNL     1      48.042   8.344  12.036  0.00  0.00    +0.000 A 
ATOM     25  C   UNL     1      48.627   9.541  11.603  0.00  0.00    +0.000 A 
ATOM     26  C   UNL     1      50.014   9.638  11.441  0.00  0.00    +0.000 A 
ENDROOT
BRANCH   7   6
ATOM      6  C   UNL     1      52.334   8.599  11.468  0.00  0.00    +0.000 C 
BRANCH   6   5
ATOM      2  C   UNL     1      54.775   6.462   9.664  0.00  0.00    +0.000 C 
ATOM      3  C   UNL     1      53.284   6.146   9.814  0.00  0.00    +0.000 C 
ATOM      4  C   UNL     1      52.404   7.307   9.344  0.00  0.00    +0.000 C 
ATOM      5  N   UNL     1      52.687   8.577  10.035  0.00  0.00    +0.000 NA
ATOM     27  C   UNL     1      54.103   8.927   9.811  0.00  0.00    +0.000 C 
ATOM     28  C   UNL     1      55.094   7.841  10.254  0.00  0.00    +0.000 C 
BRANCH   2   1
ATOM      1  N   UNL     1      55.170   6.390   8.254  0.00  0.00    +0.000 NA
ATOM     29  H   UNL     1      56.089   5.953   8.179  0.00  0.00    +0.000 HD
ATOM     30  H   UNL     1      55.271   7.331   7.876  0.00  0.00    +0.000 HD
ENDBRANCH   2   1
ENDBRANCH   6   5
ENDBRANCH   7   6
BRANCH  10  11
ATOM     11  C   UNL     1      46.547   8.192  12.093  0.00  0.00    +0.000 C 
BRANCH  11  12
ATOM     12  N   UNL     1      46.137   6.839  11.829  0.00  0.00    +0.000 N 
ATOM     13  C   UNL     1      44.836   6.562  11.494  0.00  0.00    +0.000 C 
ATOM     14  O   UNL     1      43.997   7.450  11.356  0.00  0.00    +0.000 OA
ATOM     31  H   UNL     1      46.749   6.095  12.147  0.00  0.00    +0.000 HD
BRANCH  13  15
ATOM     15  C   UNL     1      44.500   5.154  11.249  0.00  0.00    +0.000 A 
ATOM     16  C   UNL     1      43.733   4.466  12.178  0.00  0.00    +0.000 A 
ATOM     17  S   UNL     1      43.404   2.854  11.734  0.00  0.00    +0.000 S 
ATOM     18  C   UNL     1      44.320   3.005  10.308  0.00  0.00    +0.000 A 
ATOM     19  N   UNL     1      44.475   1.949   9.463  0.00  0.00    +0.000 NA
ATOM     20  C   UNL     1      45.220   2.193   8.437  0.00  0.00    +0.000 A 
ATOM     21  N   UNL     1      45.815   3.400   8.172  0.00  0.00    +0.000 N 
ATOM     22  C   UNL     1      45.659   4.503   8.977  0.00  0.00    +0.000 A 
ATOM     23  O   UNL     1      46.164   5.581   8.684  0.00  0.00    +0.000 OA
ATOM     24  C   UNL     1      44.844   4.273  10.156  0.00  0.00    +0.000 A 
ATOM     32  H   UNL     1      46.378   3.527   7.344  0.00  0.00    +0.000 HD
ENDBRANCH  13  15
ENDBRANCH  11  12
ENDBRANCH  10  11
TORSDOF 6
ENDMDL
MODEL 9
REMARK VINA RESULT:    -6.223      1.684      1.990
REMARK INTER + INTRA:          -9.230
REMARK INTER:                  -8.296
REMARK INTRA:                  -0.934
REMARK UNBOUND:                -1.006
REMARK  Name = 
REMARK  6 active torsions:
REMARK  status: ('A' for Active; 'I' for Inactive)
REMARK    1  A    between atoms: N_1  and  C_2
REMARK    2  A    between atoms: N_5  and  C_6
REMARK    3  A    between atoms: C_6  and  C_7
REMARK    4  A    between atoms: C_10  and  C_11
REMARK    5  A    between atoms: C_11  and  N_12
REMARK    6  A    between atoms: C_13  and  C_15
REMARK                            x       y       z     vdW  Elec       q    Type
REMARK                         _______ _______ _______ _____ _____    ______ ____
ROOT
ATOM      7  C   UNL     1      47.070   6.594  12.575  0.00  0.00    +0.000 A 
ATOM      8  C   UNL     1      47.533   6.290  13.863  0.00  0.00    +0.000 A 
ATOM      9  C   UNL     1      48.727   6.830  14.341  0.00  0.00    +0.000 A 
ATOM     10  C   UNL     1      49.499   7.667  13.529  0.00  0.00    +0.000 A 
ATOM     25  C   UNL     1      49.091   7.891  12.207  0.00  0.00    +0.000 A 
ATOM     26  C   UNL     1      47.878   7.375  11.739  0.00  0.00    +0.000 A 
ENDROOT
BRANCH   7   6
ATOM      6  C   UNL     1      45.698   6.125  12.122  0.00  0.00    +0.000 C 
BRANCH   6   5
ATOM      2  C   UNL     1      43.574   3.282  11.033  0.00  0.00    +0.000 C 
ATOM      3  C   UNL     1      45.101   3.245  11.119  0.00  0.00    +0.000 C 
ATOM      4  C   UNL     1      45.607   3.668  12.501  0.00  0.00    +0.000 C 
ATOM      5  N   UNL     1      45.146   5.005  12.911  0.00  0.00    +0.000 NA
ATOM     27  C   UNL     1      43.670   5.012  12.917  0.00  0.00    +0.000 C 
ATOM     28  C   UNL     1      43.037   4.612  11.576  0.00  0.00    +0.000 C 
BRANCH   2   1
ATOM      1  N   UNL     1      42.996   2.147  11.759  0.00  0.00    +0.000 NA
ATOM     29  H   UNL     1      43.328   2.154  12.724  0.00  0.00    +0.000 HD
ATOM     30  H   UNL     1      43.327   1.273  11.352  0.00  0.00    +0.000 HD
ENDBRANCH   2   1
ENDBRANCH   6   5
ENDBRANCH   7   6
BRANCH  10  11
ATOM     11  C   UNL     1      50.738   8.320  14.075  0.00  0.00    +0.000 C 
BRANCH  11  12
ATOM     12  N   UNL     1      51.578   7.380  14.768  0.00  0.00    +0.000 N 
ATOM     13  C   UNL     1      52.060   7.672  16.018  0.00  0.00    +0.000 C 
ATOM     14  O   UNL     1      51.755   8.706  16.607  0.00  0.00    +0.000 OA
ATOM     31  H   UNL     1      52.004   6.641  14.218  0.00  0.00    +0.000 HD
BRANCH  13  15
ATOM     15  C   UNL     1      52.915   6.660  16.651  0.00  0.00    +0.000 A 
ATOM     16  C   UNL     1      54.277   6.900  16.772  0.00  0.00    +0.000 A 
ATOM     17  S   UNL     1      55.125   5.647  17.555  0.00  0.00    +0.000 S 
ATOM     18  C   UNL     1      53.708   4.717  17.714  0.00  0.00    +0.000 A 
ATOM     19  N   UNL     1      53.745   3.482  18.287  0.00  0.00    +0.000 NA
ATOM     20  C   UNL     1      52.606   2.875  18.314  0.00  0.00    +0.000 A 
ATOM     21  N   UNL     1      51.432   3.392  17.831  0.00  0.00    +0.000 N 
ATOM     22  C   UNL     1      51.340   4.646  17.276  0.00  0.00    +0.000 A 
ATOM     23  O   UNL     1      50.264   5.099  16.900  0.00  0.00    +0.000 OA
ATOM     24  C   UNL     1      52.600   5.364  17.205  0.00  0.00    +0.000 A 
ATOM     32  H   UNL     1      50.572   2.867  17.893  0.00  0.00    +0.000 HD
ENDBRANCH  13  15
ENDBRANCH  11  12
ENDBRANCH  10  11
TORSDOF 6
ENDMDL
