MODEL 1
REMARK VINA RESULT:    -7.553      0.000      0.000
REMARK INTER + INTRA:          -9.699
REMARK INTER:                  -9.319
REMARK INTRA:                  -0.380
REMARK UNBOUND:                -0.380
REMARK  Name = 
REMARK  4 active torsions:
REMARK  status: ('A' for Active; 'I' for Inactive)
REMARK    1  A    between atoms: C_2  and  C_4
REMARK    2  A    between atoms: C_11  and  C_12
REMARK    3  A    between atoms: N_15  and  C_16
REMARK    4  A    between atoms: C_16  and  C_17
REMARK                            x       y       z     vdW  Elec       q    Type
REMARK                         _______ _______ _______ _____ _____    ______ ____
ROOT
ATOM      4  C   UNL     1      46.579   2.707   7.376  0.00  0.00    +0.000 A 
ATOM      5  C   UNL     1      46.881   4.062   7.471  0.00  0.00    +0.000 A 
ATOM      6  N   UNL     1      46.346   4.944   8.359  0.00  0.00    +0.000 NA
ATOM      7  C   UNL     1      45.463   4.369   9.208  0.00  0.00    +0.000 A 
ATOM      8  C   UNL     1      45.088   3.028   9.217  0.00  0.00    +0.000 A 
ATOM      9  C   UNL     1      45.669   2.161   8.282  0.00  0.00    +0.000 A 
ATOM     10  C   UNL     1      44.129   2.869  10.240  0.00  0.00    +0.000 A 
ATOM     11  C   UNL     1      43.932   4.098  10.835  0.00  0.00    +0.000 A 
ATOM     15  N   UNL     1      44.759   5.012  10.210  0.00  0.00    +0.000 N 
ENDROOT
BRANCH   4   2
ATOM      1  N   UNL     1      47.973   2.544   5.388  0.00  0.00    +0.000 N 
ATOM      2  C   UNL     1      47.233   1.885   6.337  0.00  0.00    +0.000 C 
ATOM      3  O   UNL     1      47.147   0.665   6.335  0.00  0.00    +0.000 OA
ATOM     26  H   UNL     1      48.483   1.972   4.728  0.00  0.00    +0.000 HD
ATOM     27  H   UNL     1      48.242   3.513   5.475  0.00  0.00    +0.000 HD
ENDBRANCH   4   2
BRANCH  11  12
ATOM     12  C   UNL     1      42.980   4.358  11.997  0.00  0.00    +0.000 C 
ATOM     13  C   UNL     1      43.514   5.151  13.178  0.00  0.00    +0.000 C 
ATOM     14  C   UNL     1      43.252   3.695  13.335  0.00  0.00    +0.000 C 
ENDBRANCH  11  12
BRANCH  15  16
ATOM     16  C   UNL     1      44.755   6.461  10.397  0.00  0.00    +0.000 C 
BRANCH  16  17
ATOM     17  C   UNL     1      45.810   7.007  11.351  0.00  0.00    +0.000 C 
ATOM     18  O   UNL     1      46.771   6.342  11.737  0.00  0.00    +0.000 OA
ATOM     19  N   UNL     1      45.655   8.343  11.743  0.00  0.00    +0.000 N 
ATOM     20  C   UNL     1      46.698   8.974  12.551  0.00  0.00    +0.000 C 
ATOM     21  C   UNL     1      46.869  10.434  12.124  0.00  0.00    +0.000 C 
ATOM     22  N   UNL     1      45.615  11.158  12.166  0.00  0.00    +0.000 N 
ATOM     23  C   UNL     1      44.419  10.578  11.825  0.00  0.00    +0.000 C 
ATOM     24  O   UNL     1      43.414  11.275  11.691  0.00  0.00    +0.000 OA
ATOM     25  C   UNL     1      44.364   9.043  11.745  0.00  0.00    +0.000 C 
ATOM     28  H   UNL     1      45.615  12.172  12.147  0.00  0.00    +0.000 HD
ENDBRANCH  16  17
ENDBRANCH  15  16
TORSDOF 4
ENDMDL
MODEL 2
REMARK VINA RESULT:    -7.227      5.734      7.560
REMARK INTER + INTRA:          -9.297
REMARK INTER:                  -8.457
REMARK INTRA:                  -0.840
REMARK UNBOUND:                -0.380
REMARK  Name = 
REMARK  4 active torsions:
REMARK  status: ('A' for Active; 'I' for Inactive)
REMARK    1  A    between atoms: C_2  and  C_4
REMARK    2  A    between atoms: C_11  and  C_12
REMARK    3  A    between atoms: N_15  and  C_16
REMARK    4  A    between atoms: C_16  and  C_17
REMARK                            x       y       z     vdW  Elec       q    Type
REMARK                         _______ _______ _______ _____ _____    ______ ____
ROOT
ATOM      4  C   UNL     1      45.382   5.007  11.471  0.00  0.00    +0.000 A 
ATOM      5  C   UNL     1      45.007   4.118  12.474  0.00  0.00    +0.000 A 
ATOM      6  N   UNL     1      45.552   4.033  13.719  0.00  0.00    +0.000 NA
ATOM      7  C   UNL     1      46.528   4.946  13.931  0.00  0.00    +0.000 A 
ATOM      8  C   UNL     1      46.983   5.889  13.013  0.00  0.00    +0.000 A 
ATOM      9  C   UNL     1      46.388   5.935  11.746  0.00  0.00    +0.000 A 
ATOM     10  C   UNL     1      48.022   6.612  13.638  0.00  0.00    +0.000 A 
ATOM     11  C   UNL     1      48.187   6.109  14.911  0.00  0.00    +0.000 A 
ATOM     15  N   UNL     1      47.263   5.097  15.093  0.00  0.00    +0.000 N 
ENDROOT
BRANCH   4   2
ATOM      1  N   UNL     1      45.485   5.121   9.044  0.00  0.00    +0.000 N 
ATOM      2  C   UNL     1      44.705   4.956  10.160  0.00  0.00    +0.000 C 
ATOM      3  O   UNL     1      43.503   4.746  10.065  0.00  0.00    +0.000 OA
ATOM     26  H   UNL     1      45.031   5.006   8.148  0.00  0.00    +0.000 HD
ATOM     27  H   UNL     1      46.494   5.084   9.066  0.00  0.00    +0.000 HD
ENDBRANCH   4   2
BRANCH  11  12
ATOM     12  C   UNL     1      49.204   6.623  15.923  0.00  0.00    +0.000 C 
ATOM     13  C   UNL     1      48.697   7.535  17.027  0.00  0.00    +0.000 C 
ATOM     14  C   UNL     1      49.542   8.102  15.943  0.00  0.00    +0.000 C 
ENDBRANCH  11  12
BRANCH  15  16
ATOM     16  C   UNL     1      47.193   4.174  16.224  0.00  0.00    +0.000 C 
BRANCH  16  17
ATOM     17  C   UNL     1      48.315   3.147  16.309  0.00  0.00    +0.000 C 
ATOM     18  O   UNL     1      48.430   2.214  15.516  0.00  0.00    +0.000 OA
ATOM     19  N   UNL     1      49.255   3.345  17.329  0.00  0.00    +0.000 N 
ATOM     20  C   UNL     1      50.431   2.478  17.392  0.00  0.00    +0.000 C 
ATOM     21  C   UNL     1      51.649   3.292  17.836  0.00  0.00    +0.000 C 
ATOM     22  N   UNL     1      51.405   3.994  19.080  0.00  0.00    +0.000 N 
ATOM     23  C   UNL     1      50.185   4.539  19.389  0.00  0.00    +0.000 C 
ATOM     24  O   UNL     1      50.074   5.286  20.360  0.00  0.00    +0.000 OA
ATOM     25  C   UNL     1      48.967   4.087  18.564  0.00  0.00    +0.000 C 
ATOM     28  H   UNL     1      52.183   4.368  19.610  0.00  0.00    +0.000 HD
ENDBRANCH  16  17
ENDBRANCH  15  16
TORSDOF 4
ENDMDL
MODEL 3
REMARK VINA RESULT:    -6.940      4.625      7.149
REMARK INTER + INTRA:          -8.944
REMARK INTER:                  -8.026
REMARK INTRA:                  -0.917
REMARK UNBOUND:                -0.380
REMARK  Name = 
REMARK  4 active torsions:
REMARK  status: ('A' for Active; 'I' for Inactive)
REMARK    1  A    between atoms: C_2  and  C_4
REMARK    2  A    between atoms: C_11  and  C_12
REMARK    3  A    between atoms: N_15  and  C_16
REMARK    4  A    between atoms: C_16  and  C_17
REMARK                            x       y       z     vdW  Elec       q    Type
REMARK                         _______ _______ _______ _____ _____    ______ ____
ROOT
ATOM      4  C   UNL     1      45.654   4.282  12.545  0.00  0.00    +0.000 A 
ATOM      5  C   UNL     1      46.384   4.070  13.711  0.00  0.00    +0.000 A 
ATOM      6  N   UNL     1      47.336   4.896  14.224  0.00  0.00    +0.000 NA
ATOM      7  C   UNL     1      47.517   6.017  13.486  0.00  0.00    +0.000 A 
ATOM      8  C   UNL     1      46.843   6.343  12.312  0.00  0.00    +0.000 A 
ATOM      9  C   UNL     1      45.872   5.458  11.827  0.00  0.00    +0.000 A 
ATOM     10  C   UNL     1      47.361   7.577  11.864  0.00  0.00    +0.000 A 
ATOM     11  C   UNL     1      48.330   7.983  12.756  0.00  0.00    +0.000 A 
ATOM     15  N   UNL     1      48.415   7.033  13.755  0.00  0.00    +0.000 N 
ENDROOT
BRANCH   4   2
ATOM      1  N   UNL     1      44.827   2.740  10.855  0.00  0.00    +0.000 N 
ATOM      2  C   UNL     1      44.668   3.273  12.108  0.00  0.00    +0.000 C 
ATOM      3  O   UNL     1      43.760   2.902  12.841  0.00  0.00    +0.000 OA
ATOM     26  H   UNL     1      44.198   1.993  10.592  0.00  0.00    +0.000 HD
ATOM     27  H   UNL     1      45.669   2.857  10.309  0.00  0.00    +0.000 HD
ENDBRANCH   4   2
BRANCH  11  12
ATOM     12  C   UNL     1      49.129   9.277  12.642  0.00  0.00    +0.000 C 
ATOM     13  C   UNL     1      48.583  10.504  13.352  0.00  0.00    +0.000 C 
ATOM     14  C   UNL     1      48.540  10.441  11.866  0.00  0.00    +0.000 C 
ENDBRANCH  11  12
BRANCH  15  16
ATOM     16  C   UNL     1      49.424   6.966  14.811  0.00  0.00    +0.000 C 
BRANCH  16  17
ATOM     17  C   UNL     1      48.977   7.454  16.183  0.00  0.00    +0.000 C 
ATOM     18  O   UNL     1      48.789   8.641  16.443  0.00  0.00    +0.000 OA
ATOM     19  N   UNL     1      48.744   6.461  17.145  0.00  0.00    +0.000 N 
ATOM     20  C   UNL     1      48.188   6.842  18.442  0.00  0.00    +0.000 C 
ATOM     21  C   UNL     1      47.212   5.765  18.922  0.00  0.00    +0.000 C 
ATOM     22  N   UNL     1      47.824   4.452  18.941  0.00  0.00    +0.000 N 
ATOM     23  C   UNL     1      48.730   4.050  17.992  0.00  0.00    +0.000 C 
ATOM     24  O   UNL     1      49.077   2.871  17.935  0.00  0.00    +0.000 OA
ATOM     25  C   UNL     1      49.371   5.133  17.107  0.00  0.00    +0.000 C 
ATOM     28  H   UNL     1      47.387   3.697  19.456  0.00  0.00    +0.000 HD
ENDBRANCH  16  17
ENDBRANCH  15  16
TORSDOF 4
ENDMDL
MODEL 4
REMARK VINA RESULT:    -6.908      4.708      8.369
REMARK INTER + INTRA:          -8.903
REMARK INTER:                  -8.764
REMARK INTRA:                  -0.139
REMARK UNBOUND:                -0.380
REMARK  Name = 
REMARK  4 active torsions:
REMARK  status: ('A' for Active; 'I' for Inactive)
REMARK    1  A    between atoms: C_2  and  C_4
REMARK    2  A    between atoms: C_11  and  C_12
REMARK    3  A    between atoms: N_15  and  C_16
REMARK    4  A    between atoms: C_16  and  C_17
REMARK                            x       y       z     vdW  Elec       q    Type
REMARK                         _______ _______ _______ _____ _____    ______ ____
ROOT
ATOM      4  C   UNL     1      48.222   4.902  18.137  0.00  0.00    +0.000 A 
ATOM      5  C   UNL     1      47.510   3.830  17.607  0.00  0.00    +0.000 A 
ATOM      6  N   UNL     1      47.107   3.695  16.314  0.00  0.00    +0.000 NA
ATOM      7  C   UNL     1      47.491   4.728  15.529  0.00  0.00    +0.000 A 
ATOM      8  C   UNL     1      48.211   5.847  15.941  0.00  0.00    +0.000 A 
ATOM      9  C   UNL     1      48.602   5.938  17.283  0.00  0.00    +0.000 A 
ATOM     10  C   UNL     1      48.366   6.681  14.813  0.00  0.00    +0.000 A 
ATOM     11  C   UNL     1      47.748   6.071  13.742  0.00  0.00    +0.000 A 
ATOM     15  N   UNL     1      47.223   4.870  14.180  0.00  0.00    +0.000 N 
ENDROOT
BRANCH   4   2
ATOM      1  N   UNL     1      48.517   3.712  20.238  0.00  0.00    +0.000 N 
ATOM      2  C   UNL     1      48.566   4.911  19.573  0.00  0.00    +0.000 C 
ATOM      3  O   UNL     1      48.910   5.936  20.145  0.00  0.00    +0.000 OA
ATOM     26  H   UNL     1      48.830   3.709  21.199  0.00  0.00    +0.000 HD
ATOM     27  H   UNL     1      48.447   2.822  19.765  0.00  0.00    +0.000 HD
ENDBRANCH   4   2
BRANCH  11  12
ATOM     12  C   UNL     1      47.696   6.640  12.328  0.00  0.00    +0.000 C 
ATOM     13  C   UNL     1      48.907   7.417  11.840  0.00  0.00    +0.000 C 
ATOM     14  C   UNL     1      47.646   8.146  12.142  0.00  0.00    +0.000 C 
ENDBRANCH  11  12
BRANCH  15  16
ATOM     16  C   UNL     1      46.339   3.980  13.430  0.00  0.00    +0.000 C 
BRANCH  16  17
ATOM     17  C   UNL     1      45.098   4.631  12.834  0.00  0.00    +0.000 C 
ATOM     18  O   UNL     1      44.478   5.532  13.397  0.00  0.00    +0.000 OA
ATOM     19  N   UNL     1      44.711   4.174  11.566  0.00  0.00    +0.000 N 
ATOM     20  C   UNL     1      43.608   4.842  10.875  0.00  0.00    +0.000 C 
ATOM     21  C   UNL     1      43.904   4.905   9.374  0.00  0.00    +0.000 C 
ATOM     22  N   UNL     1      44.197   3.596   8.826  0.00  0.00    +0.000 N 
ATOM     23  C   UNL     1      44.894   2.646   9.527  0.00  0.00    +0.000 C 
ATOM     24  O   UNL     1      45.285   1.627   8.958  0.00  0.00    +0.000 OA
ATOM     25  C   UNL     1      45.054   2.845  11.043  0.00  0.00    +0.000 C 
ATOM     28  H   UNL     1      44.171   3.451   7.823  0.00  0.00    +0.000 HD
ENDBRANCH  16  17
ENDBRANCH  15  16
TORSDOF 4
ENDMDL
MODEL 5
REMARK VINA RESULT:    -6.836      5.021      7.354
REMARK INTER + INTRA:          -8.815
REMARK INTER:                  -8.024
REMARK INTRA:                  -0.791
REMARK UNBOUND:                -0.380
REMARK  Name = 
REMARK  4 active torsions:
REMARK  status: ('A' for Active; 'I' for Inactive)
REMARK    1  A    between atoms: C_2  and  C_4
REMARK    2  A    between atoms: C_11  and  C_12
REMARK    3  A    between atoms: N_15  and  C_16
REMARK    4  A    between atoms: C_16  and  C_17
REMARK                            x       y       z     vdW  Elec       q    Type
REMARK                         _______ _______ _______ _____ _____    ______ ____
ROOT
ATOM      4  C   UNL     1      49.839   8.181  12.216  0.00  0.00    +0.000 A 
ATOM      5  C   UNL     1      49.924   7.614  13.485  0.00  0.00    +0.000 A 
ATOM      6  N   UNL     1      49.023   6.762  14.046  0.00  0.00    +0.000 NA
ATOM      7  C   UNL     1      47.988   6.470  13.224  0.00  0.00    +0.000 A 
ATOM      8  C   UNL     1      47.799   6.966  11.936  0.00  0.00    +0.000 A 
ATOM      9  C   UNL     1      48.756   7.840  11.405  0.00  0.00    +0.000 A 
ATOM     10  C   UNL     1      46.584   6.429  11.457  0.00  0.00    +0.000 A 
ATOM     11  C   UNL     1      46.054   5.624  12.443  0.00  0.00    +0.000 A 
ATOM     15  N   UNL     1      46.921   5.641  13.519  0.00  0.00    +0.000 N 
ENDROOT
BRANCH   4   2
ATOM      1  N   UNL     1      52.191   8.779  12.053  0.00  0.00    +0.000 N 
ATOM      2  C   UNL     1      50.892   9.110  11.761  0.00  0.00    +0.000 C 
ATOM      3  O   UNL     1      50.626  10.119  11.122  0.00  0.00    +0.000 OA
ATOM     26  H   UNL     1      52.912   9.375  11.670  0.00  0.00    +0.000 HD
ATOM     27  H   UNL     1      52.465   7.865  12.384  0.00  0.00    +0.000 HD
ENDBRANCH   4   2
BRANCH  11  12
ATOM     12  C   UNL     1      44.750   4.845  12.321  0.00  0.00    +0.000 C 
ATOM     13  C   UNL     1      44.843   3.369  11.975  0.00  0.00    +0.000 C 
ATOM     14  C   UNL     1      44.327   4.324  10.959  0.00  0.00    +0.000 C 
ENDBRANCH  11  12
BRANCH  15  16
ATOM     16  C   UNL     1      46.678   5.072  14.843  0.00  0.00    +0.000 C 
BRANCH  16  17
ATOM     17  C   UNL     1      47.378   3.751  15.133  0.00  0.00    +0.000 C 
ATOM     18  O   UNL     1      47.491   2.856  14.296  0.00  0.00    +0.000 OA
ATOM     19  N   UNL     1      47.937   3.616  16.411  0.00  0.00    +0.000 N 
ATOM     20  C   UNL     1      48.736   2.431  16.718  0.00  0.00    +0.000 C 
ATOM     21  C   UNL     1      49.908   2.820  17.622  0.00  0.00    +0.000 C 
ATOM     22  N   UNL     1      49.464   3.517  18.812  0.00  0.00    +0.000 N 
ATOM     23  C   UNL     1      48.411   4.396  18.798  0.00  0.00    +0.000 C 
ATOM     24  O   UNL     1      48.191   5.106  19.778  0.00  0.00    +0.000 OA
ATOM     25  C   UNL     1      47.467   4.366  17.585  0.00  0.00    +0.000 C 
ATOM     28  H   UNL     1      50.090   3.617  19.603  0.00  0.00    +0.000 HD
ENDBRANCH  16  17
ENDBRANCH  15  16
TORSDOF 4
ENDMDL
MODEL 6
REMARK VINA RESULT:    -6.678      4.709      8.256
REMARK INTER + INTRA:          -8.620
REMARK INTER:                  -7.936
REMARK INTRA:                  -0.684
REMARK UNBOUND:                -0.380
REMARK  Name = 
REMARK  4 active torsions:
REMARK  status: ('A' for Active; 'I' for Inactive)
REMARK    1  A    between atoms: C_2  and  C_4
REMARK    2  A    between atoms: C_11  and  C_12
REMARK    3  A    between atoms: N_15  and  C_16
REMARK    4  A    between atoms: C_16  and  C_17
REMARK                            x       y       z     vdW  Elec       q    Type
REMARK                         _______ _______ _______ _____ _____    ______ ____
ROOT
ATOM      4  C   UNL     1      48.551   4.999  17.714  0.00  0.00    +0.000 A 
ATOM      5  C   UNL     1      47.754   4.301  16.810  0.00  0.00    +0.000 A 
ATOM      6  N   UNL     1      47.543   4.627  15.506  0.00  0.00    +0.000 NA
ATOM      7  C   UNL     1      48.222   5.733  15.121  0.00  0.00    +0.000 A 
ATOM      8  C   UNL     1      49.053   6.507  15.927  0.00  0.00    +0.000 A 
ATOM      9  C   UNL     1      49.237   6.127  17.263  0.00  0.00    +0.000 A 
ATOM     10  C   UNL     1      49.529   7.573  15.134  0.00  0.00    +0.000 A 
ATOM     11  C   UNL     1      48.990   7.439  13.872  0.00  0.00    +0.000 A 
ATOM     15  N   UNL     1      48.200   6.306  13.863  0.00  0.00    +0.000 N 
ENDROOT
BRANCH   4   2
ATOM      1  N   UNL     1      48.283   3.231  19.364  0.00  0.00    +0.000 N 
ATOM      2  C   UNL     1      48.659   4.526  19.108  0.00  0.00    +0.000 C 
ATOM      3  O   UNL     1      49.094   5.243  19.998  0.00  0.00    +0.000 OA
ATOM     26  H   UNL     1      48.434   2.888  20.302  0.00  0.00    +0.000 HD
ATOM     27  H   UNL     1      48.124   2.550  18.635  0.00  0.00    +0.000 HD
ENDBRANCH   4   2
BRANCH  11  12
ATOM     12  C   UNL     1      49.264   8.383  12.706  0.00  0.00    +0.000 C 
ATOM     13  C   UNL     1      49.962   7.808  11.486  0.00  0.00    +0.000 C 
ATOM     14  C   UNL     1      50.699   8.746  12.373  0.00  0.00    +0.000 C 
ENDBRANCH  11  12
BRANCH  15  16
ATOM     16  C   UNL     1      47.303   5.877  12.792  0.00  0.00    +0.000 C 
BRANCH  16  17
ATOM     17  C   UNL     1      45.946   6.568  12.750  0.00  0.00    +0.000 C 
ATOM     18  O   UNL     1      45.816   7.790  12.806  0.00  0.00    +0.000 OA
ATOM     19  N   UNL     1      44.833   5.731  12.598  0.00  0.00    +0.000 N 
ATOM     20  C   UNL     1      43.511   6.330  12.418  0.00  0.00    +0.000 C 
ATOM     21  C   UNL     1      42.696   5.494  11.428  0.00  0.00    +0.000 C 
ATOM     22  N   UNL     1      42.629   4.102  11.825  0.00  0.00    +0.000 N 
ATOM     23  C   UNL     1      43.683   3.456  12.418  0.00  0.00    +0.000 C 
ATOM     24  O   UNL     1      43.653   2.234  12.562  0.00  0.00    +0.000 OA
ATOM     25  C   UNL     1      44.821   4.316  12.993  0.00  0.00    +0.000 C 
ATOM     28  H   UNL     1      41.936   3.490  11.410  0.00  0.00    +0.000 HD
ENDBRANCH  16  17
ENDBRANCH  15  16
TORSDOF 4
ENDMDL
MODEL 7
REMARK VINA RESULT:    -6.675      3.182      4.814
REMARK INTER + INTRA:          -8.617
REMARK INTER:                  -7.814
REMARK INTRA:                  -0.803
REMARK UNBOUND:                -0.380
REMARK  Name = 
REMARK  4 active torsions:
REMARK  status: ('A' for Active; 'I' for Inactive)
REMARK    1  A    between atoms: C_2  and  C_4
REMARK    2  A    between atoms: C_11  and  C_12
REMARK    3  A    between atoms: N_15  and  C_16
REMARK    4  A    between atoms: C_16  and  C_17
REMARK                            x       y       z     vdW  Elec       q    Type
REMARK                         _______ _______ _______ _____ _____    ______ ____
ROOT
ATOM      4  C   UNL     1      44.423   4.177  11.473  0.00  0.00    +0.000 A 
ATOM      5  C   UNL     1      43.688   5.348  11.308  0.00  0.00    +0.000 A 
ATOM      6  N   UNL     1      44.067   6.596  11.695  0.00  0.00    +0.000 NA
ATOM      7  C   UNL     1      45.294   6.623  12.266  0.00  0.00    +0.000 A 
ATOM      8  C   UNL     1      46.124   5.525  12.477  0.00  0.00    +0.000 A 
ATOM      9  C   UNL     1      45.687   4.261  12.060  0.00  0.00    +0.000 A 
ATOM     10  C   UNL     1      47.287   5.999  13.123  0.00  0.00    +0.000 A 
ATOM     11  C   UNL     1      47.153   7.361  13.296  0.00  0.00    +0.000 A 
ATOM     15  N   UNL     1      45.938   7.742  12.760  0.00  0.00    +0.000 N 
ENDROOT
BRANCH   4   2
ATOM      1  N   UNL     1      44.425   2.315   9.908  0.00  0.00    +0.000 N 
ATOM      2  C   UNL     1      43.860   2.891  11.017  0.00  0.00    +0.000 C 
ATOM      3  O   UNL     1      42.946   2.341  11.617  0.00  0.00    +0.000 OA
ATOM     26  H   UNL     1      44.090   1.398   9.648  0.00  0.00    +0.000 HD
ATOM     27  H   UNL     1      45.304   2.622   9.516  0.00  0.00    +0.000 HD
ENDBRANCH   4   2
BRANCH  11  12
ATOM     12  C   UNL     1      48.199   8.260  13.946  0.00  0.00    +0.000 C 
ATOM     13  C   UNL     1      49.358   8.728  13.083  0.00  0.00    +0.000 C 
ATOM     14  C   UNL     1      49.604   7.726  14.153  0.00  0.00    +0.000 C 
ENDBRANCH  11  12
BRANCH  15  16
ATOM     16  C   UNL     1      45.309   9.056  12.875  0.00  0.00    +0.000 C 
BRANCH  16  17
ATOM     17  C   UNL     1      45.640  10.047  11.766  0.00  0.00    +0.000 C 
ATOM     18  O   UNL     1      46.781  10.453  11.551  0.00  0.00    +0.000 OA
ATOM     19  N   UNL     1      44.568  10.450  10.959  0.00  0.00    +0.000 N 
ATOM     20  C   UNL     1      44.831  11.295   9.795  0.00  0.00    +0.000 C 
ATOM     21  C   UNL     1      43.907  10.891   8.645  0.00  0.00    +0.000 C 
ATOM     22  N   UNL     1      42.513  10.905   9.041  0.00  0.00    +0.000 N 
ATOM     23  C   UNL     1      42.102  10.523  10.293  0.00  0.00    +0.000 C 
ATOM     24  O   UNL     1      40.904  10.367  10.525  0.00  0.00    +0.000 OA
ATOM     25  C   UNL     1      43.167  10.423  11.399  0.00  0.00    +0.000 C 
ATOM     28  H   UNL     1      41.786  10.899   8.336  0.00  0.00    +0.000 HD
ENDBRANCH  16  17
ENDBRANCH  15  16
TORSDOF 4
ENDMDL
MODEL 8
REMARK VINA RESULT:    -6.283      5.098      8.566
REMARK INTER + INTRA:          -8.132
REMARK INTER:                  -7.701
REMARK INTRA:                  -0.432
REMARK UNBOUND:                -0.380
REMARK  Name = 
REMARK  4 active torsions:
REMARK  status: ('A' for Active; 'I' for Inactive)
REMARK    1  A    between atoms: C_2  and  C_4
REMARK    2  A    between atoms: C_11  and  C_12
REMARK    3  A    between atoms: N_15  and  C_16
REMARK    4  A    between atoms: C_16  and  C_17
REMARK                            x       y       z     vdW  Elec       q    Type
REMARK                         _______ _______ _______ _____ _____    ______ ____
ROOT
ATOM      4  C   UNL     1      50.022   5.573  18.051  0.00  0.00    +0.000 A 
ATOM      5  C   UNL     1      48.800   4.971  17.766  0.00  0.00    +0.000 A 
ATOM      6  N   UNL     1      48.063   5.145  16.634  0.00  0.00    +0.000 NA
ATOM      7  C   UNL     1      48.651   5.977  15.743  0.00  0.00    +0.000 A 
ATOM      8  C   UNL     1      49.870   6.628  15.911  0.00  0.00    +0.000 A 
ATOM      9  C   UNL     1      50.589   6.416  17.094  0.00  0.00    +0.000 A 
ATOM     10  C   UNL     1      50.086   7.413  14.757  0.00  0.00    +0.000 A 
ATOM     11  C   UNL     1      49.011   7.235  13.912  0.00  0.00    +0.000 A 
ATOM     15  N   UNL     1      48.140   6.346  14.512  0.00  0.00    +0.000 N 
ENDROOT
BRANCH   4   2
ATOM      1  N   UNL     1      49.975   4.594  20.277  0.00  0.00    +0.000 N 
ATOM      2  C   UNL     1      50.687   5.298  19.340  0.00  0.00    +0.000 C 
ATOM      3  O   UNL     1      51.837   5.655  19.559  0.00  0.00    +0.000 OA
ATOM     26  H   UNL     1      50.462   4.339  21.126  0.00  0.00    +0.000 HD
ATOM     27  H   UNL     1      49.117   4.104  20.064  0.00  0.00    +0.000 HD
ENDBRANCH   4   2
BRANCH  11  12
ATOM     12  C   UNL     1      48.859   7.898  12.548  0.00  0.00    +0.000 C 
ATOM     13  C   UNL     1      49.930   7.619  11.508  0.00  0.00    +0.000 C 
ATOM     14  C   UNL     1      49.854   8.966  12.133  0.00  0.00    +0.000 C 
ENDBRANCH  11  12
BRANCH  15  16
ATOM     16  C   UNL     1      46.795   6.002  14.056  0.00  0.00    +0.000 C 
BRANCH  16  17
ATOM     17  C   UNL     1      46.640   4.617  13.441  0.00  0.00    +0.000 C 
ATOM     18  O   UNL     1      47.446   3.707  13.630  0.00  0.00    +0.000 OA
ATOM     19  N   UNL     1      45.489   4.411  12.668  0.00  0.00    +0.000 N 
ATOM     20  C   UNL     1      45.206   3.071  12.154  0.00  0.00    +0.000 C 
ATOM     21  C   UNL     1      43.699   2.811  12.194  0.00  0.00    +0.000 C 
ATOM     22  N   UNL     1      42.955   3.844  11.500  0.00  0.00    +0.000 N 
ATOM     23  C   UNL     1      43.329   5.163  11.529  0.00  0.00    +0.000 C 
ATOM     24  O   UNL     1      42.570   6.027  11.091  0.00  0.00    +0.000 OA
ATOM     25  C   UNL     1      44.754   5.495  12.003  0.00  0.00    +0.000 C 
ATOM     28  H   UNL     1      41.990   3.682  11.238  0.00  0.00    +0.000 HD
ENDBRANCH  16  17
ENDBRANCH  15  16
TORSDOF 4
ENDMDL
MODEL 9
REMARK VINA RESULT:    -6.258      3.553      5.850
REMARK INTER + INTRA:          -8.102
REMARK INTER:                  -7.589
REMARK INTRA:                  -0.513
REMARK UNBOUND:                -0.380
REMARK  Name = 
REMARK  4 active torsions:
REMARK  status: ('A' for Active; 'I' for Inactive)
REMARK    1  A    between atoms: C_2  and  C_4
REMARK    2  A    between atoms: C_11  and  C_12
REMARK    3  A    between atoms: N_15  and  C_16
REMARK    4  A    between atoms: C_16  and  C_17
REMARK                            x       y       z     vdW  Elec       q    Type
REMARK                         _______ _______ _______ _____ _____    ______ ____
ROOT
ATOM      4  C   UNL     1      44.416   4.450  12.022  0.00  0.00    +0.000 A 
ATOM      5  C   UNL     1      45.397   4.695  12.979  0.00  0.00    +0.000 A 
ATOM      6  N   UNL     1      45.922   5.910  13.298  0.00  0.00    +0.000 NA
ATOM      7  C   UNL     1      45.372   6.925  12.592  0.00  0.00    +0.000 A 
ATOM      8  C   UNL     1      44.382   6.806  11.620  0.00  0.00    +0.000 A 
ATOM      9  C   UNL     1      43.875   5.533  11.329  0.00  0.00    +0.000 A 
ATOM     10  C   UNL     1      44.127   8.103  11.124  0.00  0.00    +0.000 A 
ATOM     11  C   UNL     1      44.952   8.985  11.788  0.00  0.00    +0.000 A 
ATOM     15  N   UNL     1      45.705   8.264  12.696  0.00  0.00    +0.000 N 
ENDROOT
BRANCH   4   2
ATOM      1  N   UNL     1      44.243   2.524  10.546  0.00  0.00    +0.000 N 
ATOM      2  C   UNL     1      43.968   3.065  11.777  0.00  0.00    +0.000 C 
ATOM      3  O   UNL     1      43.401   2.410  12.641  0.00  0.00    +0.000 OA
ATOM     26  H   UNL     1      44.005   1.551  10.411  0.00  0.00    +0.000 HD
ATOM     27  H   UNL     1      44.885   2.946   9.890  0.00  0.00    +0.000 HD
ENDBRANCH   4   2
BRANCH  11  12
ATOM     12  C   UNL     1      44.982  10.491  11.555  0.00  0.00    +0.000 C 
ATOM     13  C   UNL     1      43.649  11.209  11.432  0.00  0.00    +0.000 C 
ATOM     14  C   UNL     1      44.501  11.040  10.225  0.00  0.00    +0.000 C 
ENDBRANCH  11  12
BRANCH  15  16
ATOM     16  C   UNL     1      46.827   8.762  13.488  0.00  0.00    +0.000 C 
BRANCH  16  17
ATOM     17  C   UNL     1      48.175   8.792  12.778  0.00  0.00    +0.000 C 
ATOM     18  O   UNL     1      48.343   9.331  11.685  0.00  0.00    +0.000 OA
ATOM     19  N   UNL     1      49.246   8.203  13.463  0.00  0.00    +0.000 N 
ATOM     20  C   UNL     1      50.593   8.309  12.905  0.00  0.00    +0.000 C 
ATOM     21  C   UNL     1      51.608   8.487  14.037  0.00  0.00    +0.000 C 
ATOM     22  N   UNL     1      51.497   7.438  15.030  0.00  0.00    +0.000 N 
ATOM     23  C   UNL     1      50.290   6.899  15.397  0.00  0.00    +0.000 C 
ATOM     24  O   UNL     1      50.221   6.153  16.373  0.00  0.00    +0.000 OA
ATOM     25  C   UNL     1      49.080   7.158  14.483  0.00  0.00    +0.000 C 
ATOM     28  H   UNL     1      52.247   7.289  15.695  0.00  0.00    +0.000 HD
ENDBRANCH  16  17
ENDBRANCH  15  16
TORSDOF 4
ENDMDL
