MODEL 1
REMARK VINA RESULT:    -8.238      0.000      0.000
REMARK INTER + INTRA:         -13.698
REMARK INTER:                 -12.091
REMARK INTRA:                  -1.607
REMARK UNBOUND:                -1.607
REMARK  Name = 
REMARK  9 active torsions:
REMARK  status: ('A' for Active; 'I' for Inactive)
REMARK    1  A    between atoms: C_1  and  C_2
REMARK    2  A    between atoms: C_2  and  N_3
REMARK    3  A    between atoms: N_3  and  C_4
REMARK    4  A    between atoms: N_3  and  C_11
REMARK    5  A    between atoms: C_4  and  C_5
REMARK    6  A    between atoms: C_11  and  C_12
REMARK    7  A    between atoms: C_15  and  C_16
REMARK    8  A    between atoms: C_16  and  N_17
REMARK    9  A    between atoms: C_18  and  C_20
REMARK                            x       y       z     vdW  Elec       q    Type
REMARK                         _______ _______ _______ _____ _____    ______ ____
ROOT
ATOM     12  C   UNL     1      44.900   6.143  11.035  0.00  0.00    +0.000 A 
ATOM     13  C   UNL     1      46.273   5.869  11.112  0.00  0.00    +0.000 A 
ATOM     14  C   UNL     1      47.102   6.625  11.944  0.00  0.00    +0.000 A 
ATOM     15  C   UNL     1      46.571   7.663  12.719  0.00  0.00    +0.000 A 
ATOM     30  C   UNL     1      45.216   7.989  12.581  0.00  0.00    +0.000 A 
ATOM     31  C   UNL     1      44.385   7.234  11.751  0.00  0.00    +0.000 A 
ENDROOT
BRANCH  15  16
ATOM     16  C   UNL     1      47.445   8.447  13.663  0.00  0.00    +0.000 C 
BRANCH  16  17
ATOM     17  N   UNL     1      47.794   7.646  14.803  0.00  0.00    +0.000 N 
ATOM     18  C   UNL     1      49.048   7.112  14.957  0.00  0.00    +0.000 C 
ATOM     19  O   UNL     1      49.959   7.336  14.167  0.00  0.00    +0.000 OA
ATOM     32  H   UNL     1      47.022   7.259  15.331  0.00  0.00    +0.000 HD
BRANCH  18  20
ATOM     20  C   UNL     1      49.254   6.315  16.172  0.00  0.00    +0.000 A 
ATOM     21  C   UNL     1      50.259   6.659  17.065  0.00  0.00    +0.000 A 
ATOM     22  S   UNL     1      50.286   5.689  18.469  0.00  0.00    +0.000 S 
ATOM     23  C   UNL     1      48.993   4.737  17.902  0.00  0.00    +0.000 A 
ATOM     24  N   UNL     1      48.506   3.703  18.641  0.00  0.00    +0.000 NA
ATOM     25  C   UNL     1      47.544   3.051  18.078  0.00  0.00    +0.000 A 
ATOM     26  N   UNL     1      47.028   3.333  16.839  0.00  0.00    +0.000 N 
ATOM     27  C   UNL     1      47.480   4.373  16.062  0.00  0.00    +0.000 A 
ATOM     28  O   UNL     1      46.986   4.604  14.964  0.00  0.00    +0.000 OA
ATOM     29  C   UNL     1      48.549   5.150  16.659  0.00  0.00    +0.000 A 
ATOM     33  H   UNL     1      46.277   2.782  16.451  0.00  0.00    +0.000 HD
ENDBRANCH  18  20
ENDBRANCH  16  17
ENDBRANCH  15  16
BRANCH  12  11
ATOM     11  C   UNL     1      43.975   5.222  10.262  0.00  0.00    +0.000 C 
BRANCH  11   3
ATOM      3  N   UNL     1      44.366   3.793  10.365  0.00  0.00    +0.000 NA
BRANCH   3   2
ATOM      1  C   UNL     1      43.833   3.599  12.844  0.00  0.00    +0.000 C 
ATOM      2  C   UNL     1      43.561   3.127  11.419  0.00  0.00    +0.000 C 
ENDBRANCH   3   2
BRANCH   3   4
ATOM      4  C   UNL     1      44.193   3.119   9.064  0.00  0.00    +0.000 C 
BRANCH   4   5
ATOM      5  C   UNL     1      45.477   2.729   8.355  0.00  0.00    +0.000 A 
ATOM      6  C   UNL     1      45.925   1.399   8.348  0.00  0.00    +0.000 A 
ATOM      7  C   UNL     1      47.046   1.030   7.600  0.00  0.00    +0.000 A 
ATOM      8  C   UNL     1      47.732   1.985   6.850  0.00  0.00    +0.000 A 
ATOM      9  C   UNL     1      47.312   3.314   6.866  0.00  0.00    +0.000 A 
ATOM     10  C   UNL     1      46.192   3.684   7.615  0.00  0.00    +0.000 A 
ENDBRANCH   4   5
ENDBRANCH   3   4
ENDBRANCH  11   3
ENDBRANCH  12  11
TORSDOF 8
ENDMDL
MODEL 2
REMARK VINA RESULT:    -7.692      1.153      1.215
REMARK INTER + INTRA:         -12.897
REMARK INTER:                 -11.613
REMARK INTRA:                  -1.284
REMARK UNBOUND:                -1.607
REMARK  Name = 
REMARK  9 active torsions:
REMARK  status: ('A' for Active; 'I' for Inactive)
REMARK    1  A    between atoms: C_1  and  C_2
REMARK    2  A    between atoms: C_2  and  N_3
REMARK    3  A    between atoms: N_3  and  C_4
REMARK    4  A    between atoms: N_3  and  C_11
REMARK    5  A    between atoms: C_4  and  C_5
REMARK    6  A    between atoms: C_11  and  C_12
REMARK    7  A    between atoms: C_15  and  C_16
REMARK    8  A    between atoms: C_16  and  N_17
REMARK    9  A    between atoms: C_18  and  C_20
REMARK                            x       y       z     vdW  Elec       q    Type
REMARK                         _______ _______ _______ _____ _____    ______ ____
ROOT
ATOM     12  C   UNL     1      45.122   6.351  11.242  0.00  0.00    +0.000 A 
ATOM     13  C   UNL     1      46.522   6.285  11.231  0.00  0.00    +0.000 A 
ATOM     14  C   UNL     1      47.283   7.246  11.900  0.00  0.00    +0.000 A 
ATOM     15  C   UNL     1      46.657   8.285  12.598  0.00  0.00    +0.000 A 
ATOM     30  C   UNL     1      45.262   8.396  12.543  0.00  0.00    +0.000 A 
ATOM     31  C   UNL     1      44.499   7.437  11.875  0.00  0.00    +0.000 A 
ENDROOT
BRANCH  15  16
ATOM     16  C   UNL     1      47.466   9.293  13.373  0.00  0.00    +0.000 C 
BRANCH  16  17
ATOM     17  N   UNL     1      47.646   8.855  14.729  0.00  0.00    +0.000 N 
ATOM     18  C   UNL     1      48.757   8.155  15.123  0.00  0.00    +0.000 C 
ATOM     19  O   UNL     1      49.687   7.915  14.360  0.00  0.00    +0.000 OA
ATOM     32  H   UNL     1      46.814   8.831  15.304  0.00  0.00    +0.000 HD
BRANCH  18  20
ATOM     20  C   UNL     1      48.799   7.774  16.540  0.00  0.00    +0.000 A 
ATOM     21  C   UNL     1      49.057   8.735  17.507  0.00  0.00    +0.000 A 
ATOM     22  S   UNL     1      48.963   8.137  19.103  0.00  0.00    +0.000 S 
ATOM     23  C   UNL     1      48.634   6.560  18.552  0.00  0.00    +0.000 A 
ATOM     24  N   UNL     1      48.441   5.537  19.428  0.00  0.00    +0.000 NA
ATOM     25  C   UNL     1      48.228   4.391  18.871  0.00  0.00    +0.000 A 
ATOM     26  N   UNL     1      48.197   4.173  17.517  0.00  0.00    +0.000 N 
ATOM     27  C   UNL     1      48.375   5.177  16.596  0.00  0.00    +0.000 A 
ATOM     28  O   UNL     1      48.329   4.947  15.393  0.00  0.00    +0.000 OA
ATOM     29  C   UNL     1      48.600   6.489  17.172  0.00  0.00    +0.000 A 
ATOM     33  H   UNL     1      48.029   3.251  17.143  0.00  0.00    +0.000 HD
ENDBRANCH  18  20
ENDBRANCH  16  17
ENDBRANCH  15  16
BRANCH  12  11
ATOM     11  C   UNL     1      44.295   5.222  10.657  0.00  0.00    +0.000 C 
BRANCH  11   3
ATOM      3  N   UNL     1      45.038   3.937  10.589  0.00  0.00    +0.000 NA
BRANCH   3   2
ATOM      1  C   UNL     1      43.525   3.247  12.512  0.00  0.00    +0.000 C 
ATOM      2  C   UNL     1      44.913   3.216  11.879  0.00  0.00    +0.000 C 
ENDBRANCH   3   2
BRANCH   3   4
ATOM      4  C   UNL     1      44.538   3.114   9.472  0.00  0.00    +0.000 C 
BRANCH   4   5
ATOM      5  C   UNL     1      45.568   2.744   8.421  0.00  0.00    +0.000 A 
ATOM      6  C   UNL     1      46.091   1.444   8.345  0.00  0.00    +0.000 A 
ATOM      7  C   UNL     1      46.953   1.083   7.306  0.00  0.00    +0.000 A 
ATOM      8  C   UNL     1      47.302   2.016   6.332  0.00  0.00    +0.000 A 
ATOM      9  C   UNL     1      46.808   3.317   6.407  0.00  0.00    +0.000 A 
ATOM     10  C   UNL     1      45.948   3.680   7.446  0.00  0.00    +0.000 A 
ENDBRANCH   4   5
ENDBRANCH   3   4
ENDBRANCH  11   3
ENDBRANCH  12  11
TORSDOF 8
ENDMDL
MODEL 3
REMARK VINA RESULT:    -7.685      2.363      2.959
REMARK INTER + INTRA:         -12.886
REMARK INTER:                 -11.624
REMARK INTRA:                  -1.262
REMARK UNBOUND:                -1.607
REMARK  Name = 
REMARK  9 active torsions:
REMARK  status: ('A' for Active; 'I' for Inactive)
REMARK    1  A    between atoms: C_1  and  C_2
REMARK    2  A    between atoms: C_2  and  N_3
REMARK    3  A    between atoms: N_3  and  C_4
REMARK    4  A    between atoms: N_3  and  C_11
REMARK    5  A    between atoms: C_4  and  C_5
REMARK    6  A    between atoms: C_11  and  C_12
REMARK    7  A    between atoms: C_15  and  C_16
REMARK    8  A    between atoms: C_16  and  N_17
REMARK    9  A    between atoms: C_18  and  C_20
REMARK                            x       y       z     vdW  Elec       q    Type
REMARK                         _______ _______ _______ _____ _____    ______ ____
ROOT
ATOM     12  C   UNL     1      45.863   5.823  11.817  0.00  0.00    +0.000 A 
ATOM     13  C   UNL     1      46.001   5.217  13.074  0.00  0.00    +0.000 A 
ATOM     14  C   UNL     1      47.061   5.559  13.915  0.00  0.00    +0.000 A 
ATOM     15  C   UNL     1      47.999   6.520  13.517  0.00  0.00    +0.000 A 
ATOM     30  C   UNL     1      47.907   7.067  12.231  0.00  0.00    +0.000 A 
ATOM     31  C   UNL     1      46.847   6.726  11.389  0.00  0.00    +0.000 A 
ENDROOT
BRANCH  15  16
ATOM     16  C   UNL     1      49.114   6.941  14.439  0.00  0.00    +0.000 C 
BRANCH  16  17
ATOM     17  N   UNL     1      48.666   6.925  15.805  0.00  0.00    +0.000 N 
ATOM     18  C   UNL     1      49.365   6.274  16.789  0.00  0.00    +0.000 C 
ATOM     19  O   UNL     1      50.439   5.721  16.576  0.00  0.00    +0.000 OA
ATOM     32  H   UNL     1      47.694   7.161  15.958  0.00  0.00    +0.000 HD
BRANCH  18  20
ATOM     20  C   UNL     1      48.782   6.345  18.134  0.00  0.00    +0.000 A 
ATOM     21  C   UNL     1      48.734   5.210  18.930  0.00  0.00    +0.000 A 
ATOM     22  S   UNL     1      48.122   5.500  20.496  0.00  0.00    +0.000 S 
ATOM     23  C   UNL     1      47.844   7.142  20.143  0.00  0.00    +0.000 A 
ATOM     24  N   UNL     1      47.319   7.982  21.076  0.00  0.00    +0.000 NA
ATOM     25  C   UNL     1      47.136   9.192  20.664  0.00  0.00    +0.000 A 
ATOM     26  N   UNL     1      47.426   9.639  19.400  0.00  0.00    +0.000 N 
ATOM     27  C   UNL     1      47.967   8.831  18.429  0.00  0.00    +0.000 A 
ATOM     28  O   UNL     1      48.224   9.268  17.312  0.00  0.00    +0.000 OA
ATOM     29  C   UNL     1      48.209   7.464  18.849  0.00  0.00    +0.000 A 
ATOM     33  H   UNL     1      47.256  10.598  19.136  0.00  0.00    +0.000 HD
ENDBRANCH  18  20
ENDBRANCH  16  17
ENDBRANCH  15  16
BRANCH  12  11
ATOM     11  C   UNL     1      44.626   5.574  10.976  0.00  0.00    +0.000 C 
BRANCH  11   3
ATOM      3  N   UNL     1      44.541   4.179  10.473  0.00  0.00    +0.000 NA
BRANCH   3   2
ATOM      1  C   UNL     1      43.610   2.556  12.194  0.00  0.00    +0.000 C 
ATOM      2  C   UNL     1      43.341   3.515  11.038  0.00  0.00    +0.000 C 
ENDBRANCH   3   2
BRANCH   3   4
ATOM      4  C   UNL     1      44.507   4.167   8.998  0.00  0.00    +0.000 C 
BRANCH   4   5
ATOM      5  C   UNL     1      45.506   3.240   8.329  0.00  0.00    +0.000 A 
ATOM      6  C   UNL     1      45.587   1.885   8.686  0.00  0.00    +0.000 A 
ATOM      7  C   UNL     1      46.429   1.016   7.988  0.00  0.00    +0.000 A 
ATOM      8  C   UNL     1      47.199   1.489   6.927  0.00  0.00    +0.000 A 
ATOM      9  C   UNL     1      47.145   2.837   6.576  0.00  0.00    +0.000 A 
ATOM     10  C   UNL     1      46.305   3.708   7.274  0.00  0.00    +0.000 A 
ENDBRANCH   4   5
ENDBRANCH   3   4
ENDBRANCH  11   3
ENDBRANCH  12  11
TORSDOF 8
ENDMDL
MODEL 4
REMARK VINA RESULT:    -7.617      1.256      1.613
REMARK INTER + INTRA:         -12.786
REMARK INTER:                 -11.344
REMARK INTRA:                  -1.442
REMARK UNBOUND:                -1.607
REMARK  Name = 
REMARK  9 active torsions:
REMARK  status: ('A' for Active; 'I' for Inactive)
REMARK    1  A    between atoms: C_1  and  C_2
REMARK    2  A    between atoms: C_2  and  N_3
REMARK    3  A    between atoms: N_3  and  C_4
REMARK    4  A    between atoms: N_3  and  C_11
REMARK    5  A    between atoms: C_4  and  C_5
REMARK    6  A    between atoms: C_11  and  C_12
REMARK    7  A    between atoms: C_15  and  C_16
REMARK    8  A    between atoms: C_16  and  N_17
REMARK    9  A    between atoms: C_18  and  C_20
REMARK                            x       y       z     vdW  Elec       q    Type
REMARK                         _______ _______ _______ _____ _____    ______ ____
ROOT
ATOM     12  C   UNL     1      45.548   6.688  11.622  0.00  0.00    +0.000 A 
ATOM     13  C   UNL     1      46.913   6.414  11.448  0.00  0.00    +0.000 A 
ATOM     14  C   UNL     1      47.878   7.158  12.130  0.00  0.00    +0.000 A 
ATOM     15  C   UNL     1      47.496   8.184  13.002  0.00  0.00    +0.000 A 
ATOM     30  C   UNL     1      46.138   8.510  13.114  0.00  0.00    +0.000 A 
ATOM     31  C   UNL     1      45.172   7.767  12.434  0.00  0.00    +0.000 A 
ENDROOT
BRANCH  15  16
ATOM     16  C   UNL     1      48.525   8.955  13.787  0.00  0.00    +0.000 C 
BRANCH  16  17
ATOM     17  N   UNL     1      49.000   8.172  14.894  0.00  0.00    +0.000 N 
ATOM     18  C   UNL     1      48.622   8.437  16.186  0.00  0.00    +0.000 C 
ATOM     19  O   UNL     1      47.813   9.315  16.466  0.00  0.00    +0.000 OA
ATOM     32  H   UNL     1      49.827   7.613  14.723  0.00  0.00    +0.000 HD
BRANCH  18  20
ATOM     20  C   UNL     1      49.191   7.551  17.208  0.00  0.00    +0.000 A 
ATOM     21  C   UNL     1      49.957   8.082  18.236  0.00  0.00    +0.000 A 
ATOM     22  S   UNL     1      50.447   6.923  19.389  0.00  0.00    +0.000 S 
ATOM     23  C   UNL     1      49.701   5.663  18.521  0.00  0.00    +0.000 A 
ATOM     24  N   UNL     1      49.744   4.380  18.971  0.00  0.00    +0.000 NA
ATOM     25  C   UNL     1      49.161   3.523  18.200  0.00  0.00    +0.000 A 
ATOM     26  N   UNL     1      48.543   3.832  17.015  0.00  0.00    +0.000 N 
ATOM     27  C   UNL     1      48.466   5.114  16.526  0.00  0.00    +0.000 A 
ATOM     28  O   UNL     1      47.895   5.355  15.468  0.00  0.00    +0.000 OA
ATOM     29  C   UNL     1      49.091   6.118  17.367  0.00  0.00    +0.000 A 
ATOM     33  H   UNL     1      48.108   3.115  16.454  0.00  0.00    +0.000 HD
ENDBRANCH  18  20
ENDBRANCH  16  17
ENDBRANCH  15  16
BRANCH  12  11
ATOM     11  C   UNL     1      44.499   5.777  11.013  0.00  0.00    +0.000 C 
BRANCH  11   3
ATOM      3  N   UNL     1      45.044   4.455  10.613  0.00  0.00    +0.000 NA
BRANCH   3   2
ATOM      1  C   UNL     1      43.317   2.972  11.744  0.00  0.00    +0.000 C 
ATOM      2  C   UNL     1      44.763   3.455  11.671  0.00  0.00    +0.000 C 
ENDBRANCH   3   2
BRANCH   3   4
ATOM      4  C   UNL     1      44.470   4.032   9.320  0.00  0.00    +0.000 C 
BRANCH   4   5
ATOM      5  C   UNL     1      45.397   3.232   8.424  0.00  0.00    +0.000 A 
ATOM      6  C   UNL     1      46.170   3.861   7.436  0.00  0.00    +0.000 A 
ATOM      7  C   UNL     1      47.103   3.133   6.693  0.00  0.00    +0.000 A 
ATOM      8  C   UNL     1      47.274   1.770   6.928  0.00  0.00    +0.000 A 
ATOM      9  C   UNL     1      46.498   1.128   7.891  0.00  0.00    +0.000 A 
ATOM     10  C   UNL     1      45.564   1.854   8.634  0.00  0.00    +0.000 A 
ENDBRANCH   4   5
ENDBRANCH   3   4
ENDBRANCH  11   3
ENDBRANCH  12  11
TORSDOF 8
ENDMDL
MODEL 5
REMARK VINA RESULT:    -7.327      2.785      3.637
REMARK INTER + INTRA:         -12.361
REMARK INTER:                 -11.377
REMARK INTRA:                  -0.985
REMARK UNBOUND:                -1.607
REMARK  Name = 
REMARK  9 active torsions:
REMARK  status: ('A' for Active; 'I' for Inactive)
REMARK    1  A    between atoms: C_1  and  C_2
REMARK    2  A    between atoms: C_2  and  N_3
REMARK    3  A    between atoms: N_3  and  C_4
REMARK    4  A    between atoms: N_3  and  C_11
REMARK    5  A    between atoms: C_4  and  C_5
REMARK    6  A    between atoms: C_11  and  C_12
REMARK    7  A    between atoms: C_15  and  C_16
REMARK    8  A    between atoms: C_16  and  N_17
REMARK    9  A    between atoms: C_18  and  C_20
REMARK                            x       y       z     vdW  Elec       q    Type
REMARK                         _______ _______ _______ _____ _____    ______ ____
ROOT
ATOM     12  C   UNL     1      46.360   5.214  12.365  0.00  0.00    +0.000 A 
ATOM     13  C   UNL     1      46.196   3.941  12.930  0.00  0.00    +0.000 A 
ATOM     14  C   UNL     1      46.572   3.697  14.252  0.00  0.00    +0.000 A 
ATOM     15  C   UNL     1      47.113   4.725  15.036  0.00  0.00    +0.000 A 
ATOM     30  C   UNL     1      47.350   5.973  14.447  0.00  0.00    +0.000 A 
ATOM     31  C   UNL     1      46.974   6.219  13.126  0.00  0.00    +0.000 A 
ENDROOT
BRANCH  15  16
ATOM     16  C   UNL     1      47.468   4.489  16.481  0.00  0.00    +0.000 C 
BRANCH  16  17
ATOM     17  N   UNL     1      48.881   4.269  16.619  0.00  0.00    +0.000 N 
ATOM     18  C   UNL     1      49.518   4.382  17.828  0.00  0.00    +0.000 C 
ATOM     19  O   UNL     1      48.913   4.616  18.869  0.00  0.00    +0.000 OA
ATOM     32  H   UNL     1      49.425   4.309  15.766  0.00  0.00    +0.000 HD
BRANCH  18  20
ATOM     20  C   UNL     1      50.963   4.128  17.811  0.00  0.00    +0.000 A 
ATOM     21  C   UNL     1      51.852   5.174  18.015  0.00  0.00    +0.000 A 
ATOM     22  S   UNL     1      53.485   4.680  18.066  0.00  0.00    +0.000 S 
ATOM     23  C   UNL     1      53.062   3.060  17.758  0.00  0.00    +0.000 A 
ATOM     24  N   UNL     1      54.013   2.090  17.674  0.00  0.00    +0.000 NA
ATOM     25  C   UNL     1      53.553   0.913  17.409  0.00  0.00    +0.000 A 
ATOM     26  N   UNL     1      52.229   0.617  17.213  0.00  0.00    +0.000 N 
ATOM     27  C   UNL     1      51.233   1.560  17.299  0.00  0.00    +0.000 A 
ATOM     28  O   UNL     1      50.057   1.257  17.129  0.00  0.00    +0.000 OA
ATOM     29  C   UNL     1      51.697   2.898  17.614  0.00  0.00    +0.000 A 
ATOM     33  H   UNL     1      51.932  -0.325  17.004  0.00  0.00    +0.000 HD
ENDBRANCH  18  20
ENDBRANCH  16  17
ENDBRANCH  15  16
BRANCH  12  11
ATOM     11  C   UNL     1      45.801   5.521  10.989  0.00  0.00    +0.000 C 
BRANCH  11   3
ATOM      3  N   UNL     1      45.037   4.386  10.410  0.00  0.00    +0.000 NA
BRANCH   3   2
ATOM      1  C   UNL     1      43.028   5.778  11.112  0.00  0.00    +0.000 C 
ATOM      2  C   UNL     1      43.650   4.396  10.935  0.00  0.00    +0.000 C 
ENDBRANCH   3   2
BRANCH   3   4
ATOM      4  C   UNL     1      45.043   4.463   8.936  0.00  0.00    +0.000 C 
BRANCH   4   5
ATOM      5  C   UNL     1      45.790   3.346   8.228  0.00  0.00    +0.000 A 
ATOM      6  C   UNL     1      46.728   3.627   7.223  0.00  0.00    +0.000 A 
ATOM      7  C   UNL     1      47.491   2.603   6.657  0.00  0.00    +0.000 A 
ATOM      8  C   UNL     1      47.326   1.288   7.087  0.00  0.00    +0.000 A 
ATOM      9  C   UNL     1      46.381   0.991   8.068  0.00  0.00    +0.000 A 
ATOM     10  C   UNL     1      45.617   2.014   8.634  0.00  0.00    +0.000 A 
ENDBRANCH   4   5
ENDBRANCH   3   4
ENDBRANCH  11   3
ENDBRANCH  12  11
TORSDOF 8
ENDMDL
MODEL 6
REMARK VINA RESULT:    -7.186      2.177      2.565
REMARK INTER + INTRA:         -12.153
REMARK INTER:                 -11.492
REMARK INTRA:                  -0.661
REMARK UNBOUND:                -1.607
REMARK  Name = 
REMARK  9 active torsions:
REMARK  status: ('A' for Active; 'I' for Inactive)
REMARK    1  A    between atoms: C_1  and  C_2
REMARK    2  A    between atoms: C_2  and  N_3
REMARK    3  A    between atoms: N_3  and  C_4
REMARK    4  A    between atoms: N_3  and  C_11
REMARK    5  A    between atoms: C_4  and  C_5
REMARK    6  A    between atoms: C_11  and  C_12
REMARK    7  A    between atoms: C_15  and  C_16
REMARK    8  A    between atoms: C_16  and  N_17
REMARK    9  A    between atoms: C_18  and  C_20
REMARK                            x       y       z     vdW  Elec       q    Type
REMARK                         _______ _______ _______ _____ _____    ______ ____
ROOT
ATOM     12  C   UNL     1      46.767   6.156  11.729  0.00  0.00    +0.000 A 
ATOM     13  C   UNL     1      46.654   5.360  12.878  0.00  0.00    +0.000 A 
ATOM     14  C   UNL     1      47.258   5.752  14.074  0.00  0.00    +0.000 A 
ATOM     15  C   UNL     1      47.979   6.951  14.144  0.00  0.00    +0.000 A 
ATOM     30  C   UNL     1      48.159   7.704  12.978  0.00  0.00    +0.000 A 
ATOM     31  C   UNL     1      47.555   7.314  11.781  0.00  0.00    +0.000 A 
ENDROOT
BRANCH  15  16
ATOM     16  C   UNL     1      48.585   7.413  15.444  0.00  0.00    +0.000 C 
BRANCH  16  17
ATOM     17  N   UNL     1      49.654   6.537  15.837  0.00  0.00    +0.000 N 
ATOM     18  C   UNL     1      49.740   6.023  17.106  0.00  0.00    +0.000 C 
ATOM     19  O   UNL     1      48.883   6.229  17.958  0.00  0.00    +0.000 OA
ATOM     32  H   UNL     1      50.475   6.542  15.246  0.00  0.00    +0.000 HD
BRANCH  18  20
ATOM     20  C   UNL     1      50.889   5.144  17.358  0.00  0.00    +0.000 A 
ATOM     21  C   UNL     1      52.123   5.692  17.678  0.00  0.00    +0.000 A 
ATOM     22  S   UNL     1      53.313   4.524  18.040  0.00  0.00    +0.000 S 
ATOM     23  C   UNL     1      52.235   3.246  17.723  0.00  0.00    +0.000 A 
ATOM     24  N   UNL     1      52.628   1.949  17.848  0.00  0.00    +0.000 NA
ATOM     25  C   UNL     1      51.716   1.084  17.550  0.00  0.00    +0.000 A 
ATOM     26  N   UNL     1      50.448   1.397  17.131  0.00  0.00    +0.000 N 
ATOM     27  C   UNL     1      50.004   2.691  17.001  0.00  0.00    +0.000 A 
ATOM     28  O   UNL     1      48.859   2.933  16.635  0.00  0.00    +0.000 OA
ATOM     29  C   UNL     1      50.986   3.702  17.343  0.00  0.00    +0.000 A 
ATOM     33  H   UNL     1      49.781   0.673  16.908  0.00  0.00    +0.000 HD
ENDBRANCH  18  20
ENDBRANCH  16  17
ENDBRANCH  15  16
BRANCH  12  11
ATOM     11  C   UNL     1      45.978   5.815  10.479  0.00  0.00    +0.000 C 
BRANCH  11   3
ATOM      3  N   UNL     1      45.065   4.658  10.669  0.00  0.00    +0.000 NA
BRANCH   3   2
ATOM      1  C   UNL     1      43.291   3.886  12.317  0.00  0.00    +0.000 C 
ATOM      2  C   UNL     1      43.951   5.041  11.570  0.00  0.00    +0.000 C 
ENDBRANCH   3   2
BRANCH   3   4
ATOM      4  C   UNL     1      44.554   4.189   9.367  0.00  0.00    +0.000 C 
BRANCH   4   5
ATOM      5  C   UNL     1      45.496   3.296   8.579  0.00  0.00    +0.000 A 
ATOM      6  C   UNL     1      45.581   1.921   8.845  0.00  0.00    +0.000 A 
ATOM      7  C   UNL     1      46.365   1.089   8.042  0.00  0.00    +0.000 A 
ATOM      8  C   UNL     1      47.072   1.621   6.965  0.00  0.00    +0.000 A 
ATOM      9  C   UNL     1      47.014   2.988   6.703  0.00  0.00    +0.000 A 
ATOM     10  C   UNL     1      46.232   3.821   7.506  0.00  0.00    +0.000 A 
ENDBRANCH   4   5
ENDBRANCH   3   4
ENDBRANCH  11   3
ENDBRANCH  12  11
TORSDOF 8
ENDMDL
MODEL 7
REMARK VINA RESULT:    -6.970      2.917      4.764
REMARK INTER + INTRA:         -11.836
REMARK INTER:                 -10.513
REMARK INTRA:                  -1.323
REMARK UNBOUND:                -1.607
REMARK  Name = 
REMARK  9 active torsions:
REMARK  status: ('A' for Active; 'I' for Inactive)
REMARK    1  A    between atoms: C_1  and  C_2
REMARK    2  A    between atoms: C_2  and  N_3
REMARK    3  A    between atoms: N_3  and  C_4
REMARK    4  A    between atoms: N_3  and  C_11
REMARK    5  A    between atoms: C_4  and  C_5
REMARK    6  A    between atoms: C_11  and  C_12
REMARK    7  A    between atoms: C_15  and  C_16
REMARK    8  A    between atoms: C_16  and  N_17
REMARK    9  A    between atoms: C_18  and  C_20
REMARK                            x       y       z     vdW  Elec       q    Type
REMARK                         _______ _______ _______ _____ _____    ______ ____
ROOT
ATOM     12  C   UNL     1      47.288   5.895  13.628  0.00  0.00    +0.000 A 
ATOM     13  C   UNL     1      46.646   4.651  13.712  0.00  0.00    +0.000 A 
ATOM     14  C   UNL     1      46.761   3.870  14.863  0.00  0.00    +0.000 A 
ATOM     15  C   UNL     1      47.514   4.321  15.954  0.00  0.00    +0.000 A 
ATOM     30  C   UNL     1      48.220   5.526  15.839  0.00  0.00    +0.000 A 
ATOM     31  C   UNL     1      48.106   6.309  14.689  0.00  0.00    +0.000 A 
ENDROOT
BRANCH  15  16
ATOM     16  C   UNL     1      47.597   3.514  17.223  0.00  0.00    +0.000 C 
BRANCH  16  17
ATOM     17  N   UNL     1      48.970   3.290  17.585  0.00  0.00    +0.000 N 
ATOM     18  C   UNL     1      49.745   2.357  16.944  0.00  0.00    +0.000 C 
ATOM     19  O   UNL     1      49.335   1.706  15.989  0.00  0.00    +0.000 OA
ATOM     32  H   UNL     1      49.253   3.631  18.494  0.00  0.00    +0.000 HD
BRANCH  18  20
ATOM     20  C   UNL     1      51.127   2.242  17.425  0.00  0.00    +0.000 A 
ATOM     21  C   UNL     1      51.694   0.989  17.608  0.00  0.00    +0.000 A 
ATOM     22  S   UNL     1      53.336   1.045  18.070  0.00  0.00    +0.000 S 
ATOM     23  C   UNL     1      53.327   2.747  18.100  0.00  0.00    +0.000 A 
ATOM     24  N   UNL     1      54.446   3.450  18.426  0.00  0.00    +0.000 NA
ATOM     25  C   UNL     1      54.288   4.732  18.435  0.00  0.00    +0.000 A 
ATOM     26  N   UNL     1      53.111   5.376  18.154  0.00  0.00    +0.000 N 
ATOM     27  C   UNL     1      51.959   4.710  17.809  0.00  0.00    +0.000 A 
ATOM     28  O   UNL     1      50.927   5.320  17.552  0.00  0.00    +0.000 OA
ATOM     29  C   UNL     1      52.089   3.266  17.766  0.00  0.00    +0.000 A 
ATOM     33  H   UNL     1      53.050   6.383  18.182  0.00  0.00    +0.000 HD
ENDBRANCH  18  20
ENDBRANCH  16  17
ENDBRANCH  15  16
BRANCH  12  11
ATOM     11  C   UNL     1      47.031   6.814  12.449  0.00  0.00    +0.000 C 
BRANCH  11   3
ATOM      3  N   UNL     1      45.769   6.495  11.733  0.00  0.00    +0.000 NA
BRANCH   3   2
ATOM      1  C   UNL     1      45.429   8.931  12.375  0.00  0.00    +0.000 C 
ATOM      2  C   UNL     1      44.825   7.632  11.850  0.00  0.00    +0.000 C 
ENDBRANCH   3   2
BRANCH   3   4
ATOM      4  C   UNL     1      46.047   6.183  10.318  0.00  0.00    +0.000 C 
BRANCH   4   5
ATOM      5  C   UNL     1      45.447   4.886   9.805  0.00  0.00    +0.000 A 
ATOM      6  C   UNL     1      45.695   4.441   8.498  0.00  0.00    +0.000 A 
ATOM      7  C   UNL     1      45.232   3.193   8.072  0.00  0.00    +0.000 A 
ATOM      8  C   UNL     1      44.516   2.377   8.946  0.00  0.00    +0.000 A 
ATOM      9  C   UNL     1      44.243   2.817  10.240  0.00  0.00    +0.000 A 
ATOM     10  C   UNL     1      44.704   4.064  10.667  0.00  0.00    +0.000 A 
ENDBRANCH   4   5
ENDBRANCH   3   4
ENDBRANCH  11   3
ENDBRANCH  12  11
TORSDOF 8
ENDMDL
MODEL 8
REMARK VINA RESULT:    -6.808      2.892      8.242
REMARK INTER + INTRA:         -11.599
REMARK INTER:                  -9.681
REMARK INTRA:                  -1.918
REMARK UNBOUND:                -1.607
REMARK  Name = 
REMARK  9 active torsions:
REMARK  status: ('A' for Active; 'I' for Inactive)
REMARK    1  A    between atoms: C_1  and  C_2
REMARK    2  A    between atoms: C_2  and  N_3
REMARK    3  A    between atoms: N_3  and  C_4
REMARK    4  A    between atoms: N_3  and  C_11
REMARK    5  A    between atoms: C_4  and  C_5
REMARK    6  A    between atoms: C_11  and  C_12
REMARK    7  A    between atoms: C_15  and  C_16
REMARK    8  A    between atoms: C_16  and  N_17
REMARK    9  A    between atoms: C_18  and  C_20
REMARK                            x       y       z     vdW  Elec       q    Type
REMARK                         _______ _______ _______ _____ _____    ______ ____
ROOT
ATOM     12  C   UNL     1      48.906   8.265  16.156  0.00  0.00    +0.000 A 
ATOM     13  C   UNL     1      48.176   9.267  15.500  0.00  0.00    +0.000 A 
ATOM     14  C   UNL     1      47.853   9.139  14.148  0.00  0.00    +0.000 A 
ATOM     15  C   UNL     1      48.248   8.004  13.430  0.00  0.00    +0.000 A 
ATOM     30  C   UNL     1      49.045   7.042  14.064  0.00  0.00    +0.000 A 
ATOM     31  C   UNL     1      49.368   7.168  15.416  0.00  0.00    +0.000 A 
ENDROOT
BRANCH  15  16
ATOM     16  C   UNL     1      47.855   7.828  11.986  0.00  0.00    +0.000 C 
BRANCH  16  17
ATOM     17  N   UNL     1      47.116   6.608  11.814  0.00  0.00    +0.000 N 
ATOM     18  C   UNL     1      45.745   6.583  11.822  0.00  0.00    +0.000 C 
ATOM     19  O   UNL     1      45.070   7.603  11.914  0.00  0.00    +0.000 OA
ATOM     32  H   UNL     1      47.629   5.749  11.970  0.00  0.00    +0.000 HD
BRANCH  18  20
ATOM     20  C   UNL     1      45.132   5.263  11.635  0.00  0.00    +0.000 A 
ATOM     21  C   UNL     1      44.501   4.636  12.700  0.00  0.00    +0.000 A 
ATOM     22  S   UNL     1      43.756   3.159  12.276  0.00  0.00    +0.000 S 
ATOM     23  C   UNL     1      44.305   3.280  10.669  0.00  0.00    +0.000 A 
ATOM     24  N   UNL     1      44.009   2.318   9.753  0.00  0.00    +0.000 NA
ATOM     25  C   UNL     1      44.512   2.525   8.581  0.00  0.00    +0.000 A 
ATOM     26  N   UNL     1      45.290   3.602   8.243  0.00  0.00    +0.000 N 
ATOM     27  C   UNL     1      45.605   4.602   9.131  0.00  0.00    +0.000 A 
ATOM     28  O   UNL     1      46.295   5.557   8.790  0.00  0.00    +0.000 OA
ATOM     29  C   UNL     1      45.048   4.427  10.459  0.00  0.00    +0.000 A 
ATOM     33  H   UNL     1      45.658   3.705   7.309  0.00  0.00    +0.000 HD
ENDBRANCH  18  20
ENDBRANCH  16  17
ENDBRANCH  15  16
BRANCH  12  11
ATOM     11  C   UNL     1      49.114   8.326  17.658  0.00  0.00    +0.000 C 
BRANCH  11   3
ATOM      3  N   UNL     1      49.861   7.155  18.185  0.00  0.00    +0.000 NA
BRANCH   3   2
ATOM      1  C   UNL     1      52.193   6.787  19.128  0.00  0.00    +0.000 C 
ATOM      2  C   UNL     1      50.911   7.613  19.127  0.00  0.00    +0.000 C 
ENDBRANCH   3   2
BRANCH   3   4
ATOM      4  C   UNL     1      48.938   6.210  18.841  0.00  0.00    +0.000 C 
BRANCH   4   5
ATOM      5  C   UNL     1      48.788   4.863  18.156  0.00  0.00    +0.000 A 
ATOM      6  C   UNL     1      47.613   4.530  17.464  0.00  0.00    +0.000 A 
ATOM      7  C   UNL     1      47.527   3.336  16.744  0.00  0.00    +0.000 A 
ATOM      8  C   UNL     1      48.612   2.462  16.706  0.00  0.00    +0.000 A 
ATOM      9  C   UNL     1      49.777   2.770  17.407  0.00  0.00    +0.000 A 
ATOM     10  C   UNL     1      49.864   3.962  18.129  0.00  0.00    +0.000 A 
ENDBRANCH   4   5
ENDBRANCH   3   4
ENDBRANCH  11   3
ENDBRANCH  12  11
TORSDOF 8
ENDMDL
MODEL 9
REMARK VINA RESULT:    -6.804      3.397      8.235
REMARK INTER + INTRA:         -11.593
REMARK INTER:                  -9.114
REMARK INTRA:                  -2.479
REMARK UNBOUND:                -1.607
REMARK  Name = 
REMARK  9 active torsions:
REMARK  status: ('A' for Active; 'I' for Inactive)
REMARK    1  A    between atoms: C_1  and  C_2
REMARK    2  A    between atoms: C_2  and  N_3
REMARK    3  A    between atoms: N_3  and  C_4
REMARK    4  A    between atoms: N_3  and  C_11
REMARK    5  A    between atoms: C_4  and  C_5
REMARK    6  A    between atoms: C_11  and  C_12
REMARK    7  A    between atoms: C_15  and  C_16
REMARK    8  A    between atoms: C_16  and  N_17
REMARK    9  A    between atoms: C_18  and  C_20
REMARK                            x       y       z     vdW  Elec       q    Type
REMARK                         _______ _______ _______ _____ _____    ______ ____
ROOT
ATOM     12  C   UNL     1      49.546   7.654  18.477  0.00  0.00    +0.000 A 
ATOM     13  C   UNL     1      48.495   8.551  18.237  0.00  0.00    +0.000 A 
ATOM     14  C   UNL     1      48.118   8.868  16.931  0.00  0.00    +0.000 A 
ATOM     15  C   UNL     1      48.779   8.287  15.841  0.00  0.00    +0.000 A 
ATOM     30  C   UNL     1      49.879   7.454  16.081  0.00  0.00    +0.000 A 
ATOM     31  C   UNL     1      50.258   7.135  17.386  0.00  0.00    +0.000 A 
ENDROOT
BRANCH  15  16
ATOM     16  C   UNL     1      48.342   8.576  14.429  0.00  0.00    +0.000 C 
BRANCH  16  17
ATOM     17  N   UNL     1      47.372   7.608  13.997  0.00  0.00    +0.000 N 
ATOM     18  C   UNL     1      47.717   6.537  13.212  0.00  0.00    +0.000 C 
ATOM     19  O   UNL     1      48.877   6.309  12.884  0.00  0.00    +0.000 OA
ATOM     32  H   UNL     1      46.403   7.893  14.051  0.00  0.00    +0.000 HD
BRANCH  18  20
ATOM     20  C   UNL     1      46.617   5.635  12.850  0.00  0.00    +0.000 A 
ATOM     21  C   UNL     1      46.739   4.271  13.071  0.00  0.00    +0.000 A 
ATOM     22  S   UNL     1      45.328   3.390  12.689  0.00  0.00    +0.000 S 
ATOM     23  C   UNL     1      44.527   4.795  12.159  0.00  0.00    +0.000 A 
ATOM     24  N   UNL     1      43.250   4.741  11.693  0.00  0.00    +0.000 NA
ATOM     25  C   UNL     1      42.777   5.877  11.299  0.00  0.00    +0.000 A 
ATOM     26  N   UNL     1      43.467   7.062  11.323  0.00  0.00    +0.000 N 
ATOM     27  C   UNL     1      44.753   7.166  11.795  0.00  0.00    +0.000 A 
ATOM     28  O   UNL     1      45.336   8.245  11.813  0.00  0.00    +0.000 OA
ATOM     29  C   UNL     1      45.325   5.919  12.268  0.00  0.00    +0.000 A 
ATOM     33  H   UNL     1      43.043   7.917  10.997  0.00  0.00    +0.000 HD
ENDBRANCH  18  20
ENDBRANCH  16  17
ENDBRANCH  15  16
BRANCH  12  11
ATOM     11  C   UNL     1      49.847   7.184  19.888  0.00  0.00    +0.000 C 
BRANCH  11   3
ATOM      3  N   UNL     1      50.142   5.730  19.962  0.00  0.00    +0.000 NA
BRANCH   3   2
ATOM      1  C   UNL     1      52.249   4.622  20.855  0.00  0.00    +0.000 C 
ATOM      2  C   UNL     1      51.001   5.452  21.139  0.00  0.00    +0.000 C 
ENDBRANCH   3   2
BRANCH   3   4
ATOM      4  C   UNL     1      48.888   4.955  20.027  0.00  0.00    +0.000 C 
BRANCH   4   5
ATOM      5  C   UNL     1      48.480   4.265  18.739  0.00  0.00    +0.000 A 
ATOM      6  C   UNL     1      47.399   4.735  17.977  0.00  0.00    +0.000 A 
ATOM      7  C   UNL     1      47.101   4.163  16.737  0.00  0.00    +0.000 A 
ATOM      8  C   UNL     1      47.879   3.116  16.245  0.00  0.00    +0.000 A 
ATOM      9  C   UNL     1      48.941   2.625  17.001  0.00  0.00    +0.000 A 
ATOM     10  C   UNL     1      49.239   3.194  18.241  0.00  0.00    +0.000 A 
ENDBRANCH   4   5
ENDBRANCH   3   4
ENDBRANCH  11   3
ENDBRANCH  12  11
TORSDOF 8
ENDMDL
