MODEL 1
REMARK VINA RESULT:    -8.421      0.000      0.000
REMARK INTER + INTRA:         -10.773
REMARK INTER:                 -10.882
REMARK INTRA:                   0.109
REMARK UNBOUND:                 0.109
REMARK  Name = 
REMARK  5 active torsions:
REMARK  status: ('A' for Active; 'I' for Inactive)
REMARK    1  A    between atoms: C_2  and  C_18
REMARK    2  A    between atoms: N_3  and  C_4
REMARK    3  A    between atoms: C_4  and  C_5
REMARK    4  A    between atoms: C_8  and  C_9
REMARK    5  A    between atoms: C_9  and  N_10
REMARK                            x       y       z     vdW  Elec       q    Type
REMARK                         _______ _______ _______ _____ _____    ______ ____
ROOT
ATOM      1  O   UNL     1      49.118   6.644  13.460  0.00  0.00    +0.000 OA
ATOM      2  C   UNL     1      48.277   6.468  14.338  0.00  0.00    +0.000 C 
ATOM      3  N   UNL     1      46.930   6.555  14.082  0.00  0.00    +0.000 N 
ATOM     28  H   UNL     1      46.277   6.615  14.857  0.00  0.00    +0.000 HD
ENDROOT
BRANCH   2  18
ATOM     18  C   UNL     1      48.671   6.114  15.705  0.00  0.00    +0.000 A 
ATOM     19  C   UNL     1      49.435   7.000  16.453  0.00  0.00    +0.000 A 
ATOM     20  S   UNL     1      49.799   6.438  18.020  0.00  0.00    +0.000 S 
ATOM     21  C   UNL     1      48.906   5.009  17.773  0.00  0.00    +0.000 A 
ATOM     22  N   UNL     1      48.774   4.089  18.764  0.00  0.00    +0.000 NA
ATOM     23  C   UNL     1      48.041   3.071  18.454  0.00  0.00    +0.000 A 
ATOM     24  N   UNL     1      47.440   2.890  17.233  0.00  0.00    +0.000 N 
ATOM     25  C   UNL     1      47.582   3.773  16.188  0.00  0.00    +0.000 A 
ATOM     26  O   UNL     1      47.076   3.547  15.092  0.00  0.00    +0.000 OA
ATOM     27  C   UNL     1      48.366   4.949  16.501  0.00  0.00    +0.000 A 
ATOM     29  H   UNL     1      46.894   2.060  17.048  0.00  0.00    +0.000 HD
ENDBRANCH   2  18
BRANCH   3   4
ATOM      4  C   UNL     1      46.467   7.015  12.798  0.00  0.00    +0.000 C 
BRANCH   4   5
ATOM      5  C   UNL     1      45.880   5.903  11.974  0.00  0.00    +0.000 A 
ATOM      6  C   UNL     1      45.453   6.146  10.661  0.00  0.00    +0.000 A 
ATOM      7  C   UNL     1      44.963   5.106   9.866  0.00  0.00    +0.000 A 
ATOM      8  C   UNL     1      44.874   3.803  10.373  0.00  0.00    +0.000 A 
ATOM     16  C   UNL     1      45.255   3.570  11.702  0.00  0.00    +0.000 A 
ATOM     17  C   UNL     1      45.749   4.610  12.496  0.00  0.00    +0.000 A 
BRANCH   8   9
ATOM      9  C   UNL     1      44.340   2.678   9.511  0.00  0.00    +0.000 C 
BRANCH   9  10
ATOM     10  N   UNL     1      45.098   2.443   8.258  0.00  0.00    +0.000 NA
ATOM     11  C   UNL     1      45.792   3.670   7.830  0.00  0.00    +0.000 C 
ATOM     12  C   UNL     1      46.725   3.447   6.635  0.00  0.00    +0.000 C 
ATOM     13  C   UNL     1      47.725   2.338   6.922  0.00  0.00    +0.000 C 
ATOM     14  C   UNL     1      46.974   1.071   7.300  0.00  0.00    +0.000 C 
ATOM     15  C   UNL     1      46.033   1.323   8.477  0.00  0.00    +0.000 C 
ENDBRANCH   9  10
ENDBRANCH   8   9
ENDBRANCH   4   5
ENDBRANCH   3   4
TORSDOF 5
ENDMDL
MODEL 2
REMARK VINA RESULT:    -8.102      1.544      1.970
REMARK INTER + INTRA:         -10.361
REMARK INTER:                  -9.989
REMARK INTRA:                  -0.371
REMARK UNBOUND:                 0.109
REMARK  Name = 
REMARK  5 active torsions:
REMARK  status: ('A' for Active; 'I' for Inactive)
REMARK    1  A    between atoms: C_2  and  C_18
REMARK    2  A    between atoms: N_3  and  C_4
REMARK    3  A    between atoms: C_4  and  C_5
REMARK    4  A    between atoms: C_8  and  C_9
REMARK    5  A    between atoms: C_9  and  N_10
REMARK                            x       y       z     vdW  Elec       q    Type
REMARK                         _______ _______ _______ _____ _____    ______ ____
ROOT
ATOM      1  O   UNL     1      50.236   6.647  15.307  0.00  0.00    +0.000 OA
ATOM      2  C   UNL     1      49.103   6.772  15.764  0.00  0.00    +0.000 C 
ATOM      3  N   UNL     1      47.996   6.839  14.954  0.00  0.00    +0.000 N 
ATOM     28  H   UNL     1      47.111   7.152  15.341  0.00  0.00    +0.000 HD
ENDROOT
BRANCH   2  18
ATOM     18  C   UNL     1      48.869   6.817  17.211  0.00  0.00    +0.000 A 
ATOM     19  C   UNL     1      48.538   8.020  17.819  0.00  0.00    +0.000 A 
ATOM     20  S   UNL     1      48.295   7.894  19.500  0.00  0.00    +0.000 S 
ATOM     21  C   UNL     1      48.576   6.215  19.470  0.00  0.00    +0.000 A 
ATOM     22  N   UNL     1      48.478   5.470  20.603  0.00  0.00    +0.000 NA
ATOM     23  C   UNL     1      48.681   4.206  20.431  0.00  0.00    +0.000 A 
ATOM     24  N   UNL     1      48.985   3.626  19.224  0.00  0.00    +0.000 N 
ATOM     25  C   UNL     1      49.137   4.346  18.062  0.00  0.00    +0.000 A 
ATOM     26  O   UNL     1      49.467   3.798  17.013  0.00  0.00    +0.000 OA
ATOM     27  C   UNL     1      48.884   5.764  18.199  0.00  0.00    +0.000 A 
ATOM     29  H   UNL     1      49.151   2.631  19.160  0.00  0.00    +0.000 HD
ENDBRANCH   2  18
BRANCH   3   4
ATOM      4  C   UNL     1      48.151   6.924  13.524  0.00  0.00    +0.000 C 
BRANCH   4   5
ATOM      5  C   UNL     1      46.996   6.302  12.789  0.00  0.00    +0.000 A 
ATOM      6  C   UNL     1      46.369   6.994  11.743  0.00  0.00    +0.000 A 
ATOM      7  C   UNL     1      45.335   6.401  11.015  0.00  0.00    +0.000 A 
ATOM      8  C   UNL     1      44.895   5.108  11.326  0.00  0.00    +0.000 A 
ATOM     16  C   UNL     1      45.489   4.435  12.403  0.00  0.00    +0.000 A 
ATOM     17  C   UNL     1      46.527   5.028  13.131  0.00  0.00    +0.000 A 
BRANCH   8   9
ATOM      9  C   UNL     1      43.772   4.467  10.536  0.00  0.00    +0.000 C 
BRANCH   9  10
ATOM     10  N   UNL     1      44.210   3.707   9.341  0.00  0.00    +0.000 NA
ATOM     11  C   UNL     1      45.319   4.398   8.661  0.00  0.00    +0.000 C 
ATOM     12  C   UNL     1      45.925   3.580   7.515  0.00  0.00    +0.000 C 
ATOM     13  C   UNL     1      46.364   2.206   7.998  0.00  0.00    +0.000 C 
ATOM     14  C   UNL     1      45.181   1.497   8.638  0.00  0.00    +0.000 C 
ATOM     15  C   UNL     1      44.579   2.342   9.760  0.00  0.00    +0.000 C 
ENDBRANCH   9  10
ENDBRANCH   8   9
ENDBRANCH   4   5
ENDBRANCH   3   4
TORSDOF 5
ENDMDL
MODEL 3
REMARK VINA RESULT:    -7.930      1.132      1.770
REMARK INTER + INTRA:         -10.139
REMARK INTER:                  -9.573
REMARK INTRA:                  -0.566
REMARK UNBOUND:                 0.109
REMARK  Name = 
REMARK  5 active torsions:
REMARK  status: ('A' for Active; 'I' for Inactive)
REMARK    1  A    between atoms: C_2  and  C_18
REMARK    2  A    between atoms: N_3  and  C_4
REMARK    3  A    between atoms: C_4  and  C_5
REMARK    4  A    between atoms: C_8  and  C_9
REMARK    5  A    between atoms: C_9  and  N_10
REMARK                            x       y       z     vdW  Elec       q    Type
REMARK                         _______ _______ _______ _____ _____    ______ ____
ROOT
ATOM      1  O   UNL     1      49.833   7.015  13.941  0.00  0.00    +0.000 OA
ATOM      2  C   UNL     1      49.017   7.045  14.859  0.00  0.00    +0.000 C 
ATOM      3  N   UNL     1      47.725   7.472  14.669  0.00  0.00    +0.000 N 
ATOM     28  H   UNL     1      47.145   7.685  15.475  0.00  0.00    +0.000 HD
ENDROOT
BRANCH   2  18
ATOM     18  C   UNL     1      49.373   6.586  16.205  0.00  0.00    +0.000 A 
ATOM     19  C   UNL     1      50.245   7.337  16.981  0.00  0.00    +0.000 A 
ATOM     20  S   UNL     1      50.546   6.665  18.518  0.00  0.00    +0.000 S 
ATOM     21  C   UNL     1      49.481   5.370  18.220  0.00  0.00    +0.000 A 
ATOM     22  N   UNL     1      49.243   4.430  19.172  0.00  0.00    +0.000 NA
ATOM     23  C   UNL     1      48.387   3.525  18.828  0.00  0.00    +0.000 A 
ATOM     24  N   UNL     1      47.760   3.474  17.607  0.00  0.00    +0.000 N 
ATOM     25  C   UNL     1      48.005   4.378  16.599  0.00  0.00    +0.000 A 
ATOM     26  O   UNL     1      47.468   4.265  15.500  0.00  0.00    +0.000 OA
ATOM     27  C   UNL     1      48.930   5.433  16.953  0.00  0.00    +0.000 A 
ATOM     29  H   UNL     1      47.115   2.727  17.392  0.00  0.00    +0.000 HD
ENDBRANCH   2  18
BRANCH   3   4
ATOM      4  C   UNL     1      47.333   8.051  13.409  0.00  0.00    +0.000 C 
BRANCH   4   5
ATOM      5  C   UNL     1      46.361   7.181  12.662  0.00  0.00    +0.000 A 
ATOM      6  C   UNL     1      46.542   5.792  12.622  0.00  0.00    +0.000 A 
ATOM      7  C   UNL     1      45.612   4.969  11.981  0.00  0.00    +0.000 A 
ATOM      8  C   UNL     1      44.487   5.520  11.353  0.00  0.00    +0.000 A 
ATOM     16  C   UNL     1      44.332   6.914  11.351  0.00  0.00    +0.000 A 
ATOM     17  C   UNL     1      45.262   7.737  11.995  0.00  0.00    +0.000 A 
BRANCH   8   9
ATOM      9  C   UNL     1      43.481   4.627  10.657  0.00  0.00    +0.000 C 
BRANCH   9  10
ATOM     10  N   UNL     1      44.010   3.896   9.481  0.00  0.00    +0.000 NA
ATOM     11  C   UNL     1      45.197   4.575   8.935  0.00  0.00    +0.000 C 
ATOM     12  C   UNL     1      45.887   3.779   7.822  0.00  0.00    +0.000 C 
ATOM     13  C   UNL     1      46.241   2.376   8.293  0.00  0.00    +0.000 C 
ATOM     14  C   UNL     1      44.982   1.682   8.791  0.00  0.00    +0.000 C 
ATOM     15  C   UNL     1      44.299   2.506   9.883  0.00  0.00    +0.000 C 
ENDBRANCH   9  10
ENDBRANCH   8   9
ENDBRANCH   4   5
ENDBRANCH   3   4
TORSDOF 5
ENDMDL
MODEL 4
REMARK VINA RESULT:    -7.820      2.207      3.755
REMARK INTER + INTRA:          -9.996
REMARK INTER:                  -9.648
REMARK INTRA:                  -0.348
REMARK UNBOUND:                 0.109
REMARK  Name = 
REMARK  5 active torsions:
REMARK  status: ('A' for Active; 'I' for Inactive)
REMARK    1  A    between atoms: C_2  and  C_18
REMARK    2  A    between atoms: N_3  and  C_4
REMARK    3  A    between atoms: C_4  and  C_5
REMARK    4  A    between atoms: C_8  and  C_9
REMARK    5  A    between atoms: C_9  and  N_10
REMARK                            x       y       z     vdW  Elec       q    Type
REMARK                         _______ _______ _______ _____ _____    ______ ____
ROOT
ATOM      1  O   UNL     1      48.611   5.196  15.906  0.00  0.00    +0.000 OA
ATOM      2  C   UNL     1      48.281   6.109  15.153  0.00  0.00    +0.000 C 
ATOM      3  N   UNL     1      47.237   5.980  14.269  0.00  0.00    +0.000 N 
ATOM     28  H   UNL     1      47.126   6.661  13.524  0.00  0.00    +0.000 HD
ENDROOT
BRANCH   2  18
ATOM     18  C   UNL     1      48.965   7.405  15.187  0.00  0.00    +0.000 A 
ATOM     19  C   UNL     1      49.081   8.091  16.389  0.00  0.00    +0.000 A 
ATOM     20  S   UNL     1      49.909   9.574  16.253  0.00  0.00    +0.000 S 
ATOM     21  C   UNL     1      50.185   9.330  14.591  0.00  0.00    +0.000 A 
ATOM     22  N   UNL     1      50.894  10.232  13.861  0.00  0.00    +0.000 NA
ATOM     23  C   UNL     1      51.060   9.905  12.622  0.00  0.00    +0.000 A 
ATOM     24  N   UNL     1      50.565   8.760  12.048  0.00  0.00    +0.000 N 
ATOM     25  C   UNL     1      49.806   7.843  12.738  0.00  0.00    +0.000 A 
ATOM     26  O   UNL     1      49.332   6.859  12.174  0.00  0.00    +0.000 OA
ATOM     27  C   UNL     1      49.624   8.149  14.140  0.00  0.00    +0.000 A 
ATOM     29  H   UNL     1      50.714   8.572  11.067  0.00  0.00    +0.000 HD
ENDBRANCH   2  18
BRANCH   3   4
ATOM      4  C   UNL     1      46.595   4.703  14.090  0.00  0.00    +0.000 C 
BRANCH   4   5
ATOM      5  C   UNL     1      45.968   4.568  12.731  0.00  0.00    +0.000 A 
ATOM      6  C   UNL     1      46.109   5.590  11.782  0.00  0.00    +0.000 A 
ATOM      7  C   UNL     1      45.582   5.448  10.496  0.00  0.00    +0.000 A 
ATOM      8  C   UNL     1      44.888   4.286  10.135  0.00  0.00    +0.000 A 
ATOM     16  C   UNL     1      44.704   3.284  11.099  0.00  0.00    +0.000 A 
ATOM     17  C   UNL     1      45.235   3.426  12.386  0.00  0.00    +0.000 A 
BRANCH   8   9
ATOM      9  C   UNL     1      44.314   4.135   8.741  0.00  0.00    +0.000 C 
BRANCH   9  10
ATOM     10  N   UNL     1      45.028   3.163   7.879  0.00  0.00    +0.000 NA
ATOM     11  C   UNL     1      46.139   3.816   7.165  0.00  0.00    +0.000 C 
ATOM     12  C   UNL     1      47.017   2.830   6.387  0.00  0.00    +0.000 C 
ATOM     13  C   UNL     1      47.539   1.729   7.297  0.00  0.00    +0.000 C 
ATOM     14  C   UNL     1      46.364   1.035   7.969  0.00  0.00    +0.000 C 
ATOM     15  C   UNL     1      45.490   2.041   8.718  0.00  0.00    +0.000 C 
ENDBRANCH   9  10
ENDBRANCH   8   9
ENDBRANCH   4   5
ENDBRANCH   3   4
TORSDOF 5
ENDMDL
MODEL 5
REMARK VINA RESULT:    -7.803      2.420      3.326
REMARK INTER + INTRA:          -9.975
REMARK INTER:                  -9.650
REMARK INTRA:                  -0.325
REMARK UNBOUND:                 0.109
REMARK  Name = 
REMARK  5 active torsions:
REMARK  status: ('A' for Active; 'I' for Inactive)
REMARK    1  A    between atoms: C_2  and  C_18
REMARK    2  A    between atoms: N_3  and  C_4
REMARK    3  A    between atoms: C_4  and  C_5
REMARK    4  A    between atoms: C_8  and  C_9
REMARK    5  A    between atoms: C_9  and  N_10
REMARK                            x       y       z     vdW  Elec       q    Type
REMARK                         _______ _______ _______ _____ _____    ______ ____
ROOT
ATOM      1  O   UNL     1      50.202   6.200  15.860  0.00  0.00    +0.000 OA
ATOM      2  C   UNL     1      49.029   6.355  16.194  0.00  0.00    +0.000 C 
ATOM      3  N   UNL     1      48.021   6.475  15.269  0.00  0.00    +0.000 N 
ATOM     28  H   UNL     1      47.109   6.811  15.565  0.00  0.00    +0.000 HD
ENDROOT
BRANCH   2  18
ATOM     18  C   UNL     1      48.641   6.381  17.607  0.00  0.00    +0.000 A 
ATOM     19  C   UNL     1      48.782   5.237  18.381  0.00  0.00    +0.000 A 
ATOM     20  S   UNL     1      48.291   5.441  20.000  0.00  0.00    +0.000 S 
ATOM     21  C   UNL     1      47.917   7.081  19.737  0.00  0.00    +0.000 A 
ATOM     22  N   UNL     1      47.474   7.867  20.753  0.00  0.00    +0.000 NA
ATOM     23  C   UNL     1      47.263   9.099  20.424  0.00  0.00    +0.000 A 
ATOM     24  N   UNL     1      47.445   9.606  19.161  0.00  0.00    +0.000 N 
ATOM     25  C   UNL     1      47.849   8.838  18.094  0.00  0.00    +0.000 A 
ATOM     26  O   UNL     1      47.944   9.316  16.966  0.00  0.00    +0.000 OA
ATOM     27  C   UNL     1      48.133   7.457  18.424  0.00  0.00    +0.000 A 
ATOM     29  H   UNL     1      47.243  10.576  18.964  0.00  0.00    +0.000 HD
ENDBRANCH   2  18
BRANCH   3   4
ATOM      4  C   UNL     1      48.334   6.582  13.867  0.00  0.00    +0.000 C 
BRANCH   4   5
ATOM      5  C   UNL     1      47.214   6.087  12.995  0.00  0.00    +0.000 A 
ATOM      6  C   UNL     1      46.400   5.029  13.422  0.00  0.00    +0.000 A 
ATOM      7  C   UNL     1      45.318   4.603  12.647  0.00  0.00    +0.000 A 
ATOM      8  C   UNL     1      45.037   5.216  11.419  0.00  0.00    +0.000 A 
ATOM     16  C   UNL     1      45.880   6.241  10.969  0.00  0.00    +0.000 A 
ATOM     17  C   UNL     1      46.961   6.670  11.747  0.00  0.00    +0.000 A 
BRANCH   8   9
ATOM      9  C   UNL     1      43.866   4.751  10.578  0.00  0.00    +0.000 C 
BRANCH   9  10
ATOM     10  N   UNL     1      44.234   3.915   9.410  0.00  0.00    +0.000 NA
ATOM     11  C   UNL     1      45.340   4.531   8.656  0.00  0.00    +0.000 C 
ATOM     12  C   UNL     1      45.876   3.634   7.535  0.00  0.00    +0.000 C 
ATOM     13  C   UNL     1      46.287   2.273   8.074  0.00  0.00    +0.000 C 
ATOM     14  C   UNL     1      45.105   1.640   8.791  0.00  0.00    +0.000 C 
ATOM     15  C   UNL     1      44.573   2.562   9.888  0.00  0.00    +0.000 C 
ENDBRANCH   9  10
ENDBRANCH   8   9
ENDBRANCH   4   5
ENDBRANCH   3   4
TORSDOF 5
ENDMDL
MODEL 6
REMARK VINA RESULT:    -7.802      4.094      9.089
REMARK INTER + INTRA:          -9.973
REMARK INTER:                  -9.406
REMARK INTRA:                  -0.567
REMARK UNBOUND:                 0.109
REMARK  Name = 
REMARK  5 active torsions:
REMARK  status: ('A' for Active; 'I' for Inactive)
REMARK    1  A    between atoms: C_2  and  C_18
REMARK    2  A    between atoms: N_3  and  C_4
REMARK    3  A    between atoms: C_4  and  C_5
REMARK    4  A    between atoms: C_8  and  C_9
REMARK    5  A    between atoms: C_9  and  N_10
REMARK                            x       y       z     vdW  Elec       q    Type
REMARK                         _______ _______ _______ _____ _____    ______ ____
ROOT
ATOM      1  O   UNL     1      47.169   3.085  14.005  0.00  0.00    +0.000 OA
ATOM      2  C   UNL     1      46.769   4.151  14.467  0.00  0.00    +0.000 C 
ATOM      3  N   UNL     1      46.816   4.423  15.812  0.00  0.00    +0.000 N 
ATOM     28  H   UNL     1      46.291   5.211  16.181  0.00  0.00    +0.000 HD
ENDROOT
BRANCH   2  18
ATOM     18  C   UNL     1      46.256   5.211  13.593  0.00  0.00    +0.000 A 
ATOM     19  C   UNL     1      47.062   6.296  13.279  0.00  0.00    +0.000 A 
ATOM     20  S   UNL     1      46.314   7.429  12.249  0.00  0.00    +0.000 S 
ATOM     21  C   UNL     1      44.901   6.485  12.146  0.00  0.00    +0.000 A 
ATOM     22  N   UNL     1      43.857   6.874  11.368  0.00  0.00    +0.000 NA
ATOM     23  C   UNL     1      42.864   6.047  11.353  0.00  0.00    +0.000 A 
ATOM     24  N   UNL     1      42.823   4.870  12.060  0.00  0.00    +0.000 N 
ATOM     25  C   UNL     1      43.838   4.459  12.893  0.00  0.00    +0.000 A 
ATOM     26  O   UNL     1      43.739   3.429  13.554  0.00  0.00    +0.000 OA
ATOM     27  C   UNL     1      44.988   5.337  12.914  0.00  0.00    +0.000 A 
ATOM     29  H   UNL     1      42.007   4.276  12.020  0.00  0.00    +0.000 HD
ENDBRANCH   2  18
BRANCH   3   4
ATOM      4  C   UNL     1      47.193   3.392  16.745  0.00  0.00    +0.000 C 
BRANCH   4   5
ATOM      5  C   UNL     1      48.669   3.395  17.030  0.00  0.00    +0.000 A 
ATOM      6  C   UNL     1      49.330   4.596  17.322  0.00  0.00    +0.000 A 
ATOM      7  C   UNL     1      50.689   4.601  17.647  0.00  0.00    +0.000 A 
ATOM      8  C   UNL     1      51.421   3.407  17.672  0.00  0.00    +0.000 A 
ATOM     16  C   UNL     1      50.771   2.212  17.331  0.00  0.00    +0.000 A 
ATOM     17  C   UNL     1      49.409   2.207  17.009  0.00  0.00    +0.000 A 
BRANCH   8   9
ATOM      9  C   UNL     1      52.894   3.415  18.022  0.00  0.00    +0.000 C 
BRANCH   9  10
ATOM     10  N   UNL     1      53.379   2.184  18.692  0.00  0.00    +0.000 NA
ATOM     11  C   UNL     1      53.977   1.259  17.713  0.00  0.00    +0.000 C 
ATOM     12  C   UNL     1      54.646   0.044  18.365  0.00  0.00    +0.000 C 
ATOM     13  C   UNL     1      55.678   0.476  19.395  0.00  0.00    +0.000 C 
ATOM     14  C   UNL     1      55.014   1.378  20.423  0.00  0.00    +0.000 C 
ATOM     15  C   UNL     1      54.333   2.569  19.748  0.00  0.00    +0.000 C 
ENDBRANCH   9  10
ENDBRANCH   8   9
ENDBRANCH   4   5
ENDBRANCH   3   4
TORSDOF 5
ENDMDL
MODEL 7
REMARK VINA RESULT:    -7.572      3.744      9.069
REMARK INTER + INTRA:          -9.675
REMARK INTER:                  -8.910
REMARK INTRA:                  -0.765
REMARK UNBOUND:                 0.109
REMARK  Name = 
REMARK  5 active torsions:
REMARK  status: ('A' for Active; 'I' for Inactive)
REMARK    1  A    between atoms: C_2  and  C_18
REMARK    2  A    between atoms: N_3  and  C_4
REMARK    3  A    between atoms: C_4  and  C_5
REMARK    4  A    between atoms: C_8  and  C_9
REMARK    5  A    between atoms: C_9  and  N_10
REMARK                            x       y       z     vdW  Elec       q    Type
REMARK                         _______ _______ _______ _____ _____    ______ ____
ROOT
ATOM      1  O   UNL     1      47.200   3.072  14.012  0.00  0.00    +0.000 OA
ATOM      2  C   UNL     1      46.815   4.135  14.492  0.00  0.00    +0.000 C 
ATOM      3  N   UNL     1      46.851   4.377  15.844  0.00  0.00    +0.000 N 
ATOM     28  H   UNL     1      46.337   5.166  16.224  0.00  0.00    +0.000 HD
ENDROOT
BRANCH   2  18
ATOM     18  C   UNL     1      46.332   5.223  13.636  0.00  0.00    +0.000 A 
ATOM     19  C   UNL     1      47.149   6.318  13.387  0.00  0.00    +0.000 A 
ATOM     20  S   UNL     1      46.438   7.485  12.369  0.00  0.00    +0.000 S 
ATOM     21  C   UNL     1      45.030   6.545  12.184  0.00  0.00    +0.000 A 
ATOM     22  N   UNL     1      44.014   6.960  11.383  0.00  0.00    +0.000 NA
ATOM     23  C   UNL     1      43.022   6.134  11.305  0.00  0.00    +0.000 A 
ATOM     24  N   UNL     1      42.957   4.935  11.971  0.00  0.00    +0.000 N 
ATOM     25  C   UNL     1      43.942   4.496  12.826  0.00  0.00    +0.000 A 
ATOM     26  O   UNL     1      43.820   3.445  13.449  0.00  0.00    +0.000 OA
ATOM     27  C   UNL     1      45.090   5.373  12.917  0.00  0.00    +0.000 A 
ATOM     29  H   UNL     1      42.144   4.343  11.883  0.00  0.00    +0.000 HD
ENDBRANCH   2  18
BRANCH   3   4
ATOM      4  C   UNL     1      47.197   3.319  16.759  0.00  0.00    +0.000 C 
BRANCH   4   5
ATOM      5  C   UNL     1      48.650   3.352  17.142  0.00  0.00    +0.000 A 
ATOM      6  C   UNL     1      49.457   2.221  16.950  0.00  0.00    +0.000 A 
ATOM      7  C   UNL     1      50.822   2.261  17.246  0.00  0.00    +0.000 A 
ATOM      8  C   UNL     1      51.407   3.427  17.755  0.00  0.00    +0.000 A 
ATOM     16  C   UNL     1      50.591   4.542  17.993  0.00  0.00    +0.000 A 
ATOM     17  C   UNL     1      49.225   4.503  17.693  0.00  0.00    +0.000 A 
BRANCH   8   9
ATOM      9  C   UNL     1      52.886   3.468  18.078  0.00  0.00    +0.000 C 
BRANCH   9  10
ATOM     10  N   UNL     1      53.426   4.822  18.348  0.00  0.00    +0.000 NA
ATOM     11  C   UNL     1      54.411   4.783  19.442  0.00  0.00    +0.000 C 
ATOM     12  C   UNL     1      55.126   6.121  19.656  0.00  0.00    +0.000 C 
ATOM     13  C   UNL     1      55.775   6.605  18.369  0.00  0.00    +0.000 C 
ATOM     14  C   UNL     1      54.719   6.694  17.278  0.00  0.00    +0.000 C 
ATOM     15  C   UNL     1      54.003   5.355  17.099  0.00  0.00    +0.000 C 
ENDBRANCH   9  10
ENDBRANCH   8   9
ENDBRANCH   4   5
ENDBRANCH   3   4
TORSDOF 5
ENDMDL
MODEL 8
REMARK VINA RESULT:    -7.407      4.546      7.583
REMARK INTER + INTRA:          -9.463
REMARK INTER:                  -8.571
REMARK INTRA:                  -0.892
REMARK UNBOUND:                 0.109
REMARK  Name = 
REMARK  5 active torsions:
REMARK  status: ('A' for Active; 'I' for Inactive)
REMARK    1  A    between atoms: C_2  and  C_18
REMARK    2  A    between atoms: N_3  and  C_4
REMARK    3  A    between atoms: C_4  and  C_5
REMARK    4  A    between atoms: C_8  and  C_9
REMARK    5  A    between atoms: C_9  and  N_10
REMARK                            x       y       z     vdW  Elec       q    Type
REMARK                         _______ _______ _______ _____ _____    ______ ____
ROOT
ATOM      1  O   UNL     1      44.381   7.571  11.108  0.00  0.00    +0.000 OA
ATOM      2  C   UNL     1      44.885   6.650  11.747  0.00  0.00    +0.000 C 
ATOM      3  N   UNL     1      45.774   6.877  12.769  0.00  0.00    +0.000 N 
ATOM     28  H   UNL     1      46.327   6.106  13.130  0.00  0.00    +0.000 HD
ENDROOT
BRANCH   2  18
ATOM     18  C   UNL     1      44.529   5.254  11.473  0.00  0.00    +0.000 A 
ATOM     19  C   UNL     1      43.734   4.557  12.373  0.00  0.00    +0.000 A 
ATOM     20  S   UNL     1      43.411   2.952  11.900  0.00  0.00    +0.000 S 
ATOM     21  C   UNL     1      44.284   3.146  10.451  0.00  0.00    +0.000 A 
ATOM     22  N   UNL     1      44.367   2.135   9.546  0.00  0.00    +0.000 NA
ATOM     23  C   UNL     1      45.028   2.429   8.475  0.00  0.00    +0.000 A 
ATOM     24  N   UNL     1      45.623   3.644   8.239  0.00  0.00    +0.000 N 
ATOM     25  C   UNL     1      45.601   4.679   9.145  0.00  0.00    +0.000 A 
ATOM     26  O   UNL     1      46.196   5.731   8.922  0.00  0.00    +0.000 OA
ATOM     27  C   UNL     1      44.840   4.408  10.346  0.00  0.00    +0.000 A 
ATOM     29  H   UNL     1      46.143   3.804   7.388  0.00  0.00    +0.000 HD
ENDBRANCH   2  18
BRANCH   3   4
ATOM      4  C   UNL     1      46.265   8.208  13.018  0.00  0.00    +0.000 C 
BRANCH   4   5
ATOM      5  C   UNL     1      47.659   8.408  12.491  0.00  0.00    +0.000 A 
ATOM      6  C   UNL     1      48.547   7.326  12.415  0.00  0.00    +0.000 A 
ATOM      7  C   UNL     1      49.824   7.488  11.871  0.00  0.00    +0.000 A 
ATOM      8  C   UNL     1      50.246   8.740  11.405  0.00  0.00    +0.000 A 
ATOM     16  C   UNL     1      49.375   9.832  11.525  0.00  0.00    +0.000 A 
ATOM     17  C   UNL     1      48.096   9.669  12.068  0.00  0.00    +0.000 A 
BRANCH   8   9
ATOM      9  C   UNL     1      51.631   8.915  10.817  0.00  0.00    +0.000 C 
BRANCH   9  10
ATOM     10  N   UNL     1      52.422   7.665  10.711  0.00  0.00    +0.000 NA
ATOM     11  C   UNL     1      52.536   7.238   9.306  0.00  0.00    +0.000 C 
ATOM     12  C   UNL     1      53.481   6.046   9.114  0.00  0.00    +0.000 C 
ATOM     13  C   UNL     1      54.854   6.340   9.699  0.00  0.00    +0.000 C 
ATOM     14  C   UNL     1      54.705   6.716  11.165  0.00  0.00    +0.000 C 
ATOM     15  C   UNL     1      53.741   7.890  11.333  0.00  0.00    +0.000 C 
ENDBRANCH   9  10
ENDBRANCH   8   9
ENDBRANCH   4   5
ENDBRANCH   3   4
TORSDOF 5
ENDMDL
MODEL 9
REMARK VINA RESULT:    -7.308      3.503      8.236
REMARK INTER + INTRA:          -9.335
REMARK INTER:                  -8.504
REMARK INTRA:                  -0.832
REMARK UNBOUND:                 0.109
REMARK  Name = 
REMARK  5 active torsions:
REMARK  status: ('A' for Active; 'I' for Inactive)
REMARK    1  A    between atoms: C_2  and  C_18
REMARK    2  A    between atoms: N_3  and  C_4
REMARK    3  A    between atoms: C_4  and  C_5
REMARK    4  A    between atoms: C_8  and  C_9
REMARK    5  A    between atoms: C_9  and  N_10
REMARK                            x       y       z     vdW  Elec       q    Type
REMARK                         _______ _______ _______ _____ _____    ______ ____
ROOT
ATOM      1  O   UNL     1      49.062   6.612  12.889  0.00  0.00    +0.000 OA
ATOM      2  C   UNL     1      48.000   6.861  13.455  0.00  0.00    +0.000 C 
ATOM      3  N   UNL     1      47.953   7.535  14.651  0.00  0.00    +0.000 N 
ATOM     28  H   UNL     1      47.093   7.537  15.190  0.00  0.00    +0.000 HD
ENDROOT
BRANCH   2  18
ATOM     18  C   UNL     1      46.716   6.482  12.856  0.00  0.00    +0.000 A 
ATOM     19  C   UNL     1      45.928   7.449  12.246  0.00  0.00    +0.000 A 
ATOM     20  S   UNL     1      44.475   6.840  11.597  0.00  0.00    +0.000 S 
ATOM     21  C   UNL     1      44.869   5.251  12.065  0.00  0.00    +0.000 A 
ATOM     22  N   UNL     1      44.047   4.211  11.766  0.00  0.00    +0.000 NA
ATOM     23  C   UNL     1      44.484   3.057  12.147  0.00  0.00    +0.000 A 
ATOM     24  N   UNL     1      45.668   2.856  12.814  0.00  0.00    +0.000 N 
ATOM     25  C   UNL     1      46.509   3.883  13.175  0.00  0.00    +0.000 A 
ATOM     26  O   UNL     1      47.531   3.669  13.822  0.00  0.00    +0.000 OA
ATOM     27  C   UNL     1      46.078   5.193  12.736  0.00  0.00    +0.000 A 
ATOM     29  H   UNL     1      45.944   1.928  13.102  0.00  0.00    +0.000 HD
ENDBRANCH   2  18
BRANCH   3   4
ATOM      4  C   UNL     1      49.171   7.832  15.360  0.00  0.00    +0.000 C 
BRANCH   4   5
ATOM      5  C   UNL     1      49.680   6.649  16.136  0.00  0.00    +0.000 A 
ATOM      6  C   UNL     1      51.053   6.501  16.378  0.00  0.00    +0.000 A 
ATOM      7  C   UNL     1      51.530   5.438  17.149  0.00  0.00    +0.000 A 
ATOM      8  C   UNL     1      50.646   4.491  17.683  0.00  0.00    +0.000 A 
ATOM     16  C   UNL     1      49.278   4.613  17.400  0.00  0.00    +0.000 A 
ATOM     17  C   UNL     1      48.800   5.679  16.630  0.00  0.00    +0.000 A 
BRANCH   8   9
ATOM      9  C   UNL     1      51.165   3.338  18.517  0.00  0.00    +0.000 C 
BRANCH   9  10
ATOM     10  N   UNL     1      52.435   2.745  18.033  0.00  0.00    +0.000 NA
ATOM     11  C   UNL     1      53.483   2.843  19.064  0.00  0.00    +0.000 C 
ATOM     12  C   UNL     1      54.769   2.099  18.688  0.00  0.00    +0.000 C 
ATOM     13  C   UNL     1      54.479   0.644  18.353  0.00  0.00    +0.000 C 
ATOM     14  C   UNL     1      53.441   0.581  17.243  0.00  0.00    +0.000 C 
ATOM     15  C   UNL     1      52.178   1.349  17.632  0.00  0.00    +0.000 C 
ENDBRANCH   9  10
ENDBRANCH   8   9
ENDBRANCH   4   5
ENDBRANCH   3   4
TORSDOF 5
ENDMDL
