MODEL 1
REMARK VINA RESULT:    -3.460      0.000      0.000
REMARK INTER + INTRA:          -7.753
REMARK INTER:                  -5.381
REMARK INTRA:                  -2.373
REMARK UNBOUND:                -2.373
REMARK  Name = 
REMARK  25 active torsions:
REMARK  status: ('A' for Active; 'I' for Inactive)
REMARK    1  A    between atoms: C_1  and  C_2
REMARK    2  A    between atoms: C_2  and  C_3
REMARK    3  A    between atoms: C_7  and  C_8
REMARK    4  A    between atoms: C_9  and  O_10
REMARK    5  A    between atoms: O_10  and  C_11
REMARK    6  A    between atoms: C_13  and  C_14
REMARK    7  A    between atoms: C_13  and  O_15
REMARK    8  A    between atoms: O_15  and  C_16
REMARK    9  A    between atoms: C_17  and  O_18
REMARK   10  A    between atoms: C_19  and  C_20
REMARK   11  A    between atoms: C_22  and  C_23
REMARK   12  A    between atoms: C_24  and  O_25
REMARK   13  A    between atoms: O_25  and  C_26
REMARK   14  A    between atoms: C_28  and  C_29
REMARK   15  A    between atoms: C_31  and  N_32
REMARK   16  A    between atoms: N_32  and  C_33
REMARK   17  A    between atoms: N_32  and  C_34
REMARK   18  A    between atoms: C_35  and  O_36
REMARK   19  A    between atoms: C_37  and  C_38
REMARK   20  A    between atoms: C_37  and  O_39
REMARK   21  A    between atoms: C_41  and  C_42
REMARK   22  A    between atoms: C_45  and  C_46
REMARK   23  A    between atoms: C_47  and  O_48
REMARK   24  A    between atoms: C_49  and  C_50
REMARK   25  A    between atoms: C_49  and  O_51
REMARK                            x       y       z     vdW  Elec       q    Type
REMARK                         _______ _______ _______ _____ _____    ______ ____
ROOT
ATOM      3  C   UNL     1      41.991  -7.214  14.437  0.00  0.00    +0.000 C 
ATOM      4  O   UNL     1      40.588  -6.927  14.759  0.00  0.00    +0.000 OA
ATOM      5  C   UNL     1      39.769  -6.335  13.837  0.00  0.00    +0.000 C 
ATOM      6  O   UNL     1      40.121  -5.939  12.739  0.00  0.00    +0.000 OA
ATOM      7  C   UNL     1      38.363  -6.192  14.418  0.00  0.00    +0.000 C 
ATOM      8  C   UNL     1      37.302  -6.615  13.398  0.00  0.00    +0.000 C 
ATOM      9  C   UNL     1      38.243  -4.742  15.013  0.00  0.00    +0.000 C 
ATOM     22  C   UNL     1      37.840  -4.795  16.547  0.00  0.00    +0.000 C 
ATOM     23  C   UNL     1      36.381  -5.186  16.871  0.00  0.00    +0.000 C 
ATOM     24  C   UNL     1      38.338  -3.564  17.411  0.00  0.00    +0.000 C 
ATOM     37  C   UNL     1      39.117  -4.014  18.769  0.00  0.00    +0.000 C 
ATOM     38  C   UNL     1      38.765  -5.424  19.255  0.00  0.00    +0.000 C 
ATOM     40  C   UNL     1      40.632  -3.815  18.525  0.00  0.00    +0.000 C 
ATOM     41  C   UNL     1      41.719  -4.222  19.551  0.00  0.00    +0.000 C 
ATOM     42  C   UNL     1      41.355  -4.945  20.843  0.00  0.00    +0.000 C 
ATOM     43  C   UNL     1      42.839  -4.992  18.841  0.00  0.00    +0.000 C 
ATOM     44  O   UNL     1      43.992  -4.558  18.875  0.00  0.00    +0.000 OA
ATOM     45  C   UNL     1      42.508  -6.351  18.182  0.00  0.00    +0.000 C 
ATOM     46  C   UNL     1      43.037  -7.431  19.123  0.00  0.00    +0.000 C 
ATOM     47  C   UNL     1      43.001  -6.397  16.704  0.00  0.00    +0.000 C 
ATOM     49  C   UNL     1      42.674  -7.658  15.799  0.00  0.00    +0.000 C 
ATOM     50  C   UNL     1      41.816  -8.734  16.473  0.00  0.00    +0.000 C 
ENDROOT
BRANCH  49  51
ATOM     51  O   UNL     1      43.942  -8.295  15.536  0.00  0.00    +0.000 OA
ATOM     56  H   UNL     1      44.470  -8.169  16.346  0.00  0.00    +0.000 HD
ENDBRANCH  49  51
BRANCH  47  48
ATOM     48  O   UNL     1      44.432  -6.215  16.636  0.00  0.00    +0.000 OA
ATOM     55  H   UNL     1      44.633  -5.347  17.034  0.00  0.00    +0.000 HD
ENDBRANCH  47  48
BRANCH   3   2
ATOM      1  C   UNL     1      42.985  -7.939  12.129  0.00  0.00    +0.000 C 
ATOM      2  C   UNL     1      42.070  -8.274  13.301  0.00  0.00    +0.000 C 
ENDBRANCH   3   2
BRANCH  37  39
ATOM     39  O   UNL     1      38.777  -3.124  19.845  0.00  0.00    +0.000 OA
ATOM     54  H   UNL     1      39.194  -2.261  19.632  0.00  0.00    +0.000 HD
ENDBRANCH  37  39
BRANCH   9  10
ATOM     10  O   UNL     1      37.352  -3.946  14.245  0.00  0.00    +0.000 OA
BRANCH  10  11
ATOM     11  C   UNL     1      37.773  -3.282  13.038  0.00  0.00    +0.000 C 
ATOM     12  C   UNL     1      36.748  -2.518  12.213  0.00  0.00    +0.000 C 
ATOM     13  C   UNL     1      37.312  -2.165  10.819  0.00  0.00    +0.000 C 
ATOM     14  C   UNL     1      37.602  -3.438  10.010  0.00  0.00    +0.000 C 
ATOM     17  C   UNL     1      38.616  -1.346  10.996  0.00  0.00    +0.000 C 
ATOM     19  C   UNL     1      39.579  -1.986  12.039  0.00  0.00    +0.000 C 
ATOM     20  C   UNL     1      40.474  -3.099  11.467  0.00  0.00    +0.000 C 
ATOM     21  O   UNL     1      38.908  -2.418  13.253  0.00  0.00    +0.000 OA
BRANCH  13  15
ATOM     15  O   UNL     1      36.236  -1.429  10.180  0.00  0.00    +0.000 OA
ATOM     16  C   UNL     1      36.360  -1.153   8.798  0.00  0.00    +0.000 C 
ENDBRANCH  13  15
BRANCH  17  18
ATOM     18  O   UNL     1      38.315  -0.008  11.429  0.00  0.00    +0.000 OA
ATOM     52  H   UNL     1      38.391   0.011  12.399  0.00  0.00    +0.000 HD
ENDBRANCH  17  18
ENDBRANCH  10  11
ENDBRANCH   9  10
BRANCH  24  25
ATOM     25  O   UNL     1      37.309  -2.651  17.834  0.00  0.00    +0.000 OA
BRANCH  25  26
ATOM     26  C   UNL     1      36.812  -1.729  16.866  0.00  0.00    +0.000 C 
ATOM     27  O   UNL     1      37.768  -1.337  15.895  0.00  0.00    +0.000 OA
ATOM     28  C   UNL     1      38.726  -0.347  16.249  0.00  0.00    +0.000 C 
ATOM     29  C   UNL     1      40.114  -0.976  16.352  0.00  0.00    +0.000 C 
ATOM     30  C   UNL     1      38.372   0.663  17.350  0.00  0.00    +0.000 C 
ATOM     31  C   UNL     1      37.225   0.320  18.332  0.00  0.00    +0.000 C 
ATOM     35  C   UNL     1      36.172  -0.493  17.538  0.00  0.00    +0.000 C 
BRANCH  31  32
ATOM     32  N   UNL     1      37.571  -0.369  19.602  0.00  0.00    +0.000 NA
ATOM     33  C   UNL     1      36.386  -0.464  20.485  0.00  0.00    +0.000 C 
ATOM     34  C   UNL     1      38.660   0.225  20.379  0.00  0.00    +0.000 C 
ENDBRANCH  31  32
BRANCH  35  36
ATOM     36  O   UNL     1      35.530   0.358  16.568  0.00  0.00    +0.000 OA
ATOM     53  H   UNL     1      36.230   0.864  16.119  0.00  0.00    +0.000 HD
ENDBRANCH  35  36
ENDBRANCH  25  26
ENDBRANCH  24  25
TORSDOF 12
ENDMDL
MODEL 2
REMARK VINA RESULT:    -3.373     14.524     16.955
REMARK INTER + INTRA:          -7.620
REMARK INTER:                  -4.869
REMARK INTRA:                  -2.751
REMARK UNBOUND:                -2.373
REMARK  Name = 
REMARK  25 active torsions:
REMARK  status: ('A' for Active; 'I' for Inactive)
REMARK    1  A    between atoms: C_1  and  C_2
REMARK    2  A    between atoms: C_2  and  C_3
REMARK    3  A    between atoms: C_7  and  C_8
REMARK    4  A    between atoms: C_9  and  O_10
REMARK    5  A    between atoms: O_10  and  C_11
REMARK    6  A    between atoms: C_13  and  C_14
REMARK    7  A    between atoms: C_13  and  O_15
REMARK    8  A    between atoms: O_15  and  C_16
REMARK    9  A    between atoms: C_17  and  O_18
REMARK   10  A    between atoms: C_19  and  C_20
REMARK   11  A    between atoms: C_22  and  C_23
REMARK   12  A    between atoms: C_24  and  O_25
REMARK   13  A    between atoms: O_25  and  C_26
REMARK   14  A    between atoms: C_28  and  C_29
REMARK   15  A    between atoms: C_31  and  N_32
REMARK   16  A    between atoms: N_32  and  C_33
REMARK   17  A    between atoms: N_32  and  C_34
REMARK   18  A    between atoms: C_35  and  O_36
REMARK   19  A    between atoms: C_37  and  C_38
REMARK   20  A    between atoms: C_37  and  O_39
REMARK   21  A    between atoms: C_41  and  C_42
REMARK   22  A    between atoms: C_45  and  C_46
REMARK   23  A    between atoms: C_47  and  O_48
REMARK   24  A    between atoms: C_49  and  C_50
REMARK   25  A    between atoms: C_49  and  O_51
REMARK                            x       y       z     vdW  Elec       q    Type
REMARK                         _______ _______ _______ _____ _____    ______ ____
ROOT
ATOM      3  C   UNL     1      47.030   5.493  12.413  0.00  0.00    +0.000 C 
ATOM      4  O   UNL     1      47.320   6.840  12.918  0.00  0.00    +0.000 OA
ATOM      5  C   UNL     1      47.970   7.752  12.132  0.00  0.00    +0.000 C 
ATOM      6  O   UNL     1      48.415   7.528  11.019  0.00  0.00    +0.000 OA
ATOM      7  C   UNL     1      48.104   9.074  12.886  0.00  0.00    +0.000 C 
ATOM      8  C   UNL     1      47.748  10.259  11.985  0.00  0.00    +0.000 C 
ATOM      9  C   UNL     1      49.524   9.091  13.561  0.00  0.00    +0.000 C 
ATOM     22  C   UNL     1      49.400   9.306  15.129  0.00  0.00    +0.000 C 
ATOM     23  C   UNL     1      49.015  10.723  15.609  0.00  0.00    +0.000 C 
ATOM     24  C   UNL     1      50.578   8.681  15.983  0.00  0.00    +0.000 C 
ATOM     37  C   UNL     1      50.050   7.753  17.213  0.00  0.00    +0.000 C 
ATOM     38  C   UNL     1      48.622   8.073  17.670  0.00  0.00    +0.000 C 
ATOM     40  C   UNL     1      50.238   6.275  16.795  0.00  0.00    +0.000 C 
ATOM     41  C   UNL     1      49.765   5.080  17.660  0.00  0.00    +0.000 C 
ATOM     42  C   UNL     1      48.984   5.300  18.950  0.00  0.00    +0.000 C 
ATOM     43  C   UNL     1      49.015   4.071  16.782  0.00  0.00    +0.000 C 
ATOM     44  O   UNL     1      49.430   2.914  16.696  0.00  0.00    +0.000 OA
ATOM     45  C   UNL     1      47.696   4.508  16.104  0.00  0.00    +0.000 C 
ATOM     46  C   UNL     1      46.562   3.890  16.921  0.00  0.00    +0.000 C 
ATOM     47  C   UNL     1      47.717   4.198  14.577  0.00  0.00    +0.000 C 
ATOM     49  C   UNL     1      46.508   4.658  13.659  0.00  0.00    +0.000 C 
ATOM     50  C   UNL     1      45.412   5.450  14.381  0.00  0.00    +0.000 C 
ENDROOT
BRANCH  49  51
ATOM     51  O   UNL     1      45.867   3.446  13.213  0.00  0.00    +0.000 OA
ATOM     56  H   UNL     1      46.349   2.719  13.649  0.00  0.00    +0.000 HD
ENDBRANCH  49  51
BRANCH  47  48
ATOM     48  O   UNL     1      47.882   2.782  14.343  0.00  0.00    +0.000 OA
ATOM     55  H   UNL     1      47.664   2.616  13.407  0.00  0.00    +0.000 HD
ENDBRANCH  47  48
BRANCH   3   2
ATOM      1  C   UNL     1      44.904   6.596  11.361  0.00  0.00    +0.000 C 
ATOM      2  C   UNL     1      46.027   5.573  11.227  0.00  0.00    +0.000 C 
ENDBRANCH   3   2
BRANCH  37  39
ATOM     39  O   UNL     1      50.890   7.941  18.363  0.00  0.00    +0.000 OA
ATOM     54  H   UNL     1      50.318   8.315  19.066  0.00  0.00    +0.000 HD
ENDBRANCH  37  39
BRANCH   9  10
ATOM     10  O   UNL     1      50.370  10.052  12.946  0.00  0.00    +0.000 OA
BRANCH  10  11
ATOM     11  C   UNL     1      51.518   9.667  12.167  0.00  0.00    +0.000 C 
ATOM     12  C   UNL     1      51.499   8.342  11.417  0.00  0.00    +0.000 C 
ATOM     13  C   UNL     1      52.913   7.965  10.924  0.00  0.00    +0.000 C 
ATOM     14  C   UNL     1      53.860   7.733  12.111  0.00  0.00    +0.000 C 
ATOM     17  C   UNL     1      53.457   9.109  10.032  0.00  0.00    +0.000 C 
ATOM     19  C   UNL     1      53.253  10.512  10.679  0.00  0.00    +0.000 C 
ATOM     20  C   UNL     1      54.352  10.905  11.682  0.00  0.00    +0.000 C 
ATOM     21  O   UNL     1      51.928  10.697  11.244  0.00  0.00    +0.000 OA
BRANCH  13  15
ATOM     15  O   UNL     1      52.717   6.711  10.220  0.00  0.00    +0.000 OA
ATOM     16  C   UNL     1      53.863   5.933   9.933  0.00  0.00    +0.000 C 
ENDBRANCH  13  15
BRANCH  17  18
ATOM     18  O   UNL     1      52.798   9.108   8.753  0.00  0.00    +0.000 OA
ATOM     52  H   UNL     1      53.052   8.289   8.293  0.00  0.00    +0.000 HD
ENDBRANCH  17  18
ENDBRANCH  10  11
ENDBRANCH   9  10
BRANCH  24  25
ATOM     25  O   UNL     1      51.485   9.633  16.572  0.00  0.00    +0.000 OA
BRANCH  25  26
ATOM     26  C   UNL     1      52.588  10.066  15.779  0.00  0.00    +0.000 C 
ATOM     27  O   UNL     1      53.286   9.012  15.134  0.00  0.00    +0.000 OA
ATOM     28  C   UNL     1      54.216   8.251  15.894  0.00  0.00    +0.000 C 
ATOM     29  C   UNL     1      53.682   6.836  16.107  0.00  0.00    +0.000 C 
ATOM     30  C   UNL     1      54.878   8.902  17.118  0.00  0.00    +0.000 C 
ATOM     31  C   UNL     1      54.211  10.148  17.748  0.00  0.00    +0.000 C 
ATOM     35  C   UNL     1      53.558  10.950  16.594  0.00  0.00    +0.000 C 
BRANCH  31  32
ATOM     32  N   UNL     1      53.242   9.941  18.856  0.00  0.00    +0.000 NA
ATOM     33  C   UNL     1      52.794  11.241  19.408  0.00  0.00    +0.000 C 
ATOM     34  C   UNL     1      53.710   9.119  19.973  0.00  0.00    +0.000 C 
ENDBRANCH  31  32
BRANCH  35  36
ATOM     36  O   UNL     1      54.584  11.516  15.754  0.00  0.00    +0.000 OA
ATOM     53  H   UNL     1      54.178  11.705  14.890  0.00  0.00    +0.000 HD
ENDBRANCH  35  36
ENDBRANCH  25  26
ENDBRANCH  24  25
TORSDOF 12
ENDMDL
MODEL 3
REMARK VINA RESULT:    -3.115     14.072     17.183
REMARK INTER + INTRA:          -7.217
REMARK INTER:                  -5.449
REMARK INTRA:                  -1.768
REMARK UNBOUND:                -2.373
REMARK  Name = 
REMARK  25 active torsions:
REMARK  status: ('A' for Active; 'I' for Inactive)
REMARK    1  A    between atoms: C_1  and  C_2
REMARK    2  A    between atoms: C_2  and  C_3
REMARK    3  A    between atoms: C_7  and  C_8
REMARK    4  A    between atoms: C_9  and  O_10
REMARK    5  A    between atoms: O_10  and  C_11
REMARK    6  A    between atoms: C_13  and  C_14
REMARK    7  A    between atoms: C_13  and  O_15
REMARK    8  A    between atoms: O_15  and  C_16
REMARK    9  A    between atoms: C_17  and  O_18
REMARK   10  A    between atoms: C_19  and  C_20
REMARK   11  A    between atoms: C_22  and  C_23
REMARK   12  A    between atoms: C_24  and  O_25
REMARK   13  A    between atoms: O_25  and  C_26
REMARK   14  A    between atoms: C_28  and  C_29
REMARK   15  A    between atoms: C_31  and  N_32
REMARK   16  A    between atoms: N_32  and  C_33
REMARK   17  A    between atoms: N_32  and  C_34
REMARK   18  A    between atoms: C_35  and  O_36
REMARK   19  A    between atoms: C_37  and  C_38
REMARK   20  A    between atoms: C_37  and  O_39
REMARK   21  A    between atoms: C_41  and  C_42
REMARK   22  A    between atoms: C_45  and  C_46
REMARK   23  A    between atoms: C_47  and  O_48
REMARK   24  A    between atoms: C_49  and  C_50
REMARK   25  A    between atoms: C_49  and  O_51
REMARK                            x       y       z     vdW  Elec       q    Type
REMARK                         _______ _______ _______ _____ _____    ______ ____
ROOT
ATOM      3  C   UNL     1      53.559   8.466  18.778  0.00  0.00    +0.000 C 
ATOM      4  O   UNL     1      52.145   8.830  18.631  0.00  0.00    +0.000 OA
ATOM      5  C   UNL     1      51.161   7.999  19.092  0.00  0.00    +0.000 C 
ATOM      6  O   UNL     1      51.345   6.897  19.581  0.00  0.00    +0.000 OA
ATOM      7  C   UNL     1      49.794   8.638  18.847  0.00  0.00    +0.000 C 
ATOM      8  C   UNL     1      48.898   8.509  20.082  0.00  0.00    +0.000 C 
ATOM      9  C   UNL     1      49.237   8.056  17.497  0.00  0.00    +0.000 C 
ATOM     22  C   UNL     1      48.905   9.225  16.475  0.00  0.00    +0.000 C 
ATOM     23  C   UNL     1      47.651  10.076  16.774  0.00  0.00    +0.000 C 
ATOM     24  C   UNL     1      49.010   8.825  14.946  0.00  0.00    +0.000 C 
ATOM     37  C   UNL     1      49.920   9.859  14.078  0.00  0.00    +0.000 C 
ATOM     38  C   UNL     1      50.041  11.257  14.696  0.00  0.00    +0.000 C 
ATOM     40  C   UNL     1      51.290   9.182  13.834  0.00  0.00    +0.000 C 
ATOM     41  C   UNL     1      52.472   9.886  13.123  0.00  0.00    +0.000 C 
ATOM     42  C   UNL     1      52.383  11.349  12.704  0.00  0.00    +0.000 C 
ATOM     43  C   UNL     1      53.762   9.668  13.924  0.00  0.00    +0.000 C 
ATOM     44  O   UNL     1      54.719   9.104  13.393  0.00  0.00    +0.000 OA
ATOM     45  C   UNL     1      53.861  10.255  15.351  0.00  0.00    +0.000 C 
ATOM     46  C   UNL     1      54.724  11.511  15.246  0.00  0.00    +0.000 C 
ATOM     47  C   UNL     1      54.311   9.171  16.376  0.00  0.00    +0.000 C 
ATOM     49  C   UNL     1      54.377   9.523  17.922  0.00  0.00    +0.000 C 
ATOM     50  C   UNL     1      53.917  10.939  18.285  0.00  0.00    +0.000 C 
ENDROOT
BRANCH  49  51
ATOM     51  O   UNL     1      55.775   9.476  18.278  0.00  0.00    +0.000 OA
ATOM     56  H   UNL     1      56.228   9.087  17.506  0.00  0.00    +0.000 HD
ENDBRANCH  49  51
BRANCH  47  48
ATOM     48  O   UNL     1      55.610   8.644  16.028  0.00  0.00    +0.000 OA
ATOM     55  H   UNL     1      56.143   8.625  16.845  0.00  0.00    +0.000 HD
ENDBRANCH  47  48
BRANCH   3   2
ATOM      1  C   UNL     1      54.639   7.154  20.766  0.00  0.00    +0.000 C 
ATOM      2  C   UNL     1      53.943   8.422  20.285  0.00  0.00    +0.000 C 
ENDBRANCH   3   2
BRANCH  37  39
ATOM     39  O   UNL     1      49.342  10.045  12.777  0.00  0.00    +0.000 OA
ATOM     54  H   UNL     1      49.711  10.883  12.426  0.00  0.00    +0.000 HD
ENDBRANCH  37  39
BRANCH   9  10
ATOM     10  O   UNL     1      48.124   7.205  17.728  0.00  0.00    +0.000 OA
BRANCH  10  11
ATOM     11  C   UNL     1      48.254   5.771  17.745  0.00  0.00    +0.000 C 
ATOM     12  C   UNL     1      48.090   4.994  16.446  0.00  0.00    +0.000 C 
ATOM     13  C   UNL     1      47.938   3.482  16.722  0.00  0.00    +0.000 C 
ATOM     14  C   UNL     1      46.655   3.199  17.517  0.00  0.00    +0.000 C 
ATOM     17  C   UNL     1      49.171   2.989  17.521  0.00  0.00    +0.000 C 
ATOM     19  C   UNL     1      49.512   3.926  18.719  0.00  0.00    +0.000 C 
ATOM     20  C   UNL     1      48.697   3.637  19.992  0.00  0.00    +0.000 C 
ATOM     21  O   UNL     1      49.476   5.336  18.374  0.00  0.00    +0.000 OA
BRANCH  13  15
ATOM     15  O   UNL     1      47.819   2.893  15.401  0.00  0.00    +0.000 OA
ATOM     16  C   UNL     1      47.216   3.674  14.386  0.00  0.00    +0.000 C 
ENDBRANCH  13  15
BRANCH  17  18
ATOM     18  O   UNL     1      50.327   2.917  16.669  0.00  0.00    +0.000 OA
ATOM     52  H   UNL     1      50.462   1.982  16.435  0.00  0.00    +0.000 HD
ENDBRANCH  17  18
ENDBRANCH  10  11
ENDBRANCH   9  10
BRANCH  24  25
ATOM     25  O   UNL     1      47.754   8.727  14.248  0.00  0.00    +0.000 OA
BRANCH  25  26
ATOM     26  C   UNL     1      47.253   7.419  13.979  0.00  0.00    +0.000 C 
ATOM     27  O   UNL     1      48.127   6.612  13.206  0.00  0.00    +0.000 OA
ATOM     28  C   UNL     1      48.167   6.813  11.799  0.00  0.00    +0.000 C 
ATOM     29  C   UNL     1      49.505   7.431  11.398  0.00  0.00    +0.000 C 
ATOM     30  C   UNL     1      46.930   7.399  11.101  0.00  0.00    +0.000 C 
ATOM     31  C   UNL     1      45.885   8.157  11.954  0.00  0.00    +0.000 C 
ATOM     35  C   UNL     1      45.846   7.471  13.344  0.00  0.00    +0.000 C 
BRANCH  31  32
ATOM     32  N   UNL     1      46.031   9.628  12.100  0.00  0.00    +0.000 NA
ATOM     33  C   UNL     1      44.709  10.294  12.035  0.00  0.00    +0.000 C 
ATOM     34  C   UNL     1      46.909  10.285  11.130  0.00  0.00    +0.000 C 
ENDBRANCH  31  32
BRANCH  35  36
ATOM     36  O   UNL     1      45.276   6.153  13.221  0.00  0.00    +0.000 OA
ATOM     53  H   UNL     1      44.392   6.257  12.828  0.00  0.00    +0.000 HD
ENDBRANCH  35  36
ENDBRANCH  25  26
ENDBRANCH  24  25
TORSDOF 12
ENDMDL
MODEL 4
REMARK VINA RESULT:    -3.077     14.841     17.529
REMARK INTER + INTRA:          -7.158
REMARK INTER:                  -4.626
REMARK INTRA:                  -2.532
REMARK UNBOUND:                -2.373
REMARK  Name = 
REMARK  25 active torsions:
REMARK  status: ('A' for Active; 'I' for Inactive)
REMARK    1  A    between atoms: C_1  and  C_2
REMARK    2  A    between atoms: C_2  and  C_3
REMARK    3  A    between atoms: C_7  and  C_8
REMARK    4  A    between atoms: C_9  and  O_10
REMARK    5  A    between atoms: O_10  and  C_11
REMARK    6  A    between atoms: C_13  and  C_14
REMARK    7  A    between atoms: C_13  and  O_15
REMARK    8  A    between atoms: O_15  and  C_16
REMARK    9  A    between atoms: C_17  and  O_18
REMARK   10  A    between atoms: C_19  and  C_20
REMARK   11  A    between atoms: C_22  and  C_23
REMARK   12  A    between atoms: C_24  and  O_25
REMARK   13  A    between atoms: O_25  and  C_26
REMARK   14  A    between atoms: C_28  and  C_29
REMARK   15  A    between atoms: C_31  and  N_32
REMARK   16  A    between atoms: N_32  and  C_33
REMARK   17  A    between atoms: N_32  and  C_34
REMARK   18  A    between atoms: C_35  and  O_36
REMARK   19  A    between atoms: C_37  and  C_38
REMARK   20  A    between atoms: C_37  and  O_39
REMARK   21  A    between atoms: C_41  and  C_42
REMARK   22  A    between atoms: C_45  and  C_46
REMARK   23  A    between atoms: C_47  and  O_48
REMARK   24  A    between atoms: C_49  and  C_50
REMARK   25  A    between atoms: C_49  and  O_51
REMARK                            x       y       z     vdW  Elec       q    Type
REMARK                         _______ _______ _______ _____ _____    ______ ____
ROOT
ATOM      3  C   UNL     1      49.471   6.351  19.517  0.00  0.00    +0.000 C 
ATOM      4  O   UNL     1      49.868   7.580  18.820  0.00  0.00    +0.000 OA
ATOM      5  C   UNL     1      48.971   8.260  18.043  0.00  0.00    +0.000 C 
ATOM      6  O   UNL     1      47.832   7.895  17.803  0.00  0.00    +0.000 OA
ATOM      7  C   UNL     1      49.632   9.514  17.475  0.00  0.00    +0.000 C 
ATOM      8  C   UNL     1      48.708  10.728  17.599  0.00  0.00    +0.000 C 
ATOM      9  C   UNL     1      50.156   9.160  16.035  0.00  0.00    +0.000 C 
ATOM     22  C   UNL     1      51.714   9.442  15.918  0.00  0.00    +0.000 C 
ATOM     23  C   UNL     1      52.152  10.922  15.853  0.00  0.00    +0.000 C 
ATOM     24  C   UNL     1      52.478   8.541  14.862  0.00  0.00    +0.000 C 
ATOM     37  C   UNL     1      53.804   7.824  15.477  0.00  0.00    +0.000 C 
ATOM     38  C   UNL     1      54.386   8.533  16.706  0.00  0.00    +0.000 C 
ATOM     40  C   UNL     1      53.452   6.340  15.741  0.00  0.00    +0.000 C 
ATOM     41  C   UNL     1      54.425   5.343  16.416  0.00  0.00    +0.000 C 
ATOM     42  C   UNL     1      55.775   5.800  16.958  0.00  0.00    +0.000 C 
ATOM     43  C   UNL     1      53.686   4.554  17.504  0.00  0.00    +0.000 C 
ATOM     44  O   UNL     1      53.623   3.326  17.427  0.00  0.00    +0.000 OA
ATOM     45  C   UNL     1      53.123   5.316  18.726  0.00  0.00    +0.000 C 
ATOM     46  C   UNL     1      54.085   5.053  19.883  0.00  0.00    +0.000 C 
ATOM     47  C   UNL     1      51.622   4.973  18.961  0.00  0.00    +0.000 C 
ATOM     49  C   UNL     1      50.808   5.723  20.098  0.00  0.00    +0.000 C 
ATOM     50  C   UNL     1      51.592   6.802  20.853  0.00  0.00    +0.000 C 
ENDROOT
BRANCH  49  51
ATOM     51  O   UNL     1      50.497   4.719  21.088  0.00  0.00    +0.000 OA
ATOM     56  H   UNL     1      50.630   5.154  21.951  0.00  0.00    +0.000 HD
ENDBRANCH  49  51
BRANCH  47  48
ATOM     48  O   UNL     1      51.451   3.561  19.210  0.00  0.00    +0.000 OA
ATOM     55  H   UNL     1      50.500   3.405  19.358  0.00  0.00    +0.000 HD
ENDBRANCH  47  48
BRANCH   3   2
ATOM      1  C   UNL     1      47.217   5.702  20.674  0.00  0.00    +0.000 C 
ATOM      2  C   UNL     1      48.390   6.671  20.589  0.00  0.00    +0.000 C 
ENDBRANCH   3   2
BRANCH  37  39
ATOM     39  O   UNL     1      54.850   7.806  14.493  0.00  0.00    +0.000 OA
ATOM     54  H   UNL     1      55.524   7.171  14.816  0.00  0.00    +0.000 HD
ENDBRANCH  37  39
BRANCH   9  10
ATOM     10  O   UNL     1      49.406   9.838  15.038  0.00  0.00    +0.000 OA
BRANCH  10  11
ATOM     11  C   UNL     1      48.600   9.128  14.079  0.00  0.00    +0.000 C 
ATOM     12  C   UNL     1      48.150   7.708  14.392  0.00  0.00    +0.000 C 
ATOM     13  C   UNL     1      47.589   7.016  13.130  0.00  0.00    +0.000 C 
ATOM     14  C   UNL     1      48.683   6.858  12.063  0.00  0.00    +0.000 C 
ATOM     17  C   UNL     1      46.422   7.865  12.566  0.00  0.00    +0.000 C 
ATOM     19  C   UNL     1      46.781   9.378  12.477  0.00  0.00    +0.000 C 
ATOM     20  C   UNL     1      47.548   9.766  11.201  0.00  0.00    +0.000 C 
ATOM     21  O   UNL     1      47.442   9.883  13.667  0.00  0.00    +0.000 OA
BRANCH  13  15
ATOM     15  O   UNL     1      47.189   5.702  13.599  0.00  0.00    +0.000 OA
ATOM     16  C   UNL     1      47.437   5.385  14.955  0.00  0.00    +0.000 C 
ENDBRANCH  13  15
BRANCH  17  18
ATOM     18  O   UNL     1      45.255   7.731  13.396  0.00  0.00    +0.000 OA
ATOM     52  H   UNL     1      44.636   8.441  13.150  0.00  0.00    +0.000 HD
ENDBRANCH  17  18
ENDBRANCH  10  11
ENDBRANCH   9  10
BRANCH  24  25
ATOM     25  O   UNL     1      52.917   9.225  13.673  0.00  0.00    +0.000 OA
BRANCH  25  26
ATOM     26  C   UNL     1      51.912   9.712  12.787  0.00  0.00    +0.000 C 
ATOM     27  O   UNL     1      51.367   8.722  11.929  0.00  0.00    +0.000 OA
ATOM     28  C   UNL     1      52.108   8.345  10.775  0.00  0.00    +0.000 C 
ATOM     29  C   UNL     1      52.638   6.921  10.937  0.00  0.00    +0.000 C 
ATOM     30  C   UNL     1      53.093   9.354  10.167  0.00  0.00    +0.000 C 
ATOM     31  C   UNL     1      53.585  10.532  11.042  0.00  0.00    +0.000 C 
ATOM     35  C   UNL     1      52.412  10.928  11.976  0.00  0.00    +0.000 C 
BRANCH  31  32
ATOM     32  N   UNL     1      54.837  10.353  11.820  0.00  0.00    +0.000 NA
ATOM     33  C   UNL     1      55.738  11.515  11.636  0.00  0.00    +0.000 C 
ATOM     34  C   UNL     1      55.607   9.143  11.527  0.00  0.00    +0.000 C 
ENDBRANCH  31  32
BRANCH  35  36
ATOM     36  O   UNL     1      51.349  11.516  11.200  0.00  0.00    +0.000 OA
ATOM     53  H   UNL     1      51.032  10.835  10.582  0.00  0.00    +0.000 HD
ENDBRANCH  35  36
ENDBRANCH  25  26
ENDBRANCH  24  25
TORSDOF 12
ENDMDL
MODEL 5
REMARK VINA RESULT:    -3.015     14.882     17.771
REMARK INTER + INTRA:          -7.063
REMARK INTER:                  -6.418
REMARK INTRA:                  -0.644
REMARK UNBOUND:                -2.373
REMARK  Name = 
REMARK  25 active torsions:
REMARK  status: ('A' for Active; 'I' for Inactive)
REMARK    1  A    between atoms: C_1  and  C_2
REMARK    2  A    between atoms: C_2  and  C_3
REMARK    3  A    between atoms: C_7  and  C_8
REMARK    4  A    between atoms: C_9  and  O_10
REMARK    5  A    between atoms: O_10  and  C_11
REMARK    6  A    between atoms: C_13  and  C_14
REMARK    7  A    between atoms: C_13  and  O_15
REMARK    8  A    between atoms: O_15  and  C_16
REMARK    9  A    between atoms: C_17  and  O_18
REMARK   10  A    between atoms: C_19  and  C_20
REMARK   11  A    between atoms: C_22  and  C_23
REMARK   12  A    between atoms: C_24  and  O_25
REMARK   13  A    between atoms: O_25  and  C_26
REMARK   14  A    between atoms: C_28  and  C_29
REMARK   15  A    between atoms: C_31  and  N_32
REMARK   16  A    between atoms: N_32  and  C_33
REMARK   17  A    between atoms: N_32  and  C_34
REMARK   18  A    between atoms: C_35  and  O_36
REMARK   19  A    between atoms: C_37  and  C_38
REMARK   20  A    between atoms: C_37  and  O_39
REMARK   21  A    between atoms: C_41  and  C_42
REMARK   22  A    between atoms: C_45  and  C_46
REMARK   23  A    between atoms: C_47  and  O_48
REMARK   24  A    between atoms: C_49  and  C_50
REMARK   25  A    between atoms: C_49  and  O_51
REMARK                            x       y       z     vdW  Elec       q    Type
REMARK                         _______ _______ _______ _____ _____    ______ ____
ROOT
ATOM      3  C   UNL     1      50.121   7.943  17.464  0.00  0.00    +0.000 C 
ATOM      4  O   UNL     1      49.802   8.483  16.137  0.00  0.00    +0.000 OA
ATOM      5  C   UNL     1      48.856   7.883  15.351  0.00  0.00    +0.000 C 
ATOM      6  O   UNL     1      48.267   6.852  15.627  0.00  0.00    +0.000 OA
ATOM      7  C   UNL     1      48.697   8.670  14.051  0.00  0.00    +0.000 C 
ATOM      8  C   UNL     1      47.218   8.860  13.702  0.00  0.00    +0.000 C 
ATOM      9  C   UNL     1      49.604   7.981  12.968  0.00  0.00    +0.000 C 
ATOM     22  C   UNL     1      50.635   9.020  12.354  0.00  0.00    +0.000 C 
ATOM     23  C   UNL     1      50.064  10.080  11.386  0.00  0.00    +0.000 C 
ATOM     24  C   UNL     1      51.985   8.384  11.822  0.00  0.00    +0.000 C 
ATOM     37  C   UNL     1      53.312   9.133  12.397  0.00  0.00    +0.000 C 
ATOM     38  C   UNL     1      53.067  10.575  12.857  0.00  0.00    +0.000 C 
ATOM     40  C   UNL     1      53.910   8.234  13.506  0.00  0.00    +0.000 C 
ATOM     41  C   UNL     1      55.130   8.645  14.367  0.00  0.00    +0.000 C 
ATOM     42  C   UNL     1      55.762  10.026  14.234  0.00  0.00    +0.000 C 
ATOM     43  C   UNL     1      54.839   8.364  15.846  0.00  0.00    +0.000 C 
ATOM     44  O   UNL     1      55.567   7.593  16.473  0.00  0.00    +0.000 OA
ATOM     45  C   UNL     1      53.693   9.137  16.540  0.00  0.00    +0.000 C 
ATOM     46  C   UNL     1      54.352  10.223  17.387  0.00  0.00    +0.000 C 
ATOM     47  C   UNL     1      52.718   8.164  17.270  0.00  0.00    +0.000 C 
ATOM     49  C   UNL     1      51.407   8.729  17.962  0.00  0.00    +0.000 C 
ATOM     50  C   UNL     1      51.183  10.236  17.790  0.00  0.00    +0.000 C 
ENDROOT
BRANCH  49  51
ATOM     51  O   UNL     1      51.594   8.533  19.379  0.00  0.00    +0.000 OA
ATOM     56  H   UNL     1      51.472   7.578  19.529  0.00  0.00    +0.000 HD
ENDBRANCH  49  51
BRANCH  47  48
ATOM     48  O   UNL     1      53.414   7.408  18.284  0.00  0.00    +0.000 OA
ATOM     55  H   UNL     1      53.682   6.561  17.882  0.00  0.00    +0.000 HD
ENDBRANCH  47  48
BRANCH   3   2
ATOM      1  C   UNL     1      48.499   6.816  19.179  0.00  0.00    +0.000 C 
ATOM      2  C   UNL     1      48.887   8.069  18.402  0.00  0.00    +0.000 C 
ENDBRANCH   3   2
BRANCH  37  39
ATOM     39  O   UNL     1      54.316   9.205  11.372  0.00  0.00    +0.000 OA
ATOM     54  H   UNL     1      53.843   9.136  10.516  0.00  0.00    +0.000 HD
ENDBRANCH  37  39
BRANCH   9  10
ATOM     10  O   UNL     1      48.816   7.345  11.972  0.00  0.00    +0.000 OA
BRANCH  10  11
ATOM     11  C   UNL     1      47.693   6.509  12.309  0.00  0.00    +0.000 C 
ATOM     12  C   UNL     1      46.566   6.335  11.301  0.00  0.00    +0.000 C 
ATOM     13  C   UNL     1      45.329   5.686  11.962  0.00  0.00    +0.000 C 
ATOM     14  C   UNL     1      44.749   6.602  13.049  0.00  0.00    +0.000 C 
ATOM     17  C   UNL     1      45.744   4.328  12.583  0.00  0.00    +0.000 C 
ATOM     19  C   UNL     1      47.054   4.437  13.420  0.00  0.00    +0.000 C 
ATOM     20  C   UNL     1      46.836   4.919  14.865  0.00  0.00    +0.000 C 
ATOM     21  O   UNL     1      48.097   5.200  12.758  0.00  0.00    +0.000 OA
BRANCH  13  15
ATOM     15  O   UNL     1      44.372   5.569  10.877  0.00  0.00    +0.000 OA
ATOM     16  C   UNL     1      43.018   5.339  11.218  0.00  0.00    +0.000 C 
ENDBRANCH  13  15
BRANCH  17  18
ATOM     18  O   UNL     1      45.953   3.346  11.553  0.00  0.00    +0.000 OA
ATOM     52  H   UNL     1      46.870   3.029  11.631  0.00  0.00    +0.000 HD
ENDBRANCH  17  18
ENDBRANCH  10  11
ENDBRANCH   9  10
BRANCH  24  25
ATOM     25  O   UNL     1      52.135   8.367  10.390  0.00  0.00    +0.000 OA
BRANCH  25  26
ATOM     26  C   UNL     1      51.852   7.143   9.715  0.00  0.00    +0.000 C 
ATOM     27  O   UNL     1      52.565   6.025  10.220  0.00  0.00    +0.000 OA
ATOM     28  C   UNL     1      53.920   5.852   9.825  0.00  0.00    +0.000 C 
ATOM     29  C   UNL     1      54.846   6.102  11.014  0.00  0.00    +0.000 C 
ATOM     30  C   UNL     1      54.382   6.449   8.488  0.00  0.00    +0.000 C 
ATOM     31  C   UNL     1      53.533   7.570   7.842  0.00  0.00    +0.000 C 
ATOM     35  C   UNL     1      52.051   7.279   8.189  0.00  0.00    +0.000 C 
BRANCH  31  32
ATOM     32  N   UNL     1      53.877   8.981   8.157  0.00  0.00    +0.000 NA
ATOM     33  C   UNL     1      53.063   9.912   7.341  0.00  0.00    +0.000 C 
ATOM     34  C   UNL     1      55.283   9.352   7.987  0.00  0.00    +0.000 C 
ENDBRANCH  31  32
BRANCH  35  36
ATOM     36  O   UNL     1      51.612   6.094   7.495  0.00  0.00    +0.000 OA
ATOM     53  H   UNL     1      52.243   5.933   6.771  0.00  0.00    +0.000 HD
ENDBRANCH  35  36
ENDBRANCH  25  26
ENDBRANCH  24  25
TORSDOF 12
ENDMDL
MODEL 6
REMARK VINA RESULT:    -2.609     14.372     16.916
REMARK INTER + INTRA:          -6.430
REMARK INTER:                  -5.523
REMARK INTRA:                  -0.908
REMARK UNBOUND:                -2.373
REMARK  Name = 
REMARK  25 active torsions:
REMARK  status: ('A' for Active; 'I' for Inactive)
REMARK    1  A    between atoms: C_1  and  C_2
REMARK    2  A    between atoms: C_2  and  C_3
REMARK    3  A    between atoms: C_7  and  C_8
REMARK    4  A    between atoms: C_9  and  O_10
REMARK    5  A    between atoms: O_10  and  C_11
REMARK    6  A    between atoms: C_13  and  C_14
REMARK    7  A    between atoms: C_13  and  O_15
REMARK    8  A    between atoms: O_15  and  C_16
REMARK    9  A    between atoms: C_17  and  O_18
REMARK   10  A    between atoms: C_19  and  C_20
REMARK   11  A    between atoms: C_22  and  C_23
REMARK   12  A    between atoms: C_24  and  O_25
REMARK   13  A    between atoms: O_25  and  C_26
REMARK   14  A    between atoms: C_28  and  C_29
REMARK   15  A    between atoms: C_31  and  N_32
REMARK   16  A    between atoms: N_32  and  C_33
REMARK   17  A    between atoms: N_32  and  C_34
REMARK   18  A    between atoms: C_35  and  O_36
REMARK   19  A    between atoms: C_37  and  C_38
REMARK   20  A    between atoms: C_37  and  O_39
REMARK   21  A    between atoms: C_41  and  C_42
REMARK   22  A    between atoms: C_45  and  C_46
REMARK   23  A    between atoms: C_47  and  O_48
REMARK   24  A    between atoms: C_49  and  C_50
REMARK   25  A    between atoms: C_49  and  O_51
REMARK                            x       y       z     vdW  Elec       q    Type
REMARK                         _______ _______ _______ _____ _____    ______ ____
ROOT
ATOM      3  C   UNL     1      49.119   5.461  18.447  0.00  0.00    +0.000 C 
ATOM      4  O   UNL     1      49.331   6.673  17.648  0.00  0.00    +0.000 OA
ATOM      5  C   UNL     1      48.530   6.947  16.573  0.00  0.00    +0.000 C 
ATOM      6  O   UNL     1      47.652   6.214  16.148  0.00  0.00    +0.000 OA
ATOM      7  C   UNL     1      48.943   8.280  15.952  0.00  0.00    +0.000 C 
ATOM      8  C   UNL     1      47.717   9.141  15.635  0.00  0.00    +0.000 C 
ATOM      9  C   UNL     1      49.921   7.964  14.763  0.00  0.00    +0.000 C 
ATOM     22  C   UNL     1      51.306   8.714  14.959  0.00  0.00    +0.000 C 
ATOM     23  C   UNL     1      51.311  10.241  14.725  0.00  0.00    +0.000 C 
ATOM     24  C   UNL     1      52.553   8.000  14.291  0.00  0.00    +0.000 C 
ATOM     37  C   UNL     1      53.804   7.812  15.317  0.00  0.00    +0.000 C 
ATOM     38  C   UNL     1      53.800   8.793  16.495  0.00  0.00    +0.000 C 
ATOM     40  C   UNL     1      53.824   6.329  15.760  0.00  0.00    +0.000 C 
ATOM     41  C   UNL     1      54.813   5.770  16.813  0.00  0.00    +0.000 C 
ATOM     42  C   UNL     1      55.775   6.689  17.559  0.00  0.00    +0.000 C 
ATOM     43  C   UNL     1      54.054   4.904  17.827  0.00  0.00    +0.000 C 
ATOM     44  O   UNL     1      54.363   3.719  17.964  0.00  0.00    +0.000 OA
ATOM     45  C   UNL     1      52.986   5.570  18.724  0.00  0.00    +0.000 C 
ATOM     46  C   UNL     1      53.624   5.749  20.100  0.00  0.00    +0.000 C 
ATOM     47  C   UNL     1      51.637   4.792  18.666  0.00  0.00    +0.000 C 
ATOM     49  C   UNL     1      50.364   5.356  19.427  0.00  0.00    +0.000 C 
ATOM     50  C   UNL     1      50.574   6.702  20.131  0.00  0.00    +0.000 C 
ENDROOT
BRANCH  49  51
ATOM     51  O   UNL     1      50.087   4.415  20.485  0.00  0.00    +0.000 OA
ATOM     56  H   UNL     1      50.239   4.904  21.315  0.00  0.00    +0.000 HD
ENDBRANCH  49  51
BRANCH  47  48
ATOM     48  O   UNL     1      51.808   3.433  19.124  0.00  0.00    +0.000 OA
ATOM     55  H   UNL     1      51.672   3.433  20.090  0.00  0.00    +0.000 HD
ENDBRANCH  47  48
BRANCH   3   2
ATOM      1  C   UNL     1      47.341   6.888  19.728  0.00  0.00    +0.000 C 
ATOM      2  C   UNL     1      47.740   5.529  19.164  0.00  0.00    +0.000 C 
ENDBRANCH   3   2
BRANCH  37  39
ATOM     39  O   UNL     1      55.042   8.026  14.621  0.00  0.00    +0.000 OA
ATOM     54  H   UNL     1      55.473   8.794  15.052  0.00  0.00    +0.000 HD
ENDBRANCH  37  39
BRANCH   9  10
ATOM     10  O   UNL     1      49.317   8.260  13.512  0.00  0.00    +0.000 OA
BRANCH  10  11
ATOM     11  C   UNL     1      48.098   7.621  13.086  0.00  0.00    +0.000 C 
ATOM     12  C   UNL     1      47.246   8.284  12.014  0.00  0.00    +0.000 C 
ATOM     13  C   UNL     1      45.848   7.630  11.936  0.00  0.00    +0.000 C 
ATOM     14  C   UNL     1      45.073   7.842  13.245  0.00  0.00    +0.000 C 
ATOM     17  C   UNL     1      46.017   6.114  11.663  0.00  0.00    +0.000 C 
ATOM     19  C   UNL     1      47.084   5.461  12.592  0.00  0.00    +0.000 C 
ATOM     20  C   UNL     1      46.546   5.052  13.974  0.00  0.00    +0.000 C 
ATOM     21  O   UNL     1      48.302   6.244  12.707  0.00  0.00    +0.000 OA
BRANCH  13  15
ATOM     15  O   UNL     1      45.182   8.350  10.866  0.00  0.00    +0.000 OA
ATOM     16  C   UNL     1      44.340   9.429  11.226  0.00  0.00    +0.000 C 
ENDBRANCH  13  15
BRANCH  17  18
ATOM     18  O   UNL     1      46.414   5.888  10.300  0.00  0.00    +0.000 OA
ATOM     52  H   UNL     1      45.622   5.617   9.803  0.00  0.00    +0.000 HD
ENDBRANCH  17  18
ENDBRANCH  10  11
ENDBRANCH   9  10
BRANCH  24  25
ATOM     25  O   UNL     1      53.093   8.660  13.131  0.00  0.00    +0.000 OA
BRANCH  25  26
ATOM     26  C   UNL     1      53.404   7.850  12.000  0.00  0.00    +0.000 C 
ATOM     27  O   UNL     1      54.669   8.126  11.420  0.00  0.00    +0.000 OA
ATOM     28  C   UNL     1      54.788   9.253  10.562  0.00  0.00    +0.000 C 
ATOM     29  C   UNL     1      55.636  10.332  11.233  0.00  0.00    +0.000 C 
ATOM     30  C   UNL     1      53.539   9.755   9.822  0.00  0.00    +0.000 C 
ATOM     31  C   UNL     1      52.146   9.340  10.352  0.00  0.00    +0.000 C 
ATOM     35  C   UNL     1      52.286   7.910  10.935  0.00  0.00    +0.000 C 
BRANCH  31  32
ATOM     32  N   UNL     1      51.468  10.238  11.323  0.00  0.00    +0.000 NA
ATOM     33  C   UNL     1      50.086  10.537  10.881  0.00  0.00    +0.000 C 
ATOM     34  C   UNL     1      52.136  11.512  11.593  0.00  0.00    +0.000 C 
ENDBRANCH  31  32
BRANCH  35  36
ATOM     36  O   UNL     1      52.524   6.971   9.868  0.00  0.00    +0.000 OA
ATOM     53  H   UNL     1      53.482   6.964   9.699  0.00  0.00    +0.000 HD
ENDBRANCH  35  36
ENDBRANCH  25  26
ENDBRANCH  24  25
TORSDOF 12
ENDMDL
MODEL 7
REMARK VINA RESULT:    -2.474     13.705     17.064
REMARK INTER + INTRA:          -6.221
REMARK INTER:                  -5.484
REMARK INTRA:                  -0.737
REMARK UNBOUND:                -2.373
REMARK  Name = 
REMARK  25 active torsions:
REMARK  status: ('A' for Active; 'I' for Inactive)
REMARK    1  A    between atoms: C_1  and  C_2
REMARK    2  A    between atoms: C_2  and  C_3
REMARK    3  A    between atoms: C_7  and  C_8
REMARK    4  A    between atoms: C_9  and  O_10
REMARK    5  A    between atoms: O_10  and  C_11
REMARK    6  A    between atoms: C_13  and  C_14
REMARK    7  A    between atoms: C_13  and  O_15
REMARK    8  A    between atoms: O_15  and  C_16
REMARK    9  A    between atoms: C_17  and  O_18
REMARK   10  A    between atoms: C_19  and  C_20
REMARK   11  A    between atoms: C_22  and  C_23
REMARK   12  A    between atoms: C_24  and  O_25
REMARK   13  A    between atoms: O_25  and  C_26
REMARK   14  A    between atoms: C_28  and  C_29
REMARK   15  A    between atoms: C_31  and  N_32
REMARK   16  A    between atoms: N_32  and  C_33
REMARK   17  A    between atoms: N_32  and  C_34
REMARK   18  A    between atoms: C_35  and  O_36
REMARK   19  A    between atoms: C_37  and  C_38
REMARK   20  A    between atoms: C_37  and  O_39
REMARK   21  A    between atoms: C_41  and  C_42
REMARK   22  A    between atoms: C_45  and  C_46
REMARK   23  A    between atoms: C_47  and  O_48
REMARK   24  A    between atoms: C_49  and  C_50
REMARK   25  A    between atoms: C_49  and  O_51
REMARK                            x       y       z     vdW  Elec       q    Type
REMARK                         _______ _______ _______ _____ _____    ______ ____
ROOT
ATOM      3  C   UNL     1      53.463   9.490  16.078  0.00  0.00    +0.000 C 
ATOM      4  O   UNL     1      52.007   9.513  15.887  0.00  0.00    +0.000 OA
ATOM      5  C   UNL     1      51.179   8.884  16.776  0.00  0.00    +0.000 C 
ATOM      6  O   UNL     1      51.549   8.213  17.725  0.00  0.00    +0.000 OA
ATOM      7  C   UNL     1      49.725   9.100  16.362  0.00  0.00    +0.000 C 
ATOM      8  C   UNL     1      48.859   9.468  17.570  0.00  0.00    +0.000 C 
ATOM      9  C   UNL     1      49.282   7.848  15.521  0.00  0.00    +0.000 C 
ATOM     22  C   UNL     1      48.758   8.288  14.089  0.00  0.00    +0.000 C 
ATOM     23  C   UNL     1      47.375   8.973  14.033  0.00  0.00    +0.000 C 
ATOM     24  C   UNL     1      48.937   7.202  12.950  0.00  0.00    +0.000 C 
ATOM     37  C   UNL     1      49.659   7.792  11.615  0.00  0.00    +0.000 C 
ATOM     38  C   UNL     1      49.535   9.311  11.456  0.00  0.00    +0.000 C 
ATOM     40  C   UNL     1      51.126   7.299  11.623  0.00  0.00    +0.000 C 
ATOM     41  C   UNL     1      52.172   7.727  10.564  0.00  0.00    +0.000 C 
ATOM     42  C   UNL     1      51.834   8.755   9.490  0.00  0.00    +0.000 C 
ATOM     43  C   UNL     1      53.477   8.135  11.260  0.00  0.00    +0.000 C 
ATOM     44  O   UNL     1      54.520   7.534  10.997  0.00  0.00    +0.000 OA
ATOM     45  C   UNL     1      53.467   9.361  12.202  0.00  0.00    +0.000 C 
ATOM     46  C   UNL     1      54.101  10.513  11.425  0.00  0.00    +0.000 C 
ATOM     47  C   UNL     1      54.092   9.013  13.586  0.00  0.00    +0.000 C 
ATOM     49  C   UNL     1      54.091  10.092  14.750  0.00  0.00    +0.000 C 
ATOM     50  C   UNL     1      53.391  11.412  14.407  0.00  0.00    +0.000 C 
ENDROOT
BRANCH  49  51
ATOM     51  O   UNL     1      55.474  10.441  14.967  0.00  0.00    +0.000 OA
ATOM     56  H   UNL     1      55.969   9.605  14.888  0.00  0.00    +0.000 HD
ENDBRANCH  49  51
BRANCH  47  48
ATOM     48  O   UNL     1      55.464   8.587  13.437  0.00  0.00    +0.000 OA
ATOM     55  H   UNL     1      55.984   9.034  14.130  0.00  0.00    +0.000 HD
ENDBRANCH  47  48
BRANCH   3   2
ATOM      1  C   UNL     1      54.791   9.544  18.331  0.00  0.00    +0.000 C 
ATOM      2  C   UNL     1      53.842  10.260  17.376  0.00  0.00    +0.000 C 
ENDBRANCH   3   2
BRANCH  37  39
ATOM     39  O   UNL     1      49.063   7.216  10.442  0.00  0.00    +0.000 OA
ATOM     54  H   UNL     1      49.611   7.504   9.682  0.00  0.00    +0.000 HD
ENDBRANCH  37  39
BRANCH   9  10
ATOM     10  O   UNL     1      48.331   7.066  16.230  0.00  0.00    +0.000 OA
BRANCH  10  11
ATOM     11  C   UNL     1      48.729   6.087  17.208  0.00  0.00    +0.000 C 
ATOM     12  C   UNL     1      47.966   5.995  18.522  0.00  0.00    +0.000 C 
ATOM     13  C   UNL     1      48.734   5.132  19.548  0.00  0.00    +0.000 C 
ATOM     14  C   UNL     1      50.074   5.786  19.915  0.00  0.00    +0.000 C 
ATOM     17  C   UNL     1      48.981   3.728  18.941  0.00  0.00    +0.000 C 
ATOM     19  C   UNL     1      49.530   3.802  17.484  0.00  0.00    +0.000 C 
ATOM     20  C   UNL     1      51.053   3.999  17.397  0.00  0.00    +0.000 C 
ATOM     21  O   UNL     1      48.823   4.760  16.652  0.00  0.00    +0.000 OA
BRANCH  13  15
ATOM     15  O   UNL     1      47.872   5.125  20.716  0.00  0.00    +0.000 OA
ATOM     16  C   UNL     1      47.249   6.342  21.080  0.00  0.00    +0.000 C 
ENDBRANCH  13  15
BRANCH  17  18
ATOM     18  O   UNL     1      47.762   2.966  18.919  0.00  0.00    +0.000 OA
ATOM     52  H   UNL     1      47.969   2.069  19.236  0.00  0.00    +0.000 HD
ENDBRANCH  17  18
ENDBRANCH  10  11
ENDBRANCH   9  10
BRANCH  24  25
ATOM     25  O   UNL     1      47.720   6.580  12.495  0.00  0.00    +0.000 OA
BRANCH  25  26
ATOM     26  C   UNL     1      46.614   6.565  13.395  0.00  0.00    +0.000 C 
ATOM     27  O   UNL     1      46.643   5.498  14.330  0.00  0.00    +0.000 OA
ATOM     28  C   UNL     1      46.224   4.209  13.899  0.00  0.00    +0.000 C 
ATOM     29  C   UNL     1      47.423   3.265  13.834  0.00  0.00    +0.000 C 
ATOM     30  C   UNL     1      45.235   4.107  12.728  0.00  0.00    +0.000 C 
ATOM     31  C   UNL     1      45.078   5.321  11.781  0.00  0.00    +0.000 C 
ATOM     35  C   UNL     1      45.268   6.598  12.638  0.00  0.00    +0.000 C 
BRANCH  31  32
ATOM     32  N   UNL     1      45.927   5.376  10.563  0.00  0.00    +0.000 NA
ATOM     33  C   UNL     1      45.850   6.714   9.932  0.00  0.00    +0.000 C 
ATOM     34  C   UNL     1      45.636   4.379   9.532  0.00  0.00    +0.000 C 
ENDBRANCH  31  32
BRANCH  35  36
ATOM     36  O   UNL     1      44.158   6.743  13.547  0.00  0.00    +0.000 OA
ATOM     53  H   UNL     1      44.499   6.596  14.446  0.00  0.00    +0.000 HD
ENDBRANCH  35  36
ENDBRANCH  25  26
ENDBRANCH  24  25
TORSDOF 12
ENDMDL
MODEL 8
REMARK VINA RESULT:    -2.220      2.290      8.150
REMARK INTER + INTRA:          -5.826
REMARK INTER:                  -5.351
REMARK INTRA:                  -0.475
REMARK UNBOUND:                -2.373
REMARK  Name = 
REMARK  25 active torsions:
REMARK  status: ('A' for Active; 'I' for Inactive)
REMARK    1  A    between atoms: C_1  and  C_2
REMARK    2  A    between atoms: C_2  and  C_3
REMARK    3  A    between atoms: C_7  and  C_8
REMARK    4  A    between atoms: C_9  and  O_10
REMARK    5  A    between atoms: O_10  and  C_11
REMARK    6  A    between atoms: C_13  and  C_14
REMARK    7  A    between atoms: C_13  and  O_15
REMARK    8  A    between atoms: O_15  and  C_16
REMARK    9  A    between atoms: C_17  and  O_18
REMARK   10  A    between atoms: C_19  and  C_20
REMARK   11  A    between atoms: C_22  and  C_23
REMARK   12  A    between atoms: C_24  and  O_25
REMARK   13  A    between atoms: O_25  and  C_26
REMARK   14  A    between atoms: C_28  and  C_29
REMARK   15  A    between atoms: C_31  and  N_32
REMARK   16  A    between atoms: N_32  and  C_33
REMARK   17  A    between atoms: N_32  and  C_34
REMARK   18  A    between atoms: C_35  and  O_36
REMARK   19  A    between atoms: C_37  and  C_38
REMARK   20  A    between atoms: C_37  and  O_39
REMARK   21  A    between atoms: C_41  and  C_42
REMARK   22  A    between atoms: C_45  and  C_46
REMARK   23  A    between atoms: C_47  and  O_48
REMARK   24  A    between atoms: C_49  and  C_50
REMARK   25  A    between atoms: C_49  and  O_51
REMARK                            x       y       z     vdW  Elec       q    Type
REMARK                         _______ _______ _______ _____ _____    ______ ____
ROOT
ATOM      3  C   UNL     1      37.292  -1.238   9.207  0.00  0.00    +0.000 C 
ATOM      4  O   UNL     1      37.073  -1.513  10.632  0.00  0.00    +0.000 OA
ATOM      5  C   UNL     1      37.499  -0.629  11.584  0.00  0.00    +0.000 C 
ATOM      6  O   UNL     1      38.136   0.388  11.363  0.00  0.00    +0.000 OA
ATOM      7  C   UNL     1      37.108  -1.140  12.970  0.00  0.00    +0.000 C 
ATOM      8  C   UNL     1      36.518  -0.015  13.824  0.00  0.00    +0.000 C 
ATOM      9  C   UNL     1      38.347  -1.909  13.557  0.00  0.00    +0.000 C 
ATOM     22  C   UNL     1      37.955  -3.397  13.943  0.00  0.00    +0.000 C 
ATOM     23  C   UNL     1      37.081  -3.583  15.204  0.00  0.00    +0.000 C 
ATOM     24  C   UNL     1      39.145  -4.440  13.878  0.00  0.00    +0.000 C 
ATOM     37  C   UNL     1      38.779  -5.772  13.016  0.00  0.00    +0.000 C 
ATOM     38  C   UNL     1      37.276  -6.051  12.903  0.00  0.00    +0.000 C 
ATOM     40  C   UNL     1      39.479  -5.644  11.641  0.00  0.00    +0.000 C 
ATOM     41  C   UNL     1      39.297  -6.670  10.495  0.00  0.00    +0.000 C 
ATOM     42  C   UNL     1      38.322  -7.835  10.626  0.00  0.00    +0.000 C 
ATOM     43  C   UNL     1      39.028  -5.933   9.178  0.00  0.00    +0.000 C 
ATOM     44  O   UNL     1      39.794  -6.090   8.226  0.00  0.00    +0.000 OA
ATOM     45  C   UNL     1      37.740  -5.087   9.046  0.00  0.00    +0.000 C 
ATOM     46  C   UNL     1      36.761  -5.911   8.211  0.00  0.00    +0.000 C 
ATOM     47  C   UNL     1      38.060  -3.647   8.543  0.00  0.00    +0.000 C 
ATOM     49  C   UNL     1      36.901  -2.570   8.436  0.00  0.00    +0.000 C 
ATOM     50  C   UNL     1      35.525  -3.050   8.913  0.00  0.00    +0.000 C 
ENDROOT
BRANCH  49  51
ATOM     51  O   UNL     1      36.741  -2.301   7.027  0.00  0.00    +0.000 OA
ATOM     56  H   UNL     1      36.045  -1.620   6.969  0.00  0.00    +0.000 HD
ENDBRANCH  49  51
BRANCH  47  48
ATOM     48  O   UNL     1      38.693  -3.686   7.246  0.00  0.00    +0.000 OA
ATOM     55  H   UNL     1      39.650  -3.804   7.393  0.00  0.00    +0.000 HD
ENDBRANCH  47  48
BRANCH   3   2
ATOM      1  C   UNL     1      37.243   1.069   7.977  0.00  0.00    +0.000 C 
ATOM      2  C   UNL     1      36.482   0.017   8.775  0.00  0.00    +0.000 C 
ENDBRANCH   3   2
BRANCH  37  39
ATOM     39  O   UNL     1      39.357  -6.931  13.638  0.00  0.00    +0.000 OA
ATOM     54  H   UNL     1      40.021  -6.600  14.279  0.00  0.00    +0.000 HD
ENDBRANCH  37  39
BRANCH   9  10
ATOM     10  O   UNL     1      38.920  -1.198  14.645  0.00  0.00    +0.000 OA
BRANCH  10  11
ATOM     11  C   UNL     1      38.399  -1.308  15.983  0.00  0.00    +0.000 C 
ATOM     12  C   UNL     1      39.357  -1.566  17.136  0.00  0.00    +0.000 C 
ATOM     13  C   UNL     1      38.589  -1.973  18.414  0.00  0.00    +0.000 C 
ATOM     14  C   UNL     1      37.851  -3.303  18.206  0.00  0.00    +0.000 C 
ATOM     17  C   UNL     1      37.573  -0.857  18.766  0.00  0.00    +0.000 C 
ATOM     19  C   UNL     1      36.749  -0.395  17.527  0.00  0.00    +0.000 C 
ATOM     20  C   UNL     1      35.525  -1.276  17.224  0.00  0.00    +0.000 C 
ATOM     21  O   UNL     1      37.561  -0.189  16.341  0.00  0.00    +0.000 OA
BRANCH  13  15
ATOM     15  O   UNL     1      39.631  -2.155  19.408  0.00  0.00    +0.000 OA
ATOM     16  C   UNL     1      39.457  -3.188  20.359  0.00  0.00    +0.000 C 
ENDBRANCH  13  15
BRANCH  17  18
ATOM     18  O   UNL     1      38.252   0.292  19.304  0.00  0.00    +0.000 OA
ATOM     52  H   UNL     1      38.734   0.717  18.573  0.00  0.00    +0.000 HD
ENDBRANCH  17  18
ENDBRANCH  10  11
ENDBRANCH   9  10
BRANCH  24  25
ATOM     25  O   UNL     1      39.618  -4.916  15.152  0.00  0.00    +0.000 OA
BRANCH  25  26
ATOM     26  C   UNL     1      40.860  -4.399  15.626  0.00  0.00    +0.000 C 
ATOM     27  O   UNL     1      41.995  -4.893  14.932  0.00  0.00    +0.000 OA
ATOM     28  C   UNL     1      42.482  -6.187  15.264  0.00  0.00    +0.000 C 
ATOM     29  C   UNL     1      42.221  -7.155  14.112  0.00  0.00    +0.000 C 
ATOM     30  C   UNL     1      42.209  -6.740  16.671  0.00  0.00    +0.000 C 
ATOM     31  C   UNL     1      41.068  -6.113  17.507  0.00  0.00    +0.000 C 
ATOM     35  C   UNL     1      41.015  -4.605  17.150  0.00  0.00    +0.000 C 
BRANCH  31  32
ATOM     32  N   UNL     1      39.715  -6.721  17.417  0.00  0.00    +0.000 NA
ATOM     33  C   UNL     1      39.049  -6.712  18.741  0.00  0.00    +0.000 C 
ATOM     34  C   UNL     1      39.660  -8.089  16.899  0.00  0.00    +0.000 C 
ENDBRANCH  31  32
BRANCH  35  36
ATOM     36  O   UNL     1      42.193  -3.944  17.652  0.00  0.00    +0.000 OA
ATOM     53  H   UNL     1      42.919  -4.141  17.036  0.00  0.00    +0.000 HD
ENDBRANCH  35  36
ENDBRANCH  25  26
ENDBRANCH  24  25
TORSDOF 12
ENDMDL
MODEL 9
REMARK VINA RESULT:    -2.218      2.409      7.532
REMARK INTER + INTRA:          -5.823
REMARK INTER:                  -5.657
REMARK INTRA:                  -0.166
REMARK UNBOUND:                -2.373
REMARK  Name = 
REMARK  25 active torsions:
REMARK  status: ('A' for Active; 'I' for Inactive)
REMARK    1  A    between atoms: C_1  and  C_2
REMARK    2  A    between atoms: C_2  and  C_3
REMARK    3  A    between atoms: C_7  and  C_8
REMARK    4  A    between atoms: C_9  and  O_10
REMARK    5  A    between atoms: O_10  and  C_11
REMARK    6  A    between atoms: C_13  and  C_14
REMARK    7  A    between atoms: C_13  and  O_15
REMARK    8  A    between atoms: O_15  and  C_16
REMARK    9  A    between atoms: C_17  and  O_18
REMARK   10  A    between atoms: C_19  and  C_20
REMARK   11  A    between atoms: C_22  and  C_23
REMARK   12  A    between atoms: C_24  and  O_25
REMARK   13  A    between atoms: O_25  and  C_26
REMARK   14  A    between atoms: C_28  and  C_29
REMARK   15  A    between atoms: C_31  and  N_32
REMARK   16  A    between atoms: N_32  and  C_33
REMARK   17  A    between atoms: N_32  and  C_34
REMARK   18  A    between atoms: C_35  and  O_36
REMARK   19  A    between atoms: C_37  and  C_38
REMARK   20  A    between atoms: C_37  and  O_39
REMARK   21  A    between atoms: C_41  and  C_42
REMARK   22  A    between atoms: C_45  and  C_46
REMARK   23  A    between atoms: C_47  and  O_48
REMARK   24  A    between atoms: C_49  and  C_50
REMARK   25  A    between atoms: C_49  and  O_51
REMARK                            x       y       z     vdW  Elec       q    Type
REMARK                         _______ _______ _______ _____ _____    ______ ____
ROOT
ATOM      3  C   UNL     1      36.918  -1.079  12.358  0.00  0.00    +0.000 C 
ATOM      4  O   UNL     1      36.639  -1.524  13.728  0.00  0.00    +0.000 OA
ATOM      5  C   UNL     1      36.795  -0.667  14.783  0.00  0.00    +0.000 C 
ATOM      6  O   UNL     1      37.230   0.470  14.704  0.00  0.00    +0.000 OA
ATOM      7  C   UNL     1      36.400  -1.372  16.079  0.00  0.00    +0.000 C 
ATOM      8  C   UNL     1      35.526  -0.467  16.952  0.00  0.00    +0.000 C 
ATOM      9  C   UNL     1      37.715  -1.937  16.730  0.00  0.00    +0.000 C 
ATOM     22  C   UNL     1      37.601  -3.503  16.962  0.00  0.00    +0.000 C 
ATOM     23  C   UNL     1      36.680  -3.971  18.110  0.00  0.00    +0.000 C 
ATOM     24  C   UNL     1      38.979  -4.283  16.939  0.00  0.00    +0.000 C 
ATOM     37  C   UNL     1      38.964  -5.574  15.946  0.00  0.00    +0.000 C 
ATOM     38  C   UNL     1      37.563  -6.128  15.662  0.00  0.00    +0.000 C 
ATOM     40  C   UNL     1      39.736  -5.184  14.663  0.00  0.00    +0.000 C 
ATOM     41  C   UNL     1      39.862  -6.114  13.431  0.00  0.00    +0.000 C 
ATOM     42  C   UNL     1      39.136  -7.454  13.375  0.00  0.00    +0.000 C 
ATOM     43  C   UNL     1      39.562  -5.324  12.152  0.00  0.00    +0.000 C 
ATOM     44  O   UNL     1      40.422  -5.239  11.274  0.00  0.00    +0.000 OA
ATOM     45  C   UNL     1      38.146  -4.735  11.955  0.00  0.00    +0.000 C 
ATOM     46  C   UNL     1      37.428  -5.652  10.966  0.00  0.00    +0.000 C 
ATOM     47  C   UNL     1      38.210  -3.220  11.596  0.00  0.00    +0.000 C 
ATOM     49  C   UNL     1      36.870  -2.383  11.453  0.00  0.00    +0.000 C 
ATOM     50  C   UNL     1      35.584  -3.163  11.751  0.00  0.00    +0.000 C 
ENDROOT
BRANCH  49  51
ATOM     51  O   UNL     1      36.778  -2.020  10.060  0.00  0.00    +0.000 OA
ATOM     56  H   UNL     1      37.366  -2.639   9.590  0.00  0.00    +0.000 HD
ENDBRANCH  49  51
BRANCH  47  48
ATOM     48  O   UNL     1      38.944  -3.014  10.371  0.00  0.00    +0.000 OA
ATOM     55  H   UNL     1      39.857  -3.321  10.524  0.00  0.00    +0.000 HD
ENDBRANCH  47  48
BRANCH   3   2
ATOM      1  C   UNL     1      36.506   1.276  11.297  0.00  0.00    +0.000 C 
ATOM      2  C   UNL     1      35.909   0.030  11.942  0.00  0.00    +0.000 C 
ENDBRANCH   3   2
BRANCH  37  39
ATOM     39  O   UNL     1      39.709  -6.652  16.535  0.00  0.00    +0.000 OA
ATOM     54  H   UNL     1      39.412  -7.472  16.086  0.00  0.00    +0.000 HD
ENDBRANCH  37  39
BRANCH   9  10
ATOM     10  O   UNL     1      38.039  -1.234  17.921  0.00  0.00    +0.000 OA
BRANCH  10  11
ATOM     11  C   UNL     1      37.887   0.194  18.026  0.00  0.00    +0.000 C 
ATOM     12  C   UNL     1      37.882   0.842  19.404  0.00  0.00    +0.000 C 
ATOM     13  C   UNL     1      37.386   2.303  19.325  0.00  0.00    +0.000 C 
ATOM     14  C   UNL     1      35.925   2.359  18.856  0.00  0.00    +0.000 C 
ATOM     17  C   UNL     1      38.287   3.088  18.337  0.00  0.00    +0.000 C 
ATOM     19  C   UNL     1      38.514   2.315  17.003  0.00  0.00    +0.000 C 
ATOM     20  C   UNL     1      37.389   2.502  15.971  0.00  0.00    +0.000 C 
ATOM     21  O   UNL     1      38.827   0.911  17.199  0.00  0.00    +0.000 OA
BRANCH  13  15
ATOM     15  O   UNL     1      37.465   2.775  20.696  0.00  0.00    +0.000 OA
ATOM     16  C   UNL     1      36.844   4.010  21.002  0.00  0.00    +0.000 C 
ENDBRANCH  13  15
BRANCH  17  18
ATOM     18  O   UNL     1      39.572   3.349  18.926  0.00  0.00    +0.000 OA
ATOM     52  H   UNL     1      39.666   2.765  19.700  0.00  0.00    +0.000 HD
ENDBRANCH  17  18
ENDBRANCH  10  11
ENDBRANCH   9  10
BRANCH  24  25
ATOM     25  O   UNL     1      39.429  -4.776  18.215  0.00  0.00    +0.000 OA
BRANCH  25  26
ATOM     26  C   UNL     1      40.293  -3.934  18.976  0.00  0.00    +0.000 C 
ATOM     27  O   UNL     1      41.427  -3.470  18.260  0.00  0.00    +0.000 OA
ATOM     28  C   UNL     1      42.533  -4.349  18.101  0.00  0.00    +0.000 C 
ATOM     29  C   UNL     1      42.651  -4.779  16.640  0.00  0.00    +0.000 C 
ATOM     30  C   UNL     1      42.749  -5.461  19.138  0.00  0.00    +0.000 C 
ATOM     31  C   UNL     1      41.560  -5.880  20.037  0.00  0.00    +0.000 C 
ATOM     35  C   UNL     1      40.716  -4.607  20.301  0.00  0.00    +0.000 C 
BRANCH  31  32
ATOM     32  N   UNL     1      40.695  -6.997  19.579  0.00  0.00    +0.000 NA
ATOM     33  C   UNL     1      39.695  -7.343  20.617  0.00  0.00    +0.000 C 
ATOM     34  C   UNL     1      41.386  -8.230  19.198  0.00  0.00    +0.000 C 
ENDBRANCH  31  32
BRANCH  35  36
ATOM     36  O   UNL     1      41.457  -3.697  21.139  0.00  0.00    +0.000 OA
ATOM     53  H   UNL     1      41.505  -4.096  22.025  0.00  0.00    +0.000 HD
ENDBRANCH  35  36
ENDBRANCH  25  26
ENDBRANCH  24  25
TORSDOF 12
ENDMDL
