MODEL 1
REMARK VINA RESULT:    -7.546      0.000      0.000
REMARK INTER + INTRA:         -15.804
REMARK INTER:                 -13.282
REMARK INTRA:                  -2.522
REMARK UNBOUND:                -2.522
REMARK  Name = 
REMARK  14 active torsions:
REMARK  status: ('A' for Active; 'I' for Inactive)
REMARK    1  A    between atoms: C_1  and  C_2
REMARK    2  A    between atoms: C_2  and  C_3
REMARK    3  A    between atoms: C_3  and  C_4
REMARK    4  A    between atoms: C_4  and  C_5
REMARK    5  A    between atoms: C_5  and  C_6
REMARK    6  A    between atoms: C_6  and  O_7
REMARK    7  A    between atoms: O_7  and  C_8
REMARK    8  A    between atoms: C_15  and  C_16
REMARK    9  A    between atoms: N_18  and  C_19
REMARK   10  A    between atoms: C_19  and  C_20
REMARK   11  A    between atoms: C_23  and  C_24
REMARK   12  A    between atoms: C_24  and  N_25
REMARK   13  A    between atoms: N_25  and  C_26
REMARK   14  A    between atoms: C_26  and  C_27
REMARK                            x       y       z     vdW  Elec       q    Type
REMARK                         _______ _______ _______ _____ _____    ______ ____
ROOT
ATOM     16  C   UNL     1      49.139   6.920  15.596  0.00  0.00    +0.000 C 
ATOM     17  O   UNL     1      50.252   6.719  15.112  0.00  0.00    +0.000 OA
ATOM     18  N   UNL     1      47.997   6.748  14.852  0.00  0.00    +0.000 N 
ATOM     36  H   UNL     1      47.092   6.988  15.236  0.00  0.00    +0.000 HD
ENDROOT
BRANCH  16  15
ATOM      8  C   UNL     1      47.563   5.729  18.442  0.00  0.00    +0.000 A 
ATOM      9  N   UNL     1      47.161   5.486  19.711  0.00  0.00    +0.000 NA
ATOM     10  C   UNL     1      47.493   6.352  20.671  0.00  0.00    +0.000 A 
ATOM     11  N   UNL     1      48.183   7.472  20.523  0.00  0.00    +0.000 NA
ATOM     12  C   UNL     1      48.588   7.676  19.260  0.00  0.00    +0.000 A 
ATOM     13  S   UNL     1      49.510   9.057  18.910  0.00  0.00    +0.000 S 
ATOM     14  C   UNL     1      49.667   8.594  17.290  0.00  0.00    +0.000 A 
ATOM     15  C   UNL     1      49.013   7.407  16.973  0.00  0.00    +0.000 A 
ATOM     35  C   UNL     1      48.348   6.863  18.151  0.00  0.00    +0.000 A 
BRANCH   8   7
ATOM      7  O   UNL     1      47.228   4.796  17.474  0.00  0.00    +0.000 OA
BRANCH   7   6
ATOM      6  C   UNL     1      47.581   3.452  17.848  0.00  0.00    +0.000 C 
BRANCH   6   5
ATOM      5  C   UNL     1      48.582   2.855  16.858  0.00  0.00    +0.000 C 
BRANCH   5   4
ATOM      4  C   UNL     1      50.023   2.739  17.370  0.00  0.00    +0.000 C 
BRANCH   4   3
ATOM      3  C   UNL     1      50.820   4.039  17.551  0.00  0.00    +0.000 C 
BRANCH   3   2
ATOM      1  C   UNL     1      51.871   5.808  19.098  0.00  0.00    +0.000 C 
ATOM      2  C   UNL     1      51.045   4.534  18.984  0.00  0.00    +0.000 C 
ENDBRANCH   3   2
ENDBRANCH   4   3
ENDBRANCH   5   4
ENDBRANCH   6   5
ENDBRANCH   7   6
ENDBRANCH   8   7
ENDBRANCH  16  15
BRANCH  18  19
ATOM     19  C   UNL     1      48.103   6.424  13.445  0.00  0.00    +0.000 C 
BRANCH  19  20
ATOM     20  C   UNL     1      46.806   5.980  12.827  0.00  0.00    +0.000 A 
ATOM     21  C   UNL     1      46.417   6.383  11.542  0.00  0.00    +0.000 A 
ATOM     22  C   UNL     1      45.321   5.781  10.908  0.00  0.00    +0.000 A 
ATOM     23  C   UNL     1      44.611   4.753  11.540  0.00  0.00    +0.000 A 
ATOM     33  C   UNL     1      44.957   4.415  12.854  0.00  0.00    +0.000 A 
ATOM     34  C   UNL     1      46.039   5.015  13.488  0.00  0.00    +0.000 A 
BRANCH  23  24
ATOM     24  C   UNL     1      43.480   3.994  10.885  0.00  0.00    +0.000 C 
BRANCH  24  25
ATOM     25  N   UNL     1      43.783   3.549   9.524  0.00  0.00    +0.000 NA
ATOM     37  H   UNL     1      44.277   4.291   9.029  0.00  0.00    +0.000 HD
BRANCH  25  26
ATOM     26  C   UNL     1      44.659   2.372   9.570  0.00  0.00    +0.000 C 
BRANCH  26  27
ATOM     27  C   UNL     1      45.650   2.373   8.432  0.00  0.00    +0.000 A 
ATOM     28  C   UNL     1      46.339   1.205   8.073  0.00  0.00    +0.000 A 
ATOM     29  C   UNL     1      47.231   1.214   7.000  0.00  0.00    +0.000 A 
ATOM     30  C   UNL     1      47.443   2.385   6.275  0.00  0.00    +0.000 A 
ATOM     31  C   UNL     1      46.766   3.552   6.625  0.00  0.00    +0.000 A 
ATOM     32  C   UNL     1      45.872   3.545   7.695  0.00  0.00    +0.000 A 
ENDBRANCH  26  27
ENDBRANCH  25  26
ENDBRANCH  24  25
ENDBRANCH  23  24
ENDBRANCH  19  20
ENDBRANCH  18  19
TORSDOF 13
ENDMDL
MODEL 2
REMARK VINA RESULT:    -7.495      1.080      1.448
REMARK INTER + INTRA:         -15.714
REMARK INTER:                 -13.681
REMARK INTRA:                  -2.033
REMARK UNBOUND:                -2.522
REMARK  Name = 
REMARK  14 active torsions:
REMARK  status: ('A' for Active; 'I' for Inactive)
REMARK    1  A    between atoms: C_1  and  C_2
REMARK    2  A    between atoms: C_2  and  C_3
REMARK    3  A    between atoms: C_3  and  C_4
REMARK    4  A    between atoms: C_4  and  C_5
REMARK    5  A    between atoms: C_5  and  C_6
REMARK    6  A    between atoms: C_6  and  O_7
REMARK    7  A    between atoms: O_7  and  C_8
REMARK    8  A    between atoms: C_15  and  C_16
REMARK    9  A    between atoms: N_18  and  C_19
REMARK   10  A    between atoms: C_19  and  C_20
REMARK   11  A    between atoms: C_23  and  C_24
REMARK   12  A    between atoms: C_24  and  N_25
REMARK   13  A    between atoms: N_25  and  C_26
REMARK   14  A    between atoms: C_26  and  C_27
REMARK                            x       y       z     vdW  Elec       q    Type
REMARK                         _______ _______ _______ _____ _____    ______ ____
ROOT
ATOM     16  C   UNL     1      48.758   7.213  15.431  0.00  0.00    +0.000 C 
ATOM     17  O   UNL     1      49.490   6.227  15.510  0.00  0.00    +0.000 OA
ATOM     18  N   UNL     1      48.036   7.474  14.293  0.00  0.00    +0.000 N 
ATOM     36  H   UNL     1      47.496   8.326  14.210  0.00  0.00    +0.000 HD
ENDROOT
BRANCH  16  15
ATOM      8  C   UNL     1      48.543   6.899  18.875  0.00  0.00    +0.000 A 
ATOM      9  N   UNL     1      48.566   7.105  20.211  0.00  0.00    +0.000 NA
ATOM     10  C   UNL     1      48.623   8.356  20.671  0.00  0.00    +0.000 A 
ATOM     11  N   UNL     1      48.646   9.466  19.949  0.00  0.00    +0.000 NA
ATOM     12  C   UNL     1      48.646   9.231  18.627  0.00  0.00    +0.000 A 
ATOM     13  S   UNL     1      48.702  10.551  17.563  0.00  0.00    +0.000 S 
ATOM     14  C   UNL     1      48.740   9.521  16.220  0.00  0.00    +0.000 A 
ATOM     15  C   UNL     1      48.688   8.168  16.542  0.00  0.00    +0.000 A 
ATOM     35  C   UNL     1      48.613   7.991  17.986  0.00  0.00    +0.000 A 
BRANCH   8   7
ATOM      7  O   UNL     1      48.514   5.587  18.429  0.00  0.00    +0.000 OA
BRANCH   7   6
ATOM      6  C   UNL     1      47.177   5.074  18.292  0.00  0.00    +0.000 C 
BRANCH   6   5
ATOM      5  C   UNL     1      47.097   4.053  17.157  0.00  0.00    +0.000 C 
BRANCH   5   4
ATOM      4  C   UNL     1      47.804   2.717  17.422  0.00  0.00    +0.000 C 
BRANCH   4   3
ATOM      3  C   UNL     1      49.037   2.385  16.571  0.00  0.00    +0.000 C 
BRANCH   3   2
ATOM      1  C   UNL     1      51.210   3.325  17.582  0.00  0.00    +0.000 C 
ATOM      2  C   UNL     1      50.349   2.100  17.311  0.00  0.00    +0.000 C 
ENDBRANCH   3   2
ENDBRANCH   4   3
ENDBRANCH   5   4
ENDBRANCH   6   5
ENDBRANCH   7   6
ENDBRANCH   8   7
ENDBRANCH  16  15
BRANCH  18  19
ATOM     19  C   UNL     1      48.212   6.635  13.125  0.00  0.00    +0.000 C 
BRANCH  19  20
ATOM     20  C   UNL     1      46.940   5.999  12.639  0.00  0.00    +0.000 A 
ATOM     21  C   UNL     1      46.394   6.294  11.382  0.00  0.00    +0.000 A 
ATOM     22  C   UNL     1      45.339   5.526  10.867  0.00  0.00    +0.000 A 
ATOM     23  C   UNL     1      44.830   4.441  11.590  0.00  0.00    +0.000 A 
ATOM     33  C   UNL     1      45.327   4.206  12.877  0.00  0.00    +0.000 A 
ATOM     34  C   UNL     1      46.368   4.970  13.394  0.00  0.00    +0.000 A 
BRANCH  23  24
ATOM     24  C   UNL     1      43.760   3.513  11.061  0.00  0.00    +0.000 C 
BRANCH  24  25
ATOM     25  N   UNL     1      43.830   3.302   9.614  0.00  0.00    +0.000 NA
ATOM     37  H   UNL     1      44.363   4.060   9.189  0.00  0.00    +0.000 HD
BRANCH  25  26
ATOM     26  C   UNL     1      44.526   2.042   9.329  0.00  0.00    +0.000 C 
BRANCH  26  27
ATOM     27  C   UNL     1      45.635   2.235   8.324  0.00  0.00    +0.000 A 
ATOM     28  C   UNL     1      46.495   1.181   7.986  0.00  0.00    +0.000 A 
ATOM     29  C   UNL     1      47.499   1.366   7.034  0.00  0.00    +0.000 A 
ATOM     30  C   UNL     1      47.651   2.603   6.409  0.00  0.00    +0.000 A 
ATOM     31  C   UNL     1      46.803   3.658   6.739  0.00  0.00    +0.000 A 
ATOM     32  C   UNL     1      45.798   3.475   7.688  0.00  0.00    +0.000 A 
ENDBRANCH  26  27
ENDBRANCH  25  26
ENDBRANCH  24  25
ENDBRANCH  23  24
ENDBRANCH  19  20
ENDBRANCH  18  19
TORSDOF 13
ENDMDL
MODEL 3
REMARK VINA RESULT:    -7.410      0.963      1.319
REMARK INTER + INTRA:         -15.563
REMARK INTER:                 -13.377
REMARK INTRA:                  -2.186
REMARK UNBOUND:                -2.522
REMARK  Name = 
REMARK  14 active torsions:
REMARK  status: ('A' for Active; 'I' for Inactive)
REMARK    1  A    between atoms: C_1  and  C_2
REMARK    2  A    between atoms: C_2  and  C_3
REMARK    3  A    between atoms: C_3  and  C_4
REMARK    4  A    between atoms: C_4  and  C_5
REMARK    5  A    between atoms: C_5  and  C_6
REMARK    6  A    between atoms: C_6  and  O_7
REMARK    7  A    between atoms: O_7  and  C_8
REMARK    8  A    between atoms: C_15  and  C_16
REMARK    9  A    between atoms: N_18  and  C_19
REMARK   10  A    between atoms: C_19  and  C_20
REMARK   11  A    between atoms: C_23  and  C_24
REMARK   12  A    between atoms: C_24  and  N_25
REMARK   13  A    between atoms: N_25  and  C_26
REMARK   14  A    between atoms: C_26  and  C_27
REMARK                            x       y       z     vdW  Elec       q    Type
REMARK                         _______ _______ _______ _____ _____    ______ ____
ROOT
ATOM     16  C   UNL     1      49.055   6.919  15.468  0.00  0.00    +0.000 C 
ATOM     17  O   UNL     1      50.139   6.933  14.886  0.00  0.00    +0.000 OA
ATOM     18  N   UNL     1      47.873   6.879  14.770  0.00  0.00    +0.000 N 
ATOM     36  H   UNL     1      46.987   6.944  15.254  0.00  0.00    +0.000 HD
ENDROOT
BRANCH  16  15
ATOM      8  C   UNL     1      48.565   4.608  18.002  0.00  0.00    +0.000 A 
ATOM      9  N   UNL     1      48.514   3.956  19.186  0.00  0.00    +0.000 NA
ATOM     10  C   UNL     1      48.666   4.651  20.314  0.00  0.00    +0.000 A 
ATOM     11  N   UNL     1      48.853   5.958  20.421  0.00  0.00    +0.000 NA
ATOM     12  C   UNL     1      48.923   6.576  19.231  0.00  0.00    +0.000 A 
ATOM     13  S   UNL     1      49.188   8.252  19.195  0.00  0.00    +0.000 S 
ATOM     14  C   UNL     1      49.216   8.254  17.502  0.00  0.00    +0.000 A 
ATOM     15  C   UNL     1      49.004   7.003  16.931  0.00  0.00    +0.000 A 
ATOM     35  C   UNL     1      48.809   5.996  17.966  0.00  0.00    +0.000 A 
BRANCH   8   7
ATOM      7  O   UNL     1      48.434   3.853  16.848  0.00  0.00    +0.000 OA
BRANCH   7   6
ATOM      6  C   UNL     1      48.678   2.452  17.067  0.00  0.00    +0.000 C 
BRANCH   6   5
ATOM      5  C   UNL     1      50.053   2.047  16.535  0.00  0.00    +0.000 C 
BRANCH   5   4
ATOM      4  C   UNL     1      51.064   1.599  17.598  0.00  0.00    +0.000 C 
BRANCH   4   3
ATOM      3  C   UNL     1      52.264   2.517  17.868  0.00  0.00    +0.000 C 
BRANCH   3   2
ATOM      1  C   UNL     1      52.245   4.778  19.100  0.00  0.00    +0.000 C 
ATOM      2  C   UNL     1      52.026   4.030  17.793  0.00  0.00    +0.000 C 
ENDBRANCH   3   2
ENDBRANCH   4   3
ENDBRANCH   5   4
ENDBRANCH   6   5
ENDBRANCH   7   6
ENDBRANCH   8   7
ENDBRANCH  16  15
BRANCH  18  19
ATOM     19  C   UNL     1      47.893   6.958  13.324  0.00  0.00    +0.000 C 
BRANCH  19  20
ATOM     20  C   UNL     1      46.923   6.026  12.653  0.00  0.00    +0.000 A 
ATOM     21  C   UNL     1      46.410   4.894  13.301  0.00  0.00    +0.000 A 
ATOM     22  C   UNL     1      45.345   4.173  12.740  0.00  0.00    +0.000 A 
ATOM     23  C   UNL     1      44.764   4.587  11.535  0.00  0.00    +0.000 A 
ATOM     33  C   UNL     1      45.336   5.670  10.857  0.00  0.00    +0.000 A 
ATOM     34  C   UNL     1      46.396   6.381  11.407  0.00  0.00    +0.000 A 
BRANCH  23  24
ATOM     24  C   UNL     1      43.557   3.919  10.918  0.00  0.00    +0.000 C 
BRANCH  24  25
ATOM     25  N   UNL     1      43.779   3.461   9.545  0.00  0.00    +0.000 NA
ATOM     37  H   UNL     1      44.243   4.199   9.016  0.00  0.00    +0.000 HD
BRANCH  25  26
ATOM     26  C   UNL     1      44.655   2.284   9.549  0.00  0.00    +0.000 C 
BRANCH  26  27
ATOM     27  C   UNL     1      45.649   2.328   8.414  0.00  0.00    +0.000 A 
ATOM     28  C   UNL     1      46.382   1.188   8.052  0.00  0.00    +0.000 A 
ATOM     29  C   UNL     1      47.276   1.236   6.981  0.00  0.00    +0.000 A 
ATOM     30  C   UNL     1      47.446   2.418   6.263  0.00  0.00    +0.000 A 
ATOM     31  C   UNL     1      46.725   3.557   6.617  0.00  0.00    +0.000 A 
ATOM     32  C   UNL     1      45.829   3.511   7.684  0.00  0.00    +0.000 A 
ENDBRANCH  26  27
ENDBRANCH  25  26
ENDBRANCH  24  25
ENDBRANCH  23  24
ENDBRANCH  19  20
ENDBRANCH  18  19
TORSDOF 13
ENDMDL
MODEL 4
REMARK VINA RESULT:    -7.207      1.805      3.669
REMARK INTER + INTRA:         -15.206
REMARK INTER:                 -12.807
REMARK INTRA:                  -2.399
REMARK UNBOUND:                -2.522
REMARK  Name = 
REMARK  14 active torsions:
REMARK  status: ('A' for Active; 'I' for Inactive)
REMARK    1  A    between atoms: C_1  and  C_2
REMARK    2  A    between atoms: C_2  and  C_3
REMARK    3  A    between atoms: C_3  and  C_4
REMARK    4  A    between atoms: C_4  and  C_5
REMARK    5  A    between atoms: C_5  and  C_6
REMARK    6  A    between atoms: C_6  and  O_7
REMARK    7  A    between atoms: O_7  and  C_8
REMARK    8  A    between atoms: C_15  and  C_16
REMARK    9  A    between atoms: N_18  and  C_19
REMARK   10  A    between atoms: C_19  and  C_20
REMARK   11  A    between atoms: C_23  and  C_24
REMARK   12  A    between atoms: C_24  and  N_25
REMARK   13  A    between atoms: N_25  and  C_26
REMARK   14  A    between atoms: C_26  and  C_27
REMARK                            x       y       z     vdW  Elec       q    Type
REMARK                         _______ _______ _______ _____ _____    ______ ____
ROOT
ATOM     16  C   UNL     1      48.917   6.251  16.141  0.00  0.00    +0.000 C 
ATOM     17  O   UNL     1      50.061   6.399  15.712  0.00  0.00    +0.000 OA
ATOM     18  N   UNL     1      47.869   5.984  15.295  0.00  0.00    +0.000 N 
ATOM     36  H   UNL     1      46.921   5.939  15.648  0.00  0.00    +0.000 HD
ENDROOT
BRANCH  16  15
ATOM      8  C   UNL     1      47.840   8.895  18.103  0.00  0.00    +0.000 A 
ATOM      9  N   UNL     1      47.345   9.674  19.092  0.00  0.00    +0.000 NA
ATOM     10  C   UNL     1      47.207   9.157  20.314  0.00  0.00    +0.000 A 
ATOM     11  N   UNL     1      47.522   7.928  20.695  0.00  0.00    +0.000 NA
ATOM     12  C   UNL     1      47.988   7.171  19.689  0.00  0.00    +0.000 A 
ATOM     13  S   UNL     1      48.412   5.559  20.008  0.00  0.00    +0.000 S 
ATOM     14  C   UNL     1      48.799   5.295  18.381  0.00  0.00    +0.000 A 
ATOM     15  C   UNL     1      48.641   6.415  17.571  0.00  0.00    +0.000 A 
ATOM     35  C   UNL     1      48.172   7.549  18.357  0.00  0.00    +0.000 A 
BRANCH   8   7
ATOM      7  O   UNL     1      47.943   9.453  16.839  0.00  0.00    +0.000 OA
BRANCH   7   6
ATOM      6  C   UNL     1      49.215  10.085  16.610  0.00  0.00    +0.000 C 
BRANCH   6   5
ATOM      5  C   UNL     1      49.667   9.895  15.161  0.00  0.00    +0.000 C 
BRANCH   5   4
ATOM      4  C   UNL     1      48.572   9.448  14.184  0.00  0.00    +0.000 C 
BRANCH   4   3
ATOM      3  C   UNL     1      48.437  10.224  12.867  0.00  0.00    +0.000 C 
BRANCH   3   2
ATOM      1  C   UNL     1      49.897   8.441  11.719  0.00  0.00    +0.000 C 
ATOM      2  C   UNL     1      48.800   9.486  11.573  0.00  0.00    +0.000 C 
ENDBRANCH   3   2
ENDBRANCH   4   3
ENDBRANCH   5   4
ENDBRANCH   6   5
ENDBRANCH   7   6
ENDBRANCH   8   7
ENDBRANCH  16  15
BRANCH  18  19
ATOM     19  C   UNL     1      48.088   5.978  13.863  0.00  0.00    +0.000 C 
BRANCH  19  20
ATOM     20  C   UNL     1      46.822   5.912  13.057  0.00  0.00    +0.000 A 
ATOM     21  C   UNL     1      46.733   6.447  11.764  0.00  0.00    +0.000 A 
ATOM     22  C   UNL     1      45.620   6.176  10.956  0.00  0.00    +0.000 A 
ATOM     23  C   UNL     1      44.590   5.349  11.419  0.00  0.00    +0.000 A 
ATOM     33  C   UNL     1      44.649   4.887  12.739  0.00  0.00    +0.000 A 
ATOM     34  C   UNL     1      45.748   5.160  13.546  0.00  0.00    +0.000 A 
BRANCH  23  24
ATOM     24  C   UNL     1      43.406   4.937  10.575  0.00  0.00    +0.000 C 
BRANCH  24  25
ATOM     25  N   UNL     1      43.780   4.348   9.288  0.00  0.00    +0.000 NA
ATOM     37  H   UNL     1      44.467   4.946   8.831  0.00  0.00    +0.000 HD
BRANCH  25  26
ATOM     26  C   UNL     1      44.395   3.033   9.504  0.00  0.00    +0.000 C 
BRANCH  26  27
ATOM     27  C   UNL     1      45.462   2.744   8.478  0.00  0.00    +0.000 A 
ATOM     28  C   UNL     1      46.003   1.457   8.341  0.00  0.00    +0.000 A 
ATOM     29  C   UNL     1      46.969   1.197   7.368  0.00  0.00    +0.000 A 
ATOM     30  C   UNL     1      47.403   2.217   6.523  0.00  0.00    +0.000 A 
ATOM     31  C   UNL     1      46.875   3.500   6.653  0.00  0.00    +0.000 A 
ATOM     32  C   UNL     1      45.908   3.761   7.623  0.00  0.00    +0.000 A 
ENDBRANCH  26  27
ENDBRANCH  25  26
ENDBRANCH  24  25
ENDBRANCH  23  24
ENDBRANCH  19  20
ENDBRANCH  18  19
TORSDOF 13
ENDMDL
MODEL 5
REMARK VINA RESULT:    -7.092      1.658      3.636
REMARK INTER + INTRA:         -15.004
REMARK INTER:                 -12.713
REMARK INTRA:                  -2.291
REMARK UNBOUND:                -2.522
REMARK  Name = 
REMARK  14 active torsions:
REMARK  status: ('A' for Active; 'I' for Inactive)
REMARK    1  A    between atoms: C_1  and  C_2
REMARK    2  A    between atoms: C_2  and  C_3
REMARK    3  A    between atoms: C_3  and  C_4
REMARK    4  A    between atoms: C_4  and  C_5
REMARK    5  A    between atoms: C_5  and  C_6
REMARK    6  A    between atoms: C_6  and  O_7
REMARK    7  A    between atoms: O_7  and  C_8
REMARK    8  A    between atoms: C_15  and  C_16
REMARK    9  A    between atoms: N_18  and  C_19
REMARK   10  A    between atoms: C_19  and  C_20
REMARK   11  A    between atoms: C_23  and  C_24
REMARK   12  A    between atoms: C_24  and  N_25
REMARK   13  A    between atoms: N_25  and  C_26
REMARK   14  A    between atoms: C_26  and  C_27
REMARK                            x       y       z     vdW  Elec       q    Type
REMARK                         _______ _______ _______ _____ _____    ______ ____
ROOT
ATOM     16  C   UNL     1      48.735   8.115  15.729  0.00  0.00    +0.000 C 
ATOM     17  O   UNL     1      49.786   7.994  15.101  0.00  0.00    +0.000 OA
ATOM     18  N   UNL     1      47.639   8.727  15.173  0.00  0.00    +0.000 N 
ATOM     36  H   UNL     1      46.805   8.889  15.723  0.00  0.00    +0.000 HD
ENDROOT
BRANCH  16  15
ATOM      8  C   UNL     1      48.599   4.996  17.233  0.00  0.00    +0.000 A 
ATOM      9  N   UNL     1      48.640   3.959  18.100  0.00  0.00    +0.000 NA
ATOM     10  C   UNL     1      48.660   4.211  19.409  0.00  0.00    +0.000 A 
ATOM     11  N   UNL     1      48.628   5.402  19.988  0.00  0.00    +0.000 NA
ATOM     12  C   UNL     1      48.611   6.413  19.104  0.00  0.00    +0.000 A 
ATOM     13  S   UNL     1      48.597   8.007  19.687  0.00  0.00    +0.000 S 
ATOM     14  C   UNL     1      48.647   8.627  18.112  0.00  0.00    +0.000 A 
ATOM     15  C   UNL     1      48.651   7.653  17.119  0.00  0.00    +0.000 A 
ATOM     35  C   UNL     1      48.611   6.322  17.711  0.00  0.00    +0.000 A 
BRANCH   8   7
ATOM      7  O   UNL     1      48.610   4.701  15.879  0.00  0.00    +0.000 OA
BRANCH   7   6
ATOM      6  C   UNL     1      47.300   4.758  15.285  0.00  0.00    +0.000 C 
BRANCH   6   5
ATOM      5  C   UNL     1      47.122   3.647  14.249  0.00  0.00    +0.000 C 
BRANCH   5   4
ATOM      4  C   UNL     1      46.045   3.904  13.188  0.00  0.00    +0.000 C 
BRANCH   4   3
ATOM      3  C   UNL     1      44.703   4.479  13.663  0.00  0.00    +0.000 C 
BRANCH   3   2
ATOM      1  C   UNL     1      43.569   2.770  12.107  0.00  0.00    +0.000 C 
ATOM      2  C   UNL     1      43.447   4.072  12.885  0.00  0.00    +0.000 C 
ENDBRANCH   3   2
ENDBRANCH   4   3
ENDBRANCH   5   4
ENDBRANCH   6   5
ENDBRANCH   7   6
ENDBRANCH   8   7
ENDBRANCH  16  15
BRANCH  18  19
ATOM     19  C   UNL     1      47.748   9.334  13.862  0.00  0.00    +0.000 C 
BRANCH  19  20
ATOM     20  C   UNL     1      47.065   8.552  12.775  0.00  0.00    +0.000 A 
ATOM     21  C   UNL     1      47.732   7.564  12.036  0.00  0.00    +0.000 A 
ATOM     22  C   UNL     1      47.019   6.703  11.191  0.00  0.00    +0.000 A 
ATOM     23  C   UNL     1      45.626   6.801  11.088  0.00  0.00    +0.000 A 
ATOM     33  C   UNL     1      44.980   7.842  11.766  0.00  0.00    +0.000 A 
ATOM     34  C   UNL     1      45.686   8.702  12.600  0.00  0.00    +0.000 A 
BRANCH  23  24
ATOM     24  C   UNL     1      44.779   5.851  10.272  0.00  0.00    +0.000 C 
BRANCH  24  25
ATOM     25  N   UNL     1      45.496   5.245   9.149  0.00  0.00    +0.000 NA
ATOM     37  H   UNL     1      46.424   4.958   9.458  0.00  0.00    +0.000 HD
BRANCH  25  26
ATOM     26  C   UNL     1      44.780   4.049   8.691  0.00  0.00    +0.000 C 
BRANCH  26  27
ATOM     27  C   UNL     1      45.700   3.092   7.973  0.00  0.00    +0.000 A 
ATOM     28  C   UNL     1      46.425   3.497   6.843  0.00  0.00    +0.000 A 
ATOM     29  C   UNL     1      47.294   2.609   6.206  0.00  0.00    +0.000 A 
ATOM     30  C   UNL     1      47.449   1.312   6.693  0.00  0.00    +0.000 A 
ATOM     31  C   UNL     1      46.732   0.898   7.814  0.00  0.00    +0.000 A 
ATOM     32  C   UNL     1      45.865   1.784   8.453  0.00  0.00    +0.000 A 
ENDBRANCH  26  27
ENDBRANCH  25  26
ENDBRANCH  24  25
ENDBRANCH  23  24
ENDBRANCH  19  20
ENDBRANCH  18  19
TORSDOF 13
ENDMDL
MODEL 6
REMARK VINA RESULT:    -6.984      2.208      3.243
REMARK INTER + INTRA:         -14.813
REMARK INTER:                 -12.588
REMARK INTRA:                  -2.225
REMARK UNBOUND:                -2.522
REMARK  Name = 
REMARK  14 active torsions:
REMARK  status: ('A' for Active; 'I' for Inactive)
REMARK    1  A    between atoms: C_1  and  C_2
REMARK    2  A    between atoms: C_2  and  C_3
REMARK    3  A    between atoms: C_3  and  C_4
REMARK    4  A    between atoms: C_4  and  C_5
REMARK    5  A    between atoms: C_5  and  C_6
REMARK    6  A    between atoms: C_6  and  O_7
REMARK    7  A    between atoms: O_7  and  C_8
REMARK    8  A    between atoms: C_15  and  C_16
REMARK    9  A    between atoms: N_18  and  C_19
REMARK   10  A    between atoms: C_19  and  C_20
REMARK   11  A    between atoms: C_23  and  C_24
REMARK   12  A    between atoms: C_24  and  N_25
REMARK   13  A    between atoms: N_25  and  C_26
REMARK   14  A    between atoms: C_26  and  C_27
REMARK                            x       y       z     vdW  Elec       q    Type
REMARK                         _______ _______ _______ _____ _____    ______ ____
ROOT
ATOM     16  C   UNL     1      50.173   8.015  14.630  0.00  0.00    +0.000 C 
ATOM     17  O   UNL     1      49.529   8.933  15.135  0.00  0.00    +0.000 OA
ATOM     18  N   UNL     1      49.749   7.397  13.479  0.00  0.00    +0.000 N 
ATOM     36  H   UNL     1      50.245   6.594  13.114  0.00  0.00    +0.000 HD
ENDROOT
BRANCH  16  15
ATOM      8  C   UNL     1      50.784   5.921  17.321  0.00  0.00    +0.000 A 
ATOM      9  N   UNL     1      51.337   5.084  18.229  0.00  0.00    +0.000 NA
ATOM     10  C   UNL     1      52.665   4.961  18.270  0.00  0.00    +0.000 A 
ATOM     11  N   UNL     1      53.543   5.596  17.509  0.00  0.00    +0.000 NA
ATOM     12  C   UNL     1      52.966   6.401  16.602  0.00  0.00    +0.000 A 
ATOM     13  S   UNL     1      53.957   7.266  15.531  0.00  0.00    +0.000 S 
ATOM     14  C   UNL     1      52.608   7.920  14.745  0.00  0.00    +0.000 A 
ATOM     15  C   UNL     1      51.389   7.522  15.285  0.00  0.00    +0.000 A 
ATOM     35  C   UNL     1      51.601   6.623  16.413  0.00  0.00    +0.000 A 
BRANCH   8   7
ATOM      7  O   UNL     1      49.401   6.003  17.284  0.00  0.00    +0.000 OA
BRANCH   7   6
ATOM      6  C   UNL     1      48.813   6.106  18.593  0.00  0.00    +0.000 C 
BRANCH   6   5
ATOM      5  C   UNL     1      47.785   4.997  18.818  0.00  0.00    +0.000 C 
BRANCH   5   4
ATOM      4  C   UNL     1      47.195   4.378  17.545  0.00  0.00    +0.000 C 
BRANCH   4   3
ATOM      3  C   UNL     1      47.495   2.898  17.270  0.00  0.00    +0.000 C 
BRANCH   3   2
ATOM      1  C   UNL     1      49.946   2.124  17.134  0.00  0.00    +0.000 C 
ATOM      2  C   UNL     1      48.702   2.576  16.382  0.00  0.00    +0.000 C 
ENDBRANCH   3   2
ENDBRANCH   4   3
ENDBRANCH   5   4
ENDBRANCH   6   5
ENDBRANCH   7   6
ENDBRANCH   8   7
ENDBRANCH  16  15
BRANCH  18  19
ATOM     19  C   UNL     1      48.470   7.757  12.904  0.00  0.00    +0.000 C 
BRANCH  19  20
ATOM     20  C   UNL     1      47.594   6.577  12.589  0.00  0.00    +0.000 A 
ATOM     21  C   UNL     1      47.433   5.510  13.484  0.00  0.00    +0.000 A 
ATOM     22  C   UNL     1      46.444   4.540  13.265  0.00  0.00    +0.000 A 
ATOM     23  C   UNL     1      45.589   4.633  12.160  0.00  0.00    +0.000 A 
ATOM     33  C   UNL     1      45.812   5.656  11.230  0.00  0.00    +0.000 A 
ATOM     34  C   UNL     1      46.796   6.615  11.441  0.00  0.00    +0.000 A 
BRANCH  23  24
ATOM     24  C   UNL     1      44.444   3.680  11.908  0.00  0.00    +0.000 C 
BRANCH  24  25
ATOM     25  N   UNL     1      44.806   2.538  11.067  0.00  0.00    +0.000 NA
ATOM     37  H   UNL     1      44.392   1.691  11.455  0.00  0.00    +0.000 HD
BRANCH  25  26
ATOM     26  C   UNL     1      44.270   2.727   9.714  0.00  0.00    +0.000 C 
BRANCH  26  27
ATOM     27  C   UNL     1      45.354   2.632   8.670  0.00  0.00    +0.000 A 
ATOM     28  C   UNL     1      45.808   3.774   7.993  0.00  0.00    +0.000 A 
ATOM     29  C   UNL     1      46.832   3.675   7.049  0.00  0.00    +0.000 A 
ATOM     30  C   UNL     1      47.413   2.437   6.775  0.00  0.00    +0.000 A 
ATOM     31  C   UNL     1      46.968   1.296   7.439  0.00  0.00    +0.000 A 
ATOM     32  C   UNL     1      45.947   1.394   8.383  0.00  0.00    +0.000 A 
ENDBRANCH  26  27
ENDBRANCH  25  26
ENDBRANCH  24  25
ENDBRANCH  23  24
ENDBRANCH  19  20
ENDBRANCH  18  19
TORSDOF 13
ENDMDL
MODEL 7
REMARK VINA RESULT:    -6.972      1.397      2.652
REMARK INTER + INTRA:         -14.793
REMARK INTER:                 -12.362
REMARK INTRA:                  -2.431
REMARK UNBOUND:                -2.522
REMARK  Name = 
REMARK  14 active torsions:
REMARK  status: ('A' for Active; 'I' for Inactive)
REMARK    1  A    between atoms: C_1  and  C_2
REMARK    2  A    between atoms: C_2  and  C_3
REMARK    3  A    between atoms: C_3  and  C_4
REMARK    4  A    between atoms: C_4  and  C_5
REMARK    5  A    between atoms: C_5  and  C_6
REMARK    6  A    between atoms: C_6  and  O_7
REMARK    7  A    between atoms: O_7  and  C_8
REMARK    8  A    between atoms: C_15  and  C_16
REMARK    9  A    between atoms: N_18  and  C_19
REMARK   10  A    between atoms: C_19  and  C_20
REMARK   11  A    between atoms: C_23  and  C_24
REMARK   12  A    between atoms: C_24  and  N_25
REMARK   13  A    between atoms: N_25  and  C_26
REMARK   14  A    between atoms: C_26  and  C_27
REMARK                            x       y       z     vdW  Elec       q    Type
REMARK                         _______ _______ _______ _____ _____    ______ ____
ROOT
ATOM     16  C   UNL     1      48.269   5.557  16.278  0.00  0.00    +0.000 C 
ATOM     17  O   UNL     1      48.595   4.391  16.059  0.00  0.00    +0.000 OA
ATOM     18  N   UNL     1      47.975   6.418  15.250  0.00  0.00    +0.000 N 
ATOM     36  H   UNL     1      47.781   7.394  15.435  0.00  0.00    +0.000 HD
ENDROOT
BRANCH  16  15
ATOM      8  C   UNL     1      49.418   8.452  17.795  0.00  0.00    +0.000 A 
ATOM      9  N   UNL     1      49.646   9.486  18.636  0.00  0.00    +0.000 NA
ATOM     10  C   UNL     1      49.238   9.392  19.902  0.00  0.00    +0.000 A 
ATOM     11  N   UNL     1      48.625   8.360  20.463  0.00  0.00    +0.000 NA
ATOM     12  C   UNL     1      48.391   7.358  19.600  0.00  0.00    +0.000 A 
ATOM     13  S   UNL     1      47.587   5.972  20.157  0.00  0.00    +0.000 S 
ATOM     14  C   UNL     1      47.612   5.284  18.611  0.00  0.00    +0.000 A 
ATOM     15  C   UNL     1      48.245   6.069  17.652  0.00  0.00    +0.000 A 
ATOM     35  C   UNL     1      48.730   7.308  18.247  0.00  0.00    +0.000 A 
BRANCH   8   7
ATOM      7  O   UNL     1      49.828   8.593  16.479  0.00  0.00    +0.000 OA
BRANCH   7   6
ATOM      6  C   UNL     1      51.243   8.396  16.310  0.00  0.00    +0.000 C 
BRANCH   6   5
ATOM      5  C   UNL     1      51.545   6.965  15.864  0.00  0.00    +0.000 C 
BRANCH   5   4
ATOM      4  C   UNL     1      52.507   6.183  16.767  0.00  0.00    +0.000 C 
BRANCH   4   3
ATOM      3  C   UNL     1      52.039   5.862  18.193  0.00  0.00    +0.000 C 
BRANCH   3   2
ATOM      1  C   UNL     1      51.446   3.406  17.699  0.00  0.00    +0.000 C 
ATOM      2  C   UNL     1      52.106   4.399  18.645  0.00  0.00    +0.000 C 
ENDBRANCH   3   2
ENDBRANCH   4   3
ENDBRANCH   5   4
ENDBRANCH   6   5
ENDBRANCH   7   6
ENDBRANCH   8   7
ENDBRANCH  16  15
BRANCH  18  19
ATOM     19  C   UNL     1      48.148   5.982  13.879  0.00  0.00    +0.000 C 
BRANCH  19  20
ATOM     20  C   UNL     1      46.868   5.935  13.093  0.00  0.00    +0.000 A 
ATOM     21  C   UNL     1      46.745   6.538  11.833  0.00  0.00    +0.000 A 
ATOM     22  C   UNL     1      45.623   6.289  11.031  0.00  0.00    +0.000 A 
ATOM     23  C   UNL     1      44.616   5.419  11.466  0.00  0.00    +0.000 A 
ATOM     33  C   UNL     1      44.709   4.887  12.758  0.00  0.00    +0.000 A 
ATOM     34  C   UNL     1      45.818   5.138  13.559  0.00  0.00    +0.000 A 
BRANCH  23  24
ATOM     24  C   UNL     1      43.425   5.030  10.622  0.00  0.00    +0.000 C 
BRANCH  24  25
ATOM     25  N   UNL     1      43.788   4.439   9.333  0.00  0.00    +0.000 NA
ATOM     37  H   UNL     1      44.491   5.022   8.881  0.00  0.00    +0.000 HD
BRANCH  25  26
ATOM     26  C   UNL     1      44.368   3.107   9.543  0.00  0.00    +0.000 C 
BRANCH  26  27
ATOM     27  C   UNL     1      45.412   2.786   8.502  0.00  0.00    +0.000 A 
ATOM     28  C   UNL     1      45.878   3.770   7.618  0.00  0.00    +0.000 A 
ATOM     29  C   UNL     1      46.865   3.466   6.679  0.00  0.00    +0.000 A 
ATOM     30  C   UNL     1      47.398   2.179   6.616  0.00  0.00    +0.000 A 
ATOM     31  C   UNL     1      46.940   1.193   7.488  0.00  0.00    +0.000 A 
ATOM     32  C   UNL     1      45.956   1.496   8.428  0.00  0.00    +0.000 A 
ENDBRANCH  26  27
ENDBRANCH  25  26
ENDBRANCH  24  25
ENDBRANCH  23  24
ENDBRANCH  19  20
ENDBRANCH  18  19
TORSDOF 13
ENDMDL
MODEL 8
REMARK VINA RESULT:    -6.912      1.805      4.031
REMARK INTER + INTRA:         -14.686
REMARK INTER:                 -12.181
REMARK INTRA:                  -2.506
REMARK UNBOUND:                -2.522
REMARK  Name = 
REMARK  14 active torsions:
REMARK  status: ('A' for Active; 'I' for Inactive)
REMARK    1  A    between atoms: C_1  and  C_2
REMARK    2  A    between atoms: C_2  and  C_3
REMARK    3  A    between atoms: C_3  and  C_4
REMARK    4  A    between atoms: C_4  and  C_5
REMARK    5  A    between atoms: C_5  and  C_6
REMARK    6  A    between atoms: C_6  and  O_7
REMARK    7  A    between atoms: O_7  and  C_8
REMARK    8  A    between atoms: C_15  and  C_16
REMARK    9  A    between atoms: N_18  and  C_19
REMARK   10  A    between atoms: C_19  and  C_20
REMARK   11  A    between atoms: C_23  and  C_24
REMARK   12  A    between atoms: C_24  and  N_25
REMARK   13  A    between atoms: N_25  and  C_26
REMARK   14  A    between atoms: C_26  and  C_27
REMARK                            x       y       z     vdW  Elec       q    Type
REMARK                         _______ _______ _______ _____ _____    ______ ____
ROOT
ATOM     16  C   UNL     1      48.087   5.162  17.221  0.00  0.00    +0.000 C 
ATOM     17  O   UNL     1      48.494   4.088  17.661  0.00  0.00    +0.000 OA
ATOM     18  N   UNL     1      47.489   5.246  15.987  0.00  0.00    +0.000 N 
ATOM     36  H   UNL     1      47.226   6.144  15.602  0.00  0.00    +0.000 HD
ENDROOT
BRANCH  16  15
ATOM      8  C   UNL     1      48.665   8.470  16.366  0.00  0.00    +0.000 A 
ATOM      9  N   UNL     1      48.788   9.817  16.358  0.00  0.00    +0.000 NA
ATOM     10  C   UNL     1      48.795  10.472  17.520  0.00  0.00    +0.000 A 
ATOM     11  N   UNL     1      48.707   9.941  18.730  0.00  0.00    +0.000 NA
ATOM     12  C   UNL     1      48.563   8.606  18.708  0.00  0.00    +0.000 A 
ATOM     13  S   UNL     1      48.409   7.776  20.179  0.00  0.00    +0.000 S 
ATOM     14  C   UNL     1      48.216   6.299  19.375  0.00  0.00    +0.000 A 
ATOM     15  C   UNL     1      48.287   6.396  17.988  0.00  0.00    +0.000 A 
ATOM     35  C   UNL     1      48.514   7.778  17.585  0.00  0.00    +0.000 A 
BRANCH   8   7
ATOM      7  O   UNL     1      48.632   7.822  15.142  0.00  0.00    +0.000 OA
BRANCH   7   6
ATOM      6  C   UNL     1      49.928   7.365  14.716  0.00  0.00    +0.000 C 
BRANCH   6   5
ATOM      5  C   UNL     1      50.465   8.231  13.576  0.00  0.00    +0.000 C 
BRANCH   5   4
ATOM      4  C   UNL     1      50.044   7.796  12.166  0.00  0.00    +0.000 C 
BRANCH   4   3
ATOM      3  C   UNL     1      48.578   8.010  11.765  0.00  0.00    +0.000 C 
BRANCH   3   2
ATOM      1  C   UNL     1      46.494   9.448  12.230  0.00  0.00    +0.000 C 
ATOM      2  C   UNL     1      47.991   9.413  11.959  0.00  0.00    +0.000 C 
ENDBRANCH   3   2
ENDBRANCH   4   3
ENDBRANCH   5   4
ENDBRANCH   6   5
ENDBRANCH   7   6
ENDBRANCH   8   7
ENDBRANCH  16  15
BRANCH  18  19
ATOM     19  C   UNL     1      47.425   4.071  15.142  0.00  0.00    +0.000 C 
BRANCH  19  20
ATOM     20  C   UNL     1      46.667   4.286  13.863  0.00  0.00    +0.000 A 
ATOM     21  C   UNL     1      46.080   3.226  13.158  0.00  0.00    +0.000 A 
ATOM     22  C   UNL     1      45.196   3.478  12.099  0.00  0.00    +0.000 A 
ATOM     23  C   UNL     1      44.870   4.792  11.743  0.00  0.00    +0.000 A 
ATOM     33  C   UNL     1      45.523   5.841  12.399  0.00  0.00    +0.000 A 
ATOM     34  C   UNL     1      46.405   5.595  13.445  0.00  0.00    +0.000 A 
BRANCH  23  24
ATOM     24  C   UNL     1      43.857   5.141  10.676  0.00  0.00    +0.000 C 
BRANCH  24  25
ATOM     25  N   UNL     1      43.975   4.326   9.466  0.00  0.00    +0.000 NA
ATOM     37  H   UNL     1      43.186   4.521   8.851  0.00  0.00    +0.000 HD
BRANCH  25  26
ATOM     26  C   UNL     1      45.207   4.675   8.750  0.00  0.00    +0.000 C 
BRANCH  26  27
ATOM     27  C   UNL     1      45.860   3.458   8.142  0.00  0.00    +0.000 A 
ATOM     28  C   UNL     1      46.748   3.579   7.063  0.00  0.00    +0.000 A 
ATOM     29  C   UNL     1      47.367   2.447   6.529  0.00  0.00    +0.000 A 
ATOM     30  C   UNL     1      47.107   1.188   7.067  0.00  0.00    +0.000 A 
ATOM     31  C   UNL     1      46.223   1.056   8.137  0.00  0.00    +0.000 A 
ATOM     32  C   UNL     1      45.606   2.186   8.673  0.00  0.00    +0.000 A 
ENDBRANCH  26  27
ENDBRANCH  25  26
ENDBRANCH  24  25
ENDBRANCH  23  24
ENDBRANCH  19  20
ENDBRANCH  18  19
TORSDOF 13
ENDMDL
MODEL 9
REMARK VINA RESULT:    -6.843      1.887      2.813
REMARK INTER + INTRA:         -14.566
REMARK INTER:                 -12.006
REMARK INTRA:                  -2.559
REMARK UNBOUND:                -2.522
REMARK  Name = 
REMARK  14 active torsions:
REMARK  status: ('A' for Active; 'I' for Inactive)
REMARK    1  A    between atoms: C_1  and  C_2
REMARK    2  A    between atoms: C_2  and  C_3
REMARK    3  A    between atoms: C_3  and  C_4
REMARK    4  A    between atoms: C_4  and  C_5
REMARK    5  A    between atoms: C_5  and  C_6
REMARK    6  A    between atoms: C_6  and  O_7
REMARK    7  A    between atoms: O_7  and  C_8
REMARK    8  A    between atoms: C_15  and  C_16
REMARK    9  A    between atoms: N_18  and  C_19
REMARK   10  A    between atoms: C_19  and  C_20
REMARK   11  A    between atoms: C_23  and  C_24
REMARK   12  A    between atoms: C_24  and  N_25
REMARK   13  A    between atoms: N_25  and  C_26
REMARK   14  A    between atoms: C_26  and  C_27
REMARK                            x       y       z     vdW  Elec       q    Type
REMARK                         _______ _______ _______ _____ _____    ______ ____
ROOT
ATOM     16  C   UNL     1      49.652   7.571  15.107  0.00  0.00    +0.000 C 
ATOM     17  O   UNL     1      48.808   8.267  15.669  0.00  0.00    +0.000 OA
ATOM     18  N   UNL     1      49.556   7.275  13.769  0.00  0.00    +0.000 N 
ATOM     36  H   UNL     1      50.213   6.641  13.333  0.00  0.00    +0.000 HD
ENDROOT
BRANCH  16  15
ATOM      8  C   UNL     1      49.997   4.743  17.078  0.00  0.00    +0.000 A 
ATOM      9  N   UNL     1      50.469   3.698  17.796  0.00  0.00    +0.000 NA
ATOM     10  C   UNL     1      51.755   3.684  18.149  0.00  0.00    +0.000 A 
ATOM     11  N   UNL     1      52.660   4.615  17.884  0.00  0.00    +0.000 NA
ATOM     12  C   UNL     1      52.170   5.628  17.152  0.00  0.00    +0.000 A 
ATOM     13  S   UNL     1      53.212   6.890  16.705  0.00  0.00    +0.000 S 
ATOM     14  C   UNL     1      51.980   7.654  15.830  0.00  0.00    +0.000 A 
ATOM     15  C   UNL     1      50.758   6.990  15.876  0.00  0.00    +0.000 A 
ATOM     35  C   UNL     1      50.864   5.782  16.684  0.00  0.00    +0.000 A 
BRANCH   8   7
ATOM      7  O   UNL     1      48.664   4.713  16.702  0.00  0.00    +0.000 OA
BRANCH   7   6
ATOM      6  C   UNL     1      47.809   4.163  17.720  0.00  0.00    +0.000 C 
BRANCH   6   5
ATOM      5  C   UNL     1      46.888   5.238  18.299  0.00  0.00    +0.000 C 
BRANCH   5   4
ATOM      4  C   UNL     1      47.508   6.113  19.397  0.00  0.00    +0.000 C 
BRANCH   4   3
ATOM      3  C   UNL     1      48.066   7.481  18.984  0.00  0.00    +0.000 C 
BRANCH   3   2
ATOM      1  C   UNL     1      50.194   6.744  20.231  0.00  0.00    +0.000 C 
ATOM      2  C   UNL     1      49.521   7.790  19.354  0.00  0.00    +0.000 C 
ENDBRANCH   3   2
ENDBRANCH   4   3
ENDBRANCH   5   4
ENDBRANCH   6   5
ENDBRANCH   7   6
ENDBRANCH   8   7
ENDBRANCH  16  15
BRANCH  18  19
ATOM     19  C   UNL     1      48.389   7.702  13.025  0.00  0.00    +0.000 C 
BRANCH  19  20
ATOM     20  C   UNL     1      47.491   6.572  12.607  0.00  0.00    +0.000 A 
ATOM     21  C   UNL     1      47.170   5.517  13.473  0.00  0.00    +0.000 A 
ATOM     22  C   UNL     1      46.161   4.602  13.138  0.00  0.00    +0.000 A 
ATOM     23  C   UNL     1      45.444   4.741  11.944  0.00  0.00    +0.000 A 
ATOM     33  C   UNL     1      45.828   5.747  11.050  0.00  0.00    +0.000 A 
ATOM     34  C   UNL     1      46.832   6.652  11.376  0.00  0.00    +0.000 A 
BRANCH  23  24
ATOM     24  C   UNL     1      44.284   3.851  11.558  0.00  0.00    +0.000 C 
BRANCH  24  25
ATOM     25  N   UNL     1      44.036   3.805  10.117  0.00  0.00    +0.000 NA
ATOM     37  H   UNL     1      44.648   4.472   9.648  0.00  0.00    +0.000 HD
BRANCH  25  26
ATOM     26  C   UNL     1      44.345   2.466   9.602  0.00  0.00    +0.000 C 
BRANCH  26  27
ATOM     27  C   UNL     1      45.442   2.508   8.567  0.00  0.00    +0.000 A 
ATOM     28  C   UNL     1      46.166   1.353   8.234  0.00  0.00    +0.000 A 
ATOM     29  C   UNL     1      47.159   1.401   7.254  0.00  0.00    +0.000 A 
ATOM     30  C   UNL     1      47.436   2.599   6.597  0.00  0.00    +0.000 A 
ATOM     31  C   UNL     1      46.726   3.752   6.922  0.00  0.00    +0.000 A 
ATOM     32  C   UNL     1      45.732   3.706   7.900  0.00  0.00    +0.000 A 
ENDBRANCH  26  27
ENDBRANCH  25  26
ENDBRANCH  24  25
ENDBRANCH  23  24
ENDBRANCH  19  20
ENDBRANCH  18  19
TORSDOF 13
ENDMDL
