MODEL 1
REMARK VINA RESULT:    -7.929      0.000      0.000
REMARK INTER + INTRA:          -8.480
REMARK INTER:                  -9.319
REMARK INTRA:                   0.840
REMARK UNBOUND:                 0.840
REMARK  Name = 
REMARK  4 active torsions:
REMARK  status: ('A' for Active; 'I' for Inactive)
REMARK    1  A    between atoms: C_1  and  C_2
REMARK    2  A    between atoms: C_2  and  N_3
REMARK    3  A    between atoms: C_2  and  C_13
REMARK    4  A    between atoms: C_7  and  C_8
REMARK                            x       y       z     vdW  Elec       q    Type
REMARK                         _______ _______ _______ _____ _____    ______ ____
ROOT
ATOM      3  N   UNL     1      44.763   5.273   9.947  0.00  0.00    +0.000 N 
ATOM      4  C   UNL     1      45.477   5.262  11.147  0.00  0.00    +0.000 A 
ATOM      5  C   UNL     1      46.392   6.293  11.352  0.00  0.00    +0.000 A 
ATOM      6  C   UNL     1      47.125   6.342  12.535  0.00  0.00    +0.000 A 
ATOM      7  C   UNL     1      46.898   5.387  13.524  0.00  0.00    +0.000 A 
ATOM     11  C   UNL     1      45.947   4.414  13.249  0.00  0.00    +0.000 A 
ATOM     12  N   UNL     1      45.244   4.328  12.086  0.00  0.00    +0.000 NA
ATOM     19  H   UNL     1      44.038   5.983  10.027  0.00  0.00    +0.000 HD
ENDROOT
BRANCH   7   8
ATOM      8  C   UNL     1      47.673   5.467  14.787  0.00  0.00    +0.000 C 
ATOM      9  N   UNL     1      47.217   4.805  15.894  0.00  0.00    +0.000 N 
ATOM     10  O   UNL     1      48.708   6.118  14.854  0.00  0.00    +0.000 OA
ATOM     20  H   UNL     1      46.372   4.262  15.955  0.00  0.00    +0.000 HD
ATOM     21  H   UNL     1      47.776   4.898  16.731  0.00  0.00    +0.000 HD
ENDBRANCH   7   8
BRANCH   3   2
ATOM      1  C   UNL     1      43.780   3.119  10.639  0.00  0.00    +0.000 C 
ATOM      2  C   UNL     1      44.205   4.009   9.463  0.00  0.00    +0.000 C 
BRANCH   2  13
ATOM     13  C   UNL     1      45.280   3.264   8.670  0.00  0.00    +0.000 A 
ATOM     14  C   UNL     1      46.054   3.951   7.720  0.00  0.00    +0.000 A 
ATOM     15  C   UNL     1      46.984   3.268   6.932  0.00  0.00    +0.000 A 
ATOM     16  C   UNL     1      47.161   1.894   7.086  0.00  0.00    +0.000 A 
ATOM     17  C   UNL     1      46.404   1.199   8.025  0.00  0.00    +0.000 A 
ATOM     18  C   UNL     1      45.465   1.876   8.804  0.00  0.00    +0.000 A 
ENDBRANCH   2  13
ENDBRANCH   3   2
TORSDOF 3
ENDMDL
MODEL 2
REMARK VINA RESULT:    -7.717      1.976      2.453
REMARK INTER + INTRA:          -8.230
REMARK INTER:                  -7.891
REMARK INTRA:                  -0.339
REMARK UNBOUND:                 0.840
REMARK  Name = 
REMARK  4 active torsions:
REMARK  status: ('A' for Active; 'I' for Inactive)
REMARK    1  A    between atoms: C_1  and  C_2
REMARK    2  A    between atoms: C_2  and  N_3
REMARK    3  A    between atoms: C_2  and  C_13
REMARK    4  A    between atoms: C_7  and  C_8
REMARK                            x       y       z     vdW  Elec       q    Type
REMARK                         _______ _______ _______ _____ _____    ______ ____
ROOT
ATOM      3  N   UNL     1      45.277   2.941  10.740  0.00  0.00    +0.000 N 
ATOM      4  C   UNL     1      45.341   4.246  11.231  0.00  0.00    +0.000 A 
ATOM      5  C   UNL     1      45.511   4.402  12.605  0.00  0.00    +0.000 A 
ATOM      6  C   UNL     1      45.594   5.680  13.151  0.00  0.00    +0.000 A 
ATOM      7  C   UNL     1      45.556   6.791  12.311  0.00  0.00    +0.000 A 
ATOM     11  C   UNL     1      45.416   6.544  10.952  0.00  0.00    +0.000 A 
ATOM     12  N   UNL     1      45.300   5.304  10.400  0.00  0.00    +0.000 NA
ATOM     19  H   UNL     1      46.226   2.571  10.726  0.00  0.00    +0.000 HD
ENDROOT
BRANCH   7   8
ATOM      8  C   UNL     1      45.667   8.144  12.909  0.00  0.00    +0.000 C 
ATOM      9  N   UNL     1      44.731   9.091  12.598  0.00  0.00    +0.000 N 
ATOM     10  O   UNL     1      46.584   8.425  13.670  0.00  0.00    +0.000 OA
ATOM     20  H   UNL     1      43.952   8.974  11.970  0.00  0.00    +0.000 HD
ATOM     21  H   UNL     1      44.856   9.999  13.025  0.00  0.00    +0.000 HD
ENDBRANCH   7   8
BRANCH   3   2
ATOM      1  C   UNL     1      43.791   1.421   9.491  0.00  0.00    +0.000 C 
ATOM      2  C   UNL     1      44.611   2.717   9.456  0.00  0.00    +0.000 C 
BRANCH   2  13
ATOM     13  C   UNL     1      45.674   2.574   8.364  0.00  0.00    +0.000 A 
ATOM     14  C   UNL     1      45.927   3.642   7.488  0.00  0.00    +0.000 A 
ATOM     15  C   UNL     1      46.837   3.500   6.437  0.00  0.00    +0.000 A 
ATOM     16  C   UNL     1      47.511   2.295   6.250  0.00  0.00    +0.000 A 
ATOM     17  C   UNL     1      47.273   1.227   7.111  0.00  0.00    +0.000 A 
ATOM     18  C   UNL     1      46.356   1.362   8.154  0.00  0.00    +0.000 A 
ENDBRANCH   2  13
ENDBRANCH   3   2
TORSDOF 3
ENDMDL
MODEL 3
REMARK VINA RESULT:    -7.682      3.096      6.112
REMARK INTER + INTRA:          -8.189
REMARK INTER:                  -8.713
REMARK INTRA:                   0.524
REMARK UNBOUND:                 0.840
REMARK  Name = 
REMARK  4 active torsions:
REMARK  status: ('A' for Active; 'I' for Inactive)
REMARK    1  A    between atoms: C_1  and  C_2
REMARK    2  A    between atoms: C_2  and  N_3
REMARK    3  A    between atoms: C_2  and  C_13
REMARK    4  A    between atoms: C_7  and  C_8
REMARK                            x       y       z     vdW  Elec       q    Type
REMARK                         _______ _______ _______ _____ _____    ______ ____
ROOT
ATOM      3  N   UNL     1      43.818   2.978  10.683  0.00  0.00    +0.000 N 
ATOM      4  C   UNL     1      44.695   2.986   9.597  0.00  0.00    +0.000 A 
ATOM      5  C   UNL     1      45.190   1.755   9.170  0.00  0.00    +0.000 A 
ATOM      6  C   UNL     1      46.059   1.699   8.083  0.00  0.00    +0.000 A 
ATOM      7  C   UNL     1      46.387   2.870   7.403  0.00  0.00    +0.000 A 
ATOM     11  C   UNL     1      45.825   4.048   7.877  0.00  0.00    +0.000 A 
ATOM     12  N   UNL     1      44.999   4.130   8.957  0.00  0.00    +0.000 NA
ATOM     19  H   UNL     1      42.911   2.663  10.343  0.00  0.00    +0.000 HD
ENDROOT
BRANCH   7   8
ATOM      8  C   UNL     1      47.298   2.788   6.235  0.00  0.00    +0.000 C 
ATOM      9  N   UNL     1      48.626   2.530   6.439  0.00  0.00    +0.000 N 
ATOM     10  O   UNL     1      46.881   2.951   5.095  0.00  0.00    +0.000 OA
ATOM     20  H   UNL     1      49.076   2.401   7.331  0.00  0.00    +0.000 HD
ATOM     21  H   UNL     1      49.205   2.491   5.612  0.00  0.00    +0.000 HD
ENDBRANCH   7   8
BRANCH   3   2
ATOM      1  C   UNL     1      43.325   5.392  10.567  0.00  0.00    +0.000 C 
ATOM      2  C   UNL     1      43.682   4.204  11.471  0.00  0.00    +0.000 C 
BRANCH   2  13
ATOM     13  C   UNL     1      45.020   4.510  12.147  0.00  0.00    +0.000 A 
ATOM     14  C   UNL     1      45.691   3.503  12.862  0.00  0.00    +0.000 A 
ATOM     15  C   UNL     1      46.873   3.787  13.550  0.00  0.00    +0.000 A 
ATOM     16  C   UNL     1      47.405   5.075  13.531  0.00  0.00    +0.000 A 
ATOM     17  C   UNL     1      46.754   6.083  12.826  0.00  0.00    +0.000 A 
ATOM     18  C   UNL     1      45.567   5.806  12.147  0.00  0.00    +0.000 A 
ENDBRANCH   2  13
ENDBRANCH   3   2
TORSDOF 3
ENDMDL
MODEL 4
REMARK VINA RESULT:    -7.394      1.671      2.544
REMARK INTER + INTRA:          -7.851
REMARK INTER:                  -7.397
REMARK INTRA:                  -0.454
REMARK UNBOUND:                 0.840
REMARK  Name = 
REMARK  4 active torsions:
REMARK  status: ('A' for Active; 'I' for Inactive)
REMARK    1  A    between atoms: C_1  and  C_2
REMARK    2  A    between atoms: C_2  and  N_3
REMARK    3  A    between atoms: C_2  and  C_13
REMARK    4  A    between atoms: C_7  and  C_8
REMARK                            x       y       z     vdW  Elec       q    Type
REMARK                         _______ _______ _______ _____ _____    ______ ____
ROOT
ATOM      3  N   UNL     1      45.324   4.101  12.323  0.00  0.00    +0.000 N 
ATOM      4  C   UNL     1      46.252   4.978  12.886  0.00  0.00    +0.000 A 
ATOM      5  C   UNL     1      46.649   4.728  14.199  0.00  0.00    +0.000 A 
ATOM      6  C   UNL     1      47.582   5.562  14.810  0.00  0.00    +0.000 A 
ATOM      7  C   UNL     1      48.146   6.610  14.085  0.00  0.00    +0.000 A 
ATOM     11  C   UNL     1      47.717   6.768  12.774  0.00  0.00    +0.000 A 
ATOM     12  N   UNL     1      46.782   5.985  12.168  0.00  0.00    +0.000 NA
ATOM     19  H   UNL     1      45.820   3.247  12.075  0.00  0.00    +0.000 HD
ENDROOT
BRANCH   7   8
ATOM      8  C   UNL     1      49.154   7.475  14.746  0.00  0.00    +0.000 C 
ATOM      9  N   UNL     1      50.471   7.355  14.395  0.00  0.00    +0.000 N 
ATOM     10  O   UNL     1      48.827   8.289  15.600  0.00  0.00    +0.000 OA
ATOM     20  H   UNL     1      50.851   6.707  13.724  0.00  0.00    +0.000 HD
ATOM     21  H   UNL     1      51.119   7.961  14.880  0.00  0.00    +0.000 HD
ENDBRANCH   7   8
BRANCH   3   2
ATOM      1  C   UNL     1      43.038   4.206  11.403  0.00  0.00    +0.000 C 
ATOM      2  C   UNL     1      44.513   4.578  11.202  0.00  0.00    +0.000 C 
BRANCH   2  13
ATOM     13  C   UNL     1      44.999   3.905   9.917  0.00  0.00    +0.000 A 
ATOM     14  C   UNL     1      44.949   2.505   9.796  0.00  0.00    +0.000 A 
ATOM     15  C   UNL     1      45.461   1.871   8.662  0.00  0.00    +0.000 A 
ATOM     16  C   UNL     1      46.024   2.621   7.631  0.00  0.00    +0.000 A 
ATOM     17  C   UNL     1      46.079   4.008   7.734  0.00  0.00    +0.000 A 
ATOM     18  C   UNL     1      45.579   4.644   8.870  0.00  0.00    +0.000 A 
ENDBRANCH   2  13
ENDBRANCH   3   2
TORSDOF 3
ENDMDL
MODEL 5
REMARK VINA RESULT:    -7.308      3.298      7.332
REMARK INTER + INTRA:          -7.750
REMARK INTER:                  -7.292
REMARK INTRA:                  -0.459
REMARK UNBOUND:                 0.840
REMARK  Name = 
REMARK  4 active torsions:
REMARK  status: ('A' for Active; 'I' for Inactive)
REMARK    1  A    between atoms: C_1  and  C_2
REMARK    2  A    between atoms: C_2  and  N_3
REMARK    3  A    between atoms: C_2  and  C_13
REMARK    4  A    between atoms: C_7  and  C_8
REMARK                            x       y       z     vdW  Elec       q    Type
REMARK                         _______ _______ _______ _____ _____    ______ ____
ROOT
ATOM      3  N   UNL     1      47.579   5.129  15.526  0.00  0.00    +0.000 N 
ATOM      4  C   UNL     1      46.866   4.815  14.368  0.00  0.00    +0.000 A 
ATOM      5  C   UNL     1      46.513   5.872  13.531  0.00  0.00    +0.000 A 
ATOM      6  C   UNL     1      45.812   5.619  12.355  0.00  0.00    +0.000 A 
ATOM      7  C   UNL     1      45.514   4.304  12.002  0.00  0.00    +0.000 A 
ATOM     11  C   UNL     1      45.931   3.310  12.877  0.00  0.00    +0.000 A 
ATOM     12  N   UNL     1      46.587   3.538  14.048  0.00  0.00    +0.000 NA
ATOM     19  H   UNL     1      48.542   5.315  15.254  0.00  0.00    +0.000 HD
ENDROOT
BRANCH   7   8
ATOM      8  C   UNL     1      44.786   4.052  10.734  0.00  0.00    +0.000 C 
ATOM      9  N   UNL     1      43.968   5.024  10.228  0.00  0.00    +0.000 N 
ATOM     10  O   UNL     1      44.903   2.988  10.138  0.00  0.00    +0.000 OA
ATOM     20  H   UNL     1      43.783   5.922  10.646  0.00  0.00    +0.000 HD
ATOM     21  H   UNL     1      43.488   4.800   9.367  0.00  0.00    +0.000 HD
ENDBRANCH   7   8
BRANCH   3   2
ATOM      1  C   UNL     1      47.014   4.887  17.915  0.00  0.00    +0.000 C 
ATOM      2  C   UNL     1      47.526   4.190  16.647  0.00  0.00    +0.000 C 
BRANCH   2  13
ATOM     13  C   UNL     1      48.939   3.675  16.929  0.00  0.00    +0.000 A 
ATOM     14  C   UNL     1      49.239   2.314  16.747  0.00  0.00    +0.000 A 
ATOM     15  C   UNL     1      50.502   1.814  17.075  0.00  0.00    +0.000 A 
ATOM     16  C   UNL     1      51.483   2.663  17.583  0.00  0.00    +0.000 A 
ATOM     17  C   UNL     1      51.203   4.014  17.768  0.00  0.00    +0.000 A 
ATOM     18  C   UNL     1      49.939   4.514  17.452  0.00  0.00    +0.000 A 
ENDBRANCH   2  13
ENDBRANCH   3   2
TORSDOF 3
ENDMDL
MODEL 6
REMARK VINA RESULT:    -7.226      1.586      2.271
REMARK INTER + INTRA:          -7.654
REMARK INTER:                  -7.212
REMARK INTRA:                  -0.442
REMARK UNBOUND:                 0.840
REMARK  Name = 
REMARK  4 active torsions:
REMARK  status: ('A' for Active; 'I' for Inactive)
REMARK    1  A    between atoms: C_1  and  C_2
REMARK    2  A    between atoms: C_2  and  N_3
REMARK    3  A    between atoms: C_2  and  C_13
REMARK    4  A    between atoms: C_7  and  C_8
REMARK                            x       y       z     vdW  Elec       q    Type
REMARK                         _______ _______ _______ _____ _____    ______ ____
ROOT
ATOM      3  N   UNL     1      45.283   3.909  12.534  0.00  0.00    +0.000 N 
ATOM      4  C   UNL     1      46.201   4.709  13.215  0.00  0.00    +0.000 A 
ATOM      5  C   UNL     1      46.531   4.332  14.516  0.00  0.00    +0.000 A 
ATOM      6  C   UNL     1      47.452   5.084  15.242  0.00  0.00    +0.000 A 
ATOM      7  C   UNL     1      48.070   6.179  14.641  0.00  0.00    +0.000 A 
ATOM     11  C   UNL     1      47.706   6.465  13.332  0.00  0.00    +0.000 A 
ATOM     12  N   UNL     1      46.785   5.763  12.616  0.00  0.00    +0.000 NA
ATOM     19  H   UNL     1      45.772   3.069  12.231  0.00  0.00    +0.000 HD
ENDROOT
BRANCH   7   8
ATOM      8  C   UNL     1      49.064   6.956  15.422  0.00  0.00    +0.000 C 
ATOM      9  N   UNL     1      48.627   7.820  16.389  0.00  0.00    +0.000 N 
ATOM     10  O   UNL     1      50.265   6.839  15.213  0.00  0.00    +0.000 OA
ATOM     20  H   UNL     1      47.667   8.008  16.628  0.00  0.00    +0.000 HD
ATOM     21  H   UNL     1      49.343   8.331  16.888  0.00  0.00    +0.000 HD
ENDBRANCH   7   8
BRANCH   3   2
ATOM      1  C   UNL     1      43.046   4.150  11.523  0.00  0.00    +0.000 C 
ATOM      2  C   UNL     1      44.535   4.505  11.425  0.00  0.00    +0.000 C 
BRANCH   2  13
ATOM     13  C   UNL     1      45.070   3.941  10.107  0.00  0.00    +0.000 A 
ATOM     14  C   UNL     1      45.566   4.811   9.122  0.00  0.00    +0.000 A 
ATOM     15  C   UNL     1      45.984   4.319   7.883  0.00  0.00    +0.000 A 
ATOM     16  C   UNL     1      45.918   2.953   7.612  0.00  0.00    +0.000 A 
ATOM     17  C   UNL     1      45.431   2.077   8.578  0.00  0.00    +0.000 A 
ATOM     18  C   UNL     1      45.002   2.567   9.812  0.00  0.00    +0.000 A 
ENDBRANCH   2  13
ENDBRANCH   3   2
TORSDOF 3
ENDMDL
MODEL 7
REMARK VINA RESULT:    -7.121      2.174      2.967
REMARK INTER + INTRA:          -7.530
REMARK INTER:                  -7.082
REMARK INTRA:                  -0.448
REMARK UNBOUND:                 0.840
REMARK  Name = 
REMARK  4 active torsions:
REMARK  status: ('A' for Active; 'I' for Inactive)
REMARK    1  A    between atoms: C_1  and  C_2
REMARK    2  A    between atoms: C_2  and  N_3
REMARK    3  A    between atoms: C_2  and  C_13
REMARK    4  A    between atoms: C_7  and  C_8
REMARK                            x       y       z     vdW  Elec       q    Type
REMARK                         _______ _______ _______ _____ _____    ______ ____
ROOT
ATOM      3  N   UNL     1      45.467   5.074  12.161  0.00  0.00    +0.000 N 
ATOM      4  C   UNL     1      46.556   5.901  12.445  0.00  0.00    +0.000 A 
ATOM      5  C   UNL     1      47.025   5.907  13.757  0.00  0.00    +0.000 A 
ATOM      6  C   UNL     1      48.116   6.703  14.097  0.00  0.00    +0.000 A 
ATOM      7  C   UNL     1      48.758   7.448  13.110  0.00  0.00    +0.000 A 
ATOM     11  C   UNL     1      48.243   7.359  11.824  0.00  0.00    +0.000 A 
ATOM     12  N   UNL     1      47.158   6.614  11.476  0.00  0.00    +0.000 NA
ATOM     19  H   UNL     1      45.814   4.118  12.106  0.00  0.00    +0.000 HD
ENDROOT
BRANCH   7   8
ATOM      8  C   UNL     1      49.932   8.273  13.487  0.00  0.00    +0.000 C 
ATOM      9  N   UNL     1      51.006   7.674  14.087  0.00  0.00    +0.000 N 
ATOM     10  O   UNL     1      49.952   9.479  13.274  0.00  0.00    +0.000 OA
ATOM     20  H   UNL     1      51.085   6.699  14.327  0.00  0.00    +0.000 HD
ATOM     21  H   UNL     1      51.776   8.281  14.332  0.00  0.00    +0.000 HD
ENDBRANCH   7   8
BRANCH   3   2
ATOM      1  C   UNL     1      43.148   5.305  11.354  0.00  0.00    +0.000 C 
ATOM      2  C   UNL     1      44.638   5.396  10.999  0.00  0.00    +0.000 C 
BRANCH   2  13
ATOM     13  C   UNL     1      44.922   4.381   9.891  0.00  0.00    +0.000 A 
ATOM     14  C   UNL     1      44.514   3.045  10.042  0.00  0.00    +0.000 A 
ATOM     15  C   UNL     1      44.835   2.089   9.075  0.00  0.00    +0.000 A 
ATOM     16  C   UNL     1      45.561   2.452   7.942  0.00  0.00    +0.000 A 
ATOM     17  C   UNL     1      45.972   3.772   7.776  0.00  0.00    +0.000 A 
ATOM     18  C   UNL     1      45.663   4.726   8.745  0.00  0.00    +0.000 A 
ENDBRANCH   2  13
ENDBRANCH   3   2
TORSDOF 3
ENDMDL
MODEL 8
REMARK VINA RESULT:    -6.494      3.320      6.756
REMARK INTER + INTRA:          -6.794
REMARK INTER:                  -6.562
REMARK INTRA:                  -0.232
REMARK UNBOUND:                 0.840
REMARK  Name = 
REMARK  4 active torsions:
REMARK  status: ('A' for Active; 'I' for Inactive)
REMARK    1  A    between atoms: C_1  and  C_2
REMARK    2  A    between atoms: C_2  and  N_3
REMARK    3  A    between atoms: C_2  and  C_13
REMARK    4  A    between atoms: C_7  and  C_8
REMARK                            x       y       z     vdW  Elec       q    Type
REMARK                         _______ _______ _______ _____ _____    ______ ____
ROOT
ATOM      3  N   UNL     1      46.087   6.648  13.255  0.00  0.00    +0.000 N 
ATOM      4  C   UNL     1      45.752   5.770  12.223  0.00  0.00    +0.000 A 
ATOM      5  C   UNL     1      45.060   4.612  12.573  0.00  0.00    +0.000 A 
ATOM      6  C   UNL     1      44.687   3.705  11.585  0.00  0.00    +0.000 A 
ATOM      7  C   UNL     1      44.967   3.988  10.250  0.00  0.00    +0.000 A 
ATOM     11  C   UNL     1      45.632   5.178   9.988  0.00  0.00    +0.000 A 
ATOM     12  N   UNL     1      46.035   6.063  10.941  0.00  0.00    +0.000 NA
ATOM     19  H   UNL     1      45.244   7.157  13.512  0.00  0.00    +0.000 HD
ENDROOT
BRANCH   7   8
ATOM      8  C   UNL     1      44.543   3.020   9.209  0.00  0.00    +0.000 C 
ATOM      9  N   UNL     1      44.200   3.480   7.967  0.00  0.00    +0.000 N 
ATOM     10  O   UNL     1      44.492   1.819   9.445  0.00  0.00    +0.000 OA
ATOM     20  H   UNL     1      44.186   4.443   7.674  0.00  0.00    +0.000 HD
ATOM     21  H   UNL     1      43.911   2.781   7.296  0.00  0.00    +0.000 HD
ENDBRANCH   7   8
BRANCH   3   2
ATOM      1  C   UNL     1      47.953   7.822  14.361  0.00  0.00    +0.000 C 
ATOM      2  C   UNL     1      47.207   7.567  13.045  0.00  0.00    +0.000 C 
BRANCH   2  13
ATOM     13  C   UNL     1      46.663   8.906  12.544  0.00  0.00    +0.000 A 
ATOM     14  C   UNL     1      45.277   9.141  12.537  0.00  0.00    +0.000 A 
ATOM     15  C   UNL     1      44.760  10.327  12.009  0.00  0.00    +0.000 A 
ATOM     16  C   UNL     1      45.615  11.296  11.488  0.00  0.00    +0.000 A 
ATOM     17  C   UNL     1      46.990  11.080  11.489  0.00  0.00    +0.000 A 
ATOM     18  C   UNL     1      47.509   9.892  12.005  0.00  0.00    +0.000 A 
ENDBRANCH   2  13
ENDBRANCH   3   2
TORSDOF 3
ENDMDL
