MODEL 1
REMARK VINA RESULT:    -7.559      0.000      0.000
REMARK INTER + INTRA:          -8.840
REMARK INTER:                  -8.885
REMARK INTRA:                   0.045
REMARK UNBOUND:                 0.045
REMARK  Name = 
REMARK  5 active torsions:
REMARK  status: ('A' for Active; 'I' for Inactive)
REMARK    1  A    between atoms: C_1  and  C_2
REMARK    2  A    between atoms: C_2  and  C_3
REMARK    3  A    between atoms: C_2  and  N_4
REMARK    4  A    between atoms: C_2  and  C_14
REMARK    5  A    between atoms: C_8  and  C_9
REMARK                            x       y       z     vdW  Elec       q    Type
REMARK                         _______ _______ _______ _____ _____    ______ ____
ROOT
ATOM      4  N   UNL     1      43.677   3.750  10.993  0.00  0.00    +0.000 N 
ATOM      5  C   UNL     1      44.470   3.453   9.893  0.00  0.00    +0.000 A 
ATOM      6  C   UNL     1      44.801   2.117   9.671  0.00  0.00    +0.000 A 
ATOM      7  C   UNL     1      45.682   1.786   8.640  0.00  0.00    +0.000 A 
ATOM      8  C   UNL     1      46.187   2.793   7.818  0.00  0.00    +0.000 A 
ATOM     12  C   UNL     1      45.750   4.082   8.070  0.00  0.00    +0.000 A 
ATOM     13  N   UNL     1      44.906   4.425   9.074  0.00  0.00    +0.000 NA
ATOM     20  H   UNL     1      42.725   3.445  10.813  0.00  0.00    +0.000 HD
ENDROOT
BRANCH   8   9
ATOM      9  C   UNL     1      47.159   2.446   6.753  0.00  0.00    +0.000 C 
ATOM     10  N   UNL     1      47.204   3.210   5.618  0.00  0.00    +0.000 N 
ATOM     11  O   UNL     1      47.923   1.497   6.881  0.00  0.00    +0.000 OA
ATOM     21  H   UNL     1      46.641   4.020   5.423  0.00  0.00    +0.000 HD
ATOM     22  H   UNL     1      47.898   2.945   4.928  0.00  0.00    +0.000 HD
ENDBRANCH   8   9
BRANCH   4   2
ATOM      1  C   UNL     1      43.351   6.211  10.695  0.00  0.00    +0.000 C 
ATOM      2  C   UNL     1      43.720   5.067  11.668  0.00  0.00    +0.000 C 
ATOM      3  C   UNL     1      42.774   5.048  12.886  0.00  0.00    +0.000 C 
BRANCH   2  14
ATOM     14  C   UNL     1      45.168   5.316  12.174  0.00  0.00    +0.000 A 
ATOM     15  C   UNL     1      45.927   6.390  11.663  0.00  0.00    +0.000 A 
ATOM     16  C   UNL     1      47.231   6.639  12.102  0.00  0.00    +0.000 A 
ATOM     17  C   UNL     1      47.805   5.829  13.074  0.00  0.00    +0.000 A 
ATOM     18  C   UNL     1      47.083   4.759  13.594  0.00  0.00    +0.000 A 
ATOM     19  C   UNL     1      45.783   4.501  13.144  0.00  0.00    +0.000 A 
ENDBRANCH   2  14
ENDBRANCH   4   2
TORSDOF 3
ENDMDL
MODEL 2
REMARK VINA RESULT:    -6.371      3.249      6.037
REMARK INTER + INTRA:          -7.443
REMARK INTER:                  -7.809
REMARK INTRA:                   0.365
REMARK UNBOUND:                 0.045
REMARK  Name = 
REMARK  5 active torsions:
REMARK  status: ('A' for Active; 'I' for Inactive)
REMARK    1  A    between atoms: C_1  and  C_2
REMARK    2  A    between atoms: C_2  and  C_3
REMARK    3  A    between atoms: C_2  and  N_4
REMARK    4  A    between atoms: C_2  and  C_14
REMARK    5  A    between atoms: C_8  and  C_9
REMARK                            x       y       z     vdW  Elec       q    Type
REMARK                         _______ _______ _______ _____ _____    ______ ____
ROOT
ATOM      4  N   UNL     1      45.447   3.453  12.504  0.00  0.00    +0.000 N 
ATOM      5  C   UNL     1      46.223   4.520  12.936  0.00  0.00    +0.000 A 
ATOM      6  C   UNL     1      46.796   4.437  14.205  0.00  0.00    +0.000 A 
ATOM      7  C   UNL     1      47.493   5.530  14.721  0.00  0.00    +0.000 A 
ATOM      8  C   UNL     1      47.646   6.677  13.943  0.00  0.00    +0.000 A 
ATOM     12  C   UNL     1      47.103   6.645  12.670  0.00  0.00    +0.000 A 
ATOM     13  N   UNL     1      46.410   5.599  12.158  0.00  0.00    +0.000 NA
ATOM     20  H   UNL     1      46.051   2.667  12.284  0.00  0.00    +0.000 HD
ENDROOT
BRANCH   8   9
ATOM      9  C   UNL     1      48.347   7.854  14.510  0.00  0.00    +0.000 C 
ATOM     10  N   UNL     1      47.609   8.906  14.980  0.00  0.00    +0.000 N 
ATOM     11  O   UNL     1      49.570   7.891  14.571  0.00  0.00    +0.000 OA
ATOM     21  H   UNL     1      46.605   8.968  14.999  0.00  0.00    +0.000 HD
ATOM     22  H   UNL     1      48.133   9.679  15.375  0.00  0.00    +0.000 HD
ENDBRANCH   8   9
BRANCH   4   2
ATOM      1  C   UNL     1      43.273   2.530  11.685  0.00  0.00    +0.000 C 
ATOM      2  C   UNL     1      44.362   3.615  11.511  0.00  0.00    +0.000 C 
ATOM      3  C   UNL     1      43.760   5.029  11.637  0.00  0.00    +0.000 C 
BRANCH   2  14
ATOM     14  C   UNL     1      44.967   3.463  10.087  0.00  0.00    +0.000 A 
ATOM     15  C   UNL     1      45.190   2.182   9.540  0.00  0.00    +0.000 A 
ATOM     16  C   UNL     1      45.730   2.015   8.262  0.00  0.00    +0.000 A 
ATOM     17  C   UNL     1      46.050   3.127   7.491  0.00  0.00    +0.000 A 
ATOM     18  C   UNL     1      45.845   4.403   8.004  0.00  0.00    +0.000 A 
ATOM     19  C   UNL     1      45.318   4.570   9.290  0.00  0.00    +0.000 A 
ENDBRANCH   2  14
ENDBRANCH   4   2
TORSDOF 3
ENDMDL
MODEL 3
REMARK VINA RESULT:    -6.362      3.246      5.946
REMARK INTER + INTRA:          -7.433
REMARK INTER:                  -7.817
REMARK INTRA:                   0.384
REMARK UNBOUND:                 0.045
REMARK  Name = 
REMARK  5 active torsions:
REMARK  status: ('A' for Active; 'I' for Inactive)
REMARK    1  A    between atoms: C_1  and  C_2
REMARK    2  A    between atoms: C_2  and  C_3
REMARK    3  A    between atoms: C_2  and  N_4
REMARK    4  A    between atoms: C_2  and  C_14
REMARK    5  A    between atoms: C_8  and  C_9
REMARK                            x       y       z     vdW  Elec       q    Type
REMARK                         _______ _______ _______ _____ _____    ______ ____
ROOT
ATOM      4  N   UNL     1      45.437   3.442  12.500  0.00  0.00    +0.000 N 
ATOM      5  C   UNL     1      46.211   4.510  12.935  0.00  0.00    +0.000 A 
ATOM      6  C   UNL     1      46.783   4.425  14.203  0.00  0.00    +0.000 A 
ATOM      7  C   UNL     1      47.478   5.519  14.721  0.00  0.00    +0.000 A 
ATOM      8  C   UNL     1      47.629   6.668  13.945  0.00  0.00    +0.000 A 
ATOM     12  C   UNL     1      47.086   6.636  12.672  0.00  0.00    +0.000 A 
ATOM     13  N   UNL     1      46.395   5.589  12.157  0.00  0.00    +0.000 NA
ATOM     20  H   UNL     1      46.042   2.657  12.280  0.00  0.00    +0.000 HD
ENDROOT
BRANCH   8   9
ATOM      9  C   UNL     1      48.327   7.846  14.514  0.00  0.00    +0.000 C 
ATOM     10  N   UNL     1      47.587   8.889  14.998  0.00  0.00    +0.000 N 
ATOM     11  O   UNL     1      49.551   7.890  14.563  0.00  0.00    +0.000 OA
ATOM     21  H   UNL     1      46.583   8.944  15.027  0.00  0.00    +0.000 HD
ATOM     22  H   UNL     1      48.109   9.663  15.394  0.00  0.00    +0.000 HD
ENDBRANCH   8   9
BRANCH   4   2
ATOM      1  C   UNL     1      43.258   2.524  11.688  0.00  0.00    +0.000 C 
ATOM      2  C   UNL     1      44.351   3.603  11.507  0.00  0.00    +0.000 C 
ATOM      3  C   UNL     1      43.756   5.020  11.626  0.00  0.00    +0.000 C 
BRANCH   2  14
ATOM     14  C   UNL     1      44.955   3.440  10.084  0.00  0.00    +0.000 A 
ATOM     15  C   UNL     1      45.281   4.576   9.314  0.00  0.00    +0.000 A 
ATOM     16  C   UNL     1      45.828   4.460   8.033  0.00  0.00    +0.000 A 
ATOM     17  C   UNL     1      46.075   3.203   7.493  0.00  0.00    +0.000 A 
ATOM     18  C   UNL     1      45.760   2.064   8.226  0.00  0.00    +0.000 A 
ATOM     19  C   UNL     1      45.199   2.180   9.503  0.00  0.00    +0.000 A 
ENDBRANCH   2  14
ENDBRANCH   4   2
TORSDOF 3
ENDMDL
MODEL 4
REMARK VINA RESULT:    -6.265      3.056      6.110
REMARK INTER + INTRA:          -7.319
REMARK INTER:                  -7.768
REMARK INTRA:                   0.449
REMARK UNBOUND:                 0.045
REMARK  Name = 
REMARK  5 active torsions:
REMARK  status: ('A' for Active; 'I' for Inactive)
REMARK    1  A    between atoms: C_1  and  C_2
REMARK    2  A    between atoms: C_2  and  C_3
REMARK    3  A    between atoms: C_2  and  N_4
REMARK    4  A    between atoms: C_2  and  C_14
REMARK    5  A    between atoms: C_8  and  C_9
REMARK                            x       y       z     vdW  Elec       q    Type
REMARK                         _______ _______ _______ _____ _____    ______ ____
ROOT
ATOM      4  N   UNL     1      45.515   3.351  10.957  0.00  0.00    +0.000 N 
ATOM      5  C   UNL     1      45.679   4.644  11.434  0.00  0.00    +0.000 A 
ATOM      6  C   UNL     1      45.964   4.806  12.789  0.00  0.00    +0.000 A 
ATOM      7  C   UNL     1      46.030   6.090  13.332  0.00  0.00    +0.000 A 
ATOM      8  C   UNL     1      45.853   7.198  12.502  0.00  0.00    +0.000 A 
ATOM     12  C   UNL     1      45.643   6.942  11.158  0.00  0.00    +0.000 A 
ATOM     13  N   UNL     1      45.561   5.702  10.616  0.00  0.00    +0.000 NA
ATOM     20  H   UNL     1      46.419   2.890  10.920  0.00  0.00    +0.000 HD
ENDROOT
BRANCH   8   9
ATOM      9  C   UNL     1      45.878   8.559  13.088  0.00  0.00    +0.000 C 
ATOM     10  N   UNL     1      46.745   8.828  14.111  0.00  0.00    +0.000 N 
ATOM     11  O   UNL     1      45.142   9.443  12.662  0.00  0.00    +0.000 OA
ATOM     21  H   UNL     1      47.404   8.186  14.518  0.00  0.00    +0.000 HD
ATOM     22  H   UNL     1      46.738   9.778  14.466  0.00  0.00    +0.000 HD
ENDBRANCH   8   9
BRANCH   4   2
ATOM      1  C   UNL     1      43.819   1.784   9.998  0.00  0.00    +0.000 C 
ATOM      2  C   UNL     1      44.686   3.044   9.769  0.00  0.00    +0.000 C 
ATOM      3  C   UNL     1      43.809   4.266   9.429  0.00  0.00    +0.000 C 
BRANCH   2  14
ATOM     14  C   UNL     1      45.629   2.766   8.566  0.00  0.00    +0.000 A 
ATOM     15  C   UNL     1      46.146   1.471   8.350  0.00  0.00    +0.000 A 
ATOM     16  C   UNL     1      46.994   1.191   7.275  0.00  0.00    +0.000 A 
ATOM     17  C   UNL     1      47.337   2.197   6.378  0.00  0.00    +0.000 A 
ATOM     18  C   UNL     1      46.847   3.484   6.568  0.00  0.00    +0.000 A 
ATOM     19  C   UNL     1      46.010   3.768   7.652  0.00  0.00    +0.000 A 
ENDBRANCH   2  14
ENDBRANCH   4   2
TORSDOF 3
ENDMDL
MODEL 5
REMARK VINA RESULT:    -6.246      3.408      6.110
REMARK INTER + INTRA:          -7.296
REMARK INTER:                  -7.872
REMARK INTRA:                   0.576
REMARK UNBOUND:                 0.045
REMARK  Name = 
REMARK  5 active torsions:
REMARK  status: ('A' for Active; 'I' for Inactive)
REMARK    1  A    between atoms: C_1  and  C_2
REMARK    2  A    between atoms: C_2  and  C_3
REMARK    3  A    between atoms: C_2  and  N_4
REMARK    4  A    between atoms: C_2  and  C_14
REMARK    5  A    between atoms: C_8  and  C_9
REMARK                            x       y       z     vdW  Elec       q    Type
REMARK                         _______ _______ _______ _____ _____    ______ ____
ROOT
ATOM      4  N   UNL     1      45.261   6.207  11.228  0.00  0.00    +0.000 N 
ATOM      5  C   UNL     1      46.320   6.452  12.093  0.00  0.00    +0.000 A 
ATOM      6  C   UNL     1      47.260   7.410  11.716  0.00  0.00    +0.000 A 
ATOM      7  C   UNL     1      48.395   7.610  12.502  0.00  0.00    +0.000 A 
ATOM      8  C   UNL     1      48.554   6.879  13.679  0.00  0.00    +0.000 A 
ATOM     12  C   UNL     1      47.537   5.999  14.009  0.00  0.00    +0.000 A 
ATOM     13  N   UNL     1      46.435   5.780  13.250  0.00  0.00    +0.000 NA
ATOM     20  H   UNL     1      44.616   6.991  11.259  0.00  0.00    +0.000 HD
ENDROOT
BRANCH   8   9
ATOM      9  C   UNL     1      49.782   7.059  14.489  0.00  0.00    +0.000 C 
ATOM     10  N   UNL     1      50.807   7.814  13.987  0.00  0.00    +0.000 N 
ATOM     11  O   UNL     1      49.886   6.550  15.600  0.00  0.00    +0.000 OA
ATOM     21  H   UNL     1      50.816   8.292  13.102  0.00  0.00    +0.000 HD
ATOM     22  H   UNL     1      51.617   7.924  14.586  0.00  0.00    +0.000 HD
ENDBRANCH   8   9
BRANCH   4   2
ATOM      1  C   UNL     1      44.841   4.072  12.458  0.00  0.00    +0.000 C 
ATOM      2  C   UNL     1      44.555   4.907  11.188  0.00  0.00    +0.000 C 
ATOM      3  C   UNL     1      43.043   5.151  11.014  0.00  0.00    +0.000 C 
BRANCH   2  14
ATOM     14  C   UNL     1      45.069   4.104   9.961  0.00  0.00    +0.000 A 
ATOM     15  C   UNL     1      44.941   2.699   9.923  0.00  0.00    +0.000 A 
ATOM     16  C   UNL     1      45.390   1.951   8.831  0.00  0.00    +0.000 A 
ATOM     17  C   UNL     1      45.969   2.590   7.741  0.00  0.00    +0.000 A 
ATOM     18  C   UNL     1      46.113   3.974   7.750  0.00  0.00    +0.000 A 
ATOM     19  C   UNL     1      45.676   4.721   8.850  0.00  0.00    +0.000 A 
ENDBRANCH   2  14
ENDBRANCH   4   2
TORSDOF 3
ENDMDL
MODEL 6
REMARK VINA RESULT:    -6.241      3.524      6.106
REMARK INTER + INTRA:          -7.290
REMARK INTER:                  -7.573
REMARK INTRA:                   0.282
REMARK UNBOUND:                 0.045
REMARK  Name = 
REMARK  5 active torsions:
REMARK  status: ('A' for Active; 'I' for Inactive)
REMARK    1  A    between atoms: C_1  and  C_2
REMARK    2  A    between atoms: C_2  and  C_3
REMARK    3  A    between atoms: C_2  and  N_4
REMARK    4  A    between atoms: C_2  and  C_14
REMARK    5  A    between atoms: C_8  and  C_9
REMARK                            x       y       z     vdW  Elec       q    Type
REMARK                         _______ _______ _______ _____ _____    ______ ____
ROOT
ATOM      4  N   UNL     1      45.265   4.126  12.594  0.00  0.00    +0.000 N 
ATOM      5  C   UNL     1      46.318   4.873  13.105  0.00  0.00    +0.000 A 
ATOM      6  C   UNL     1      46.675   4.667  14.437  0.00  0.00    +0.000 A 
ATOM      7  C   UNL     1      47.655   5.472  15.021  0.00  0.00    +0.000 A 
ATOM      8  C   UNL     1      48.296   6.443  14.252  0.00  0.00    +0.000 A 
ATOM     12  C   UNL     1      47.924   6.530  12.921  0.00  0.00    +0.000 A 
ATOM     13  N   UNL     1      46.965   5.768  12.340  0.00  0.00    +0.000 NA
ATOM     20  H   UNL     1      45.568   3.165  12.464  0.00  0.00    +0.000 HD
ENDROOT
BRANCH   8   9
ATOM      9  C   UNL     1      49.303   7.327  14.885  0.00  0.00    +0.000 C 
ATOM     10  N   UNL     1      50.547   7.429  14.323  0.00  0.00    +0.000 N 
ATOM     11  O   UNL     1      49.033   7.971  15.893  0.00  0.00    +0.000 OA
ATOM     21  H   UNL     1      50.863   6.965  13.489  0.00  0.00    +0.000 HD
ATOM     22  H   UNL     1      51.194   8.060  14.782  0.00  0.00    +0.000 HD
ENDBRANCH   8   9
BRANCH   4   2
ATOM      1  C   UNL     1      42.961   4.142  11.625  0.00  0.00    +0.000 C 
ATOM      2  C   UNL     1      44.429   4.602  11.469  0.00  0.00    +0.000 C 
ATOM      3  C   UNL     1      44.521   6.139  11.379  0.00  0.00    +0.000 C 
BRANCH   2  14
ATOM     14  C   UNL     1      44.984   3.998  10.149  0.00  0.00    +0.000 A 
ATOM     15  C   UNL     1      44.936   2.605   9.927  0.00  0.00    +0.000 A 
ATOM     16  C   UNL     1      45.424   2.034   8.749  0.00  0.00    +0.000 A 
ATOM     17  C   UNL     1      45.963   2.842   7.755  0.00  0.00    +0.000 A 
ATOM     18  C   UNL     1      46.028   4.219   7.946  0.00  0.00    +0.000 A 
ATOM     19  C   UNL     1      45.552   4.789   9.132  0.00  0.00    +0.000 A 
ENDBRANCH   2  14
ENDBRANCH   4   2
TORSDOF 3
ENDMDL
MODEL 7
REMARK VINA RESULT:    -5.881      3.215      5.017
REMARK INTER + INTRA:          -6.867
REMARK INTER:                  -6.958
REMARK INTRA:                   0.091
REMARK UNBOUND:                 0.045
REMARK  Name = 
REMARK  5 active torsions:
REMARK  status: ('A' for Active; 'I' for Inactive)
REMARK    1  A    between atoms: C_1  and  C_2
REMARK    2  A    between atoms: C_2  and  C_3
REMARK    3  A    between atoms: C_2  and  N_4
REMARK    4  A    between atoms: C_2  and  C_14
REMARK    5  A    between atoms: C_8  and  C_9
REMARK                            x       y       z     vdW  Elec       q    Type
REMARK                         _______ _______ _______ _____ _____    ______ ____
ROOT
ATOM      4  N   UNL     1      47.175   6.132  14.134  0.00  0.00    +0.000 N 
ATOM      5  C   UNL     1      46.395   5.593  13.119  0.00  0.00    +0.000 A 
ATOM      6  C   UNL     1      45.905   4.300  13.291  0.00  0.00    +0.000 A 
ATOM      7  C   UNL     1      45.209   3.681  12.252  0.00  0.00    +0.000 A 
ATOM      8  C   UNL     1      44.974   4.382  11.069  0.00  0.00    +0.000 A 
ATOM     12  C   UNL     1      45.437   5.685  11.013  0.00  0.00    +0.000 A 
ATOM     13  N   UNL     1      46.129   6.297  12.006  0.00  0.00    +0.000 NA
ATOM     20  H   UNL     1      46.582   6.359  14.927  0.00  0.00    +0.000 HD
ENDROOT
BRANCH   8   9
ATOM      9  C   UNL     1      44.274   3.708   9.949  0.00  0.00    +0.000 C 
ATOM     10  N   UNL     1      44.131   4.369   8.760  0.00  0.00    +0.000 N 
ATOM     11  O   UNL     1      43.834   2.570  10.073  0.00  0.00    +0.000 OA
ATOM     21  H   UNL     1      44.472   5.290   8.546  0.00  0.00    +0.000 HD
ATOM     22  H   UNL     1      43.662   3.859   8.018  0.00  0.00    +0.000 HD
ENDBRANCH   8   9
BRANCH   4   2
ATOM      1  C   UNL     1      48.852   6.998  12.495  0.00  0.00    +0.000 C 
ATOM      2  C   UNL     1      48.191   7.178  13.882  0.00  0.00    +0.000 C 
ATOM      3  C   UNL     1      47.537   8.568  14.008  0.00  0.00    +0.000 C 
BRANCH   2  14
ATOM     14  C   UNL     1      49.303   7.057  14.962  0.00  0.00    +0.000 A 
ATOM     15  C   UNL     1      49.073   6.320  16.142  0.00  0.00    +0.000 A 
ATOM     16  C   UNL     1      50.054   6.192  17.129  0.00  0.00    +0.000 A 
ATOM     17  C   UNL     1      51.298   6.788  16.955  0.00  0.00    +0.000 A 
ATOM     18  C   UNL     1      51.553   7.526  15.803  0.00  0.00    +0.000 A 
ATOM     19  C   UNL     1      50.565   7.666  14.822  0.00  0.00    +0.000 A 
ENDBRANCH   2  14
ENDBRANCH   4   2
TORSDOF 3
ENDMDL
MODEL 8
REMARK VINA RESULT:    -5.766      4.418      7.186
REMARK INTER + INTRA:          -6.732
REMARK INTER:                  -7.151
REMARK INTRA:                   0.419
REMARK UNBOUND:                 0.045
REMARK  Name = 
REMARK  5 active torsions:
REMARK  status: ('A' for Active; 'I' for Inactive)
REMARK    1  A    between atoms: C_1  and  C_2
REMARK    2  A    between atoms: C_2  and  C_3
REMARK    3  A    between atoms: C_2  and  N_4
REMARK    4  A    between atoms: C_2  and  C_14
REMARK    5  A    between atoms: C_8  and  C_9
REMARK                            x       y       z     vdW  Elec       q    Type
REMARK                         _______ _______ _______ _____ _____    ______ ____
ROOT
ATOM      4  N   UNL     1      46.321   4.372  13.267  0.00  0.00    +0.000 N 
ATOM      5  C   UNL     1      47.111   4.785  14.331  0.00  0.00    +0.000 A 
ATOM      6  C   UNL     1      47.148   3.977  15.466  0.00  0.00    +0.000 A 
ATOM      7  C   UNL     1      47.842   4.407  16.598  0.00  0.00    +0.000 A 
ATOM      8  C   UNL     1      48.528   5.621  16.564  0.00  0.00    +0.000 A 
ATOM     12  C   UNL     1      48.492   6.324  15.371  0.00  0.00    +0.000 A 
ATOM     13  N   UNL     1      47.811   5.930  14.267  0.00  0.00    +0.000 NA
ATOM     20  H   UNL     1      46.764   3.582  12.807  0.00  0.00    +0.000 HD
ENDROOT
BRANCH   8   9
ATOM      9  C   UNL     1      49.227   6.099  17.781  0.00  0.00    +0.000 C 
ATOM     10  N   UNL     1      49.805   5.184  18.618  0.00  0.00    +0.000 N 
ATOM     11  O   UNL     1      49.300   7.295  18.038  0.00  0.00    +0.000 OA
ATOM     21  H   UNL     1      49.823   4.187  18.490  0.00  0.00    +0.000 HD
ATOM     22  H   UNL     1      50.288   5.561  19.427  0.00  0.00    +0.000 HD
ENDBRANCH   8   9
BRANCH   4   2
ATOM      1  C   UNL     1      44.463   5.994  12.858  0.00  0.00    +0.000 C 
ATOM      2  C   UNL     1      45.739   5.326  12.295  0.00  0.00    +0.000 C 
ATOM      3  C   UNL     1      46.798   6.381  11.919  0.00  0.00    +0.000 C 
BRANCH   2  14
ATOM     14  C   UNL     1      45.345   4.544  11.011  0.00  0.00    +0.000 A 
ATOM     15  C   UNL     1      44.764   3.261  11.106  0.00  0.00    +0.000 A 
ATOM     16  C   UNL     1      44.397   2.537   9.969  0.00  0.00    +0.000 A 
ATOM     17  C   UNL     1      44.589   3.083   8.705  0.00  0.00    +0.000 A 
ATOM     18  C   UNL     1      45.162   4.344   8.578  0.00  0.00    +0.000 A 
ATOM     19  C   UNL     1      45.543   5.063   9.716  0.00  0.00    +0.000 A 
ENDBRANCH   2  14
ENDBRANCH   4   2
TORSDOF 3
ENDMDL
MODEL 9
REMARK VINA RESULT:    -5.651      2.906      4.559
REMARK INTER + INTRA:          -6.597
REMARK INTER:                  -6.943
REMARK INTRA:                   0.346
REMARK UNBOUND:                 0.045
REMARK  Name = 
REMARK  5 active torsions:
REMARK  status: ('A' for Active; 'I' for Inactive)
REMARK    1  A    between atoms: C_1  and  C_2
REMARK    2  A    between atoms: C_2  and  C_3
REMARK    3  A    between atoms: C_2  and  N_4
REMARK    4  A    between atoms: C_2  and  C_14
REMARK    5  A    between atoms: C_8  and  C_9
REMARK                            x       y       z     vdW  Elec       q    Type
REMARK                         _______ _______ _______ _____ _____    ______ ____
ROOT
ATOM      4  N   UNL     1      46.175   6.698  13.275  0.00  0.00    +0.000 N 
ATOM      5  C   UNL     1      45.753   5.874  12.240  0.00  0.00    +0.000 A 
ATOM      6  C   UNL     1      45.160   4.658  12.577  0.00  0.00    +0.000 A 
ATOM      7  C   UNL     1      44.820   3.754  11.569  0.00  0.00    +0.000 A 
ATOM      8  C   UNL     1      45.037   4.097  10.235  0.00  0.00    +0.000 A 
ATOM     12  C   UNL     1      45.566   5.353   9.993  0.00  0.00    +0.000 A 
ATOM     13  N   UNL     1      45.917   6.238  10.958  0.00  0.00    +0.000 NA
ATOM     20  H   UNL     1      45.364   7.109  13.728  0.00  0.00    +0.000 HD
ENDROOT
BRANCH   8   9
ATOM      9  C   UNL     1      44.717   3.118   9.169  0.00  0.00    +0.000 C 
ATOM     10  N   UNL     1      44.578   1.797   9.497  0.00  0.00    +0.000 N 
ATOM     11  O   UNL     1      44.568   3.477   8.006  0.00  0.00    +0.000 OA
ATOM     21  H   UNL     1      44.657   1.402  10.419  0.00  0.00    +0.000 HD
ATOM     22  H   UNL     1      44.341   1.170   8.737  0.00  0.00    +0.000 HD
ENDBRANCH   8   9
BRANCH   4   2
ATOM      1  C   UNL     1      47.917   8.032  14.473  0.00  0.00    +0.000 C 
ATOM      2  C   UNL     1      47.276   7.674  13.112  0.00  0.00    +0.000 C 
ATOM      3  C   UNL     1      48.325   7.102  12.138  0.00  0.00    +0.000 C 
BRANCH   2  14
ATOM     14  C   UNL     1      46.693   8.977  12.498  0.00  0.00    +0.000 A 
ATOM     15  C   UNL     1      45.302   9.213  12.512  0.00  0.00    +0.000 A 
ATOM     16  C   UNL     1      44.751  10.377  11.970  0.00  0.00    +0.000 A 
ATOM     17  C   UNL     1      45.578  11.344  11.411  0.00  0.00    +0.000 A 
ATOM     18  C   UNL     1      46.954  11.139  11.379  0.00  0.00    +0.000 A 
ATOM     19  C   UNL     1      47.504   9.967  11.908  0.00  0.00    +0.000 A 
ENDBRANCH   2  14
ENDBRANCH   4   2
TORSDOF 3
ENDMDL
