MODEL 1
REMARK VINA RESULT:    -8.377      0.000      0.000
REMARK INTER + INTRA:         -13.612
REMARK INTER:                 -12.295
REMARK INTRA:                  -1.317
REMARK UNBOUND:                -1.317
REMARK  Name = 
REMARK  9 active torsions:
REMARK  status: ('A' for Active; 'I' for Inactive)
REMARK    1  A    between atoms: C_1  and  O_2
REMARK    2  A    between atoms: O_2  and  C_3
REMARK    3  A    between atoms: C_10  and  C_11
REMARK    4  A    between atoms: N_13  and  C_14
REMARK    5  A    between atoms: C_14  and  C_15
REMARK    6  A    between atoms: C_18  and  C_19
REMARK    7  A    between atoms: C_19  and  N_20
REMARK    8  A    between atoms: N_20  and  C_21
REMARK    9  A    between atoms: C_21  and  C_22
REMARK                            x       y       z     vdW  Elec       q    Type
REMARK                         _______ _______ _______ _____ _____    ______ ____
ROOT
ATOM     14  C   UNL     1      47.956   6.814  13.204  0.00  0.00    +0.000 C 
ENDROOT
BRANCH  14  15
ATOM     15  C   UNL     1      46.769   6.067  12.652  0.00  0.00    +0.000 A 
ATOM     16  C   UNL     1      46.159   5.049  13.396  0.00  0.00    +0.000 A 
ATOM     17  C   UNL     1      45.096   4.314  12.860  0.00  0.00    +0.000 A 
ATOM     18  C   UNL     1      44.621   4.577  11.568  0.00  0.00    +0.000 A 
ATOM     28  C   UNL     1      45.221   5.609  10.831  0.00  0.00    +0.000 A 
ATOM     29  C   UNL     1      46.286   6.341  11.366  0.00  0.00    +0.000 A 
BRANCH  18  19
ATOM     19  C   UNL     1      43.519   3.735  10.962  0.00  0.00    +0.000 C 
BRANCH  19  20
ATOM     20  N   UNL     1      43.804   3.387   9.572  0.00  0.00    +0.000 NA
ATOM     32  H   UNL     1      44.294   4.160   9.125  0.00  0.00    +0.000 HD
BRANCH  20  21
ATOM     21  C   UNL     1      44.637   2.187   9.486  0.00  0.00    +0.000 C 
BRANCH  21  22
ATOM     22  C   UNL     1      45.665   2.312   8.383  0.00  0.00    +0.000 A 
ATOM     23  C   UNL     1      46.453   1.218   8.005  0.00  0.00    +0.000 A 
ATOM     24  C   UNL     1      47.388   1.337   6.971  0.00  0.00    +0.000 A 
ATOM     25  C   UNL     1      47.539   2.553   6.304  0.00  0.00    +0.000 A 
ATOM     26  C   UNL     1      46.759   3.648   6.669  0.00  0.00    +0.000 A 
ATOM     27  C   UNL     1      45.826   3.527   7.701  0.00  0.00    +0.000 A 
ENDBRANCH  21  22
ENDBRANCH  20  21
ENDBRANCH  19  20
ENDBRANCH  18  19
ENDBRANCH  14  15
BRANCH  14  13
ATOM     11  C   UNL     1      49.054   6.917  15.397  0.00  0.00    +0.000 C 
ATOM     12  O   UNL     1      50.162   6.889  14.863  0.00  0.00    +0.000 OA
ATOM     13  N   UNL     1      47.911   6.877  14.647  0.00  0.00    +0.000 N 
ATOM     31  H   UNL     1      47.003   6.878  15.094  0.00  0.00    +0.000 HD
BRANCH  11  10
ATOM      3  C   UNL     1      48.871   4.566  17.922  0.00  0.00    +0.000 A 
ATOM      4  N   UNL     1      48.741   3.885  19.080  0.00  0.00    +0.000 NA
ATOM      5  C   UNL     1      48.593   4.583  20.210  0.00  0.00    +0.000 A 
ATOM      6  N   UNL     1      48.557   5.906  20.333  0.00  0.00    +0.000 NA
ATOM      7  C   UNL     1      48.679   6.546  19.158  0.00  0.00    +0.000 A 
ATOM      8  S   UNL     1      48.656   8.243  19.129  0.00  0.00    +0.000 S 
ATOM      9  C   UNL     1      48.835   8.264  17.442  0.00  0.00    +0.000 A 
ATOM     10  C   UNL     1      48.917   7.001  16.863  0.00  0.00    +0.000 A 
ATOM     30  C   UNL     1      48.834   5.972  17.898  0.00  0.00    +0.000 A 
BRANCH   3   2
ATOM      1  C   UNL     1      47.863   3.292  16.222  0.00  0.00    +0.000 C 
ATOM      2  O   UNL     1      49.061   3.849  16.758  0.00  0.00    +0.000 OA
ENDBRANCH   3   2
ENDBRANCH  11  10
ENDBRANCH  14  13
TORSDOF 8
ENDMDL
MODEL 2
REMARK VINA RESULT:    -8.025      1.388      2.656
REMARK INTER + INTRA:         -13.095
REMARK INTER:                 -11.918
REMARK INTRA:                  -1.177
REMARK UNBOUND:                -1.317
REMARK  Name = 
REMARK  9 active torsions:
REMARK  status: ('A' for Active; 'I' for Inactive)
REMARK    1  A    between atoms: C_1  and  O_2
REMARK    2  A    between atoms: O_2  and  C_3
REMARK    3  A    between atoms: C_10  and  C_11
REMARK    4  A    between atoms: N_13  and  C_14
REMARK    5  A    between atoms: C_14  and  C_15
REMARK    6  A    between atoms: C_18  and  C_19
REMARK    7  A    between atoms: C_19  and  N_20
REMARK    8  A    between atoms: N_20  and  C_21
REMARK    9  A    between atoms: C_21  and  C_22
REMARK                            x       y       z     vdW  Elec       q    Type
REMARK                         _______ _______ _______ _____ _____    ______ ____
ROOT
ATOM     14  C   UNL     1      47.981   6.582  13.666  0.00  0.00    +0.000 C 
ENDROOT
BRANCH  14  15
ATOM     15  C   UNL     1      46.877   5.892  12.907  0.00  0.00    +0.000 A 
ATOM     16  C   UNL     1      46.465   6.371  11.656  0.00  0.00    +0.000 A 
ATOM     17  C   UNL     1      45.400   5.768  10.978  0.00  0.00    +0.000 A 
ATOM     18  C   UNL     1      44.721   4.675  11.535  0.00  0.00    +0.000 A 
ATOM     28  C   UNL     1      45.146   4.187  12.779  0.00  0.00    +0.000 A 
ATOM     29  C   UNL     1      46.209   4.793  13.458  0.00  0.00    +0.000 A 
BRANCH  18  19
ATOM     19  C   UNL     1      43.524   4.070  10.835  0.00  0.00    +0.000 C 
BRANCH  19  20
ATOM     20  N   UNL     1      43.859   3.600   9.494  0.00  0.00    +0.000 NA
ATOM     32  H   UNL     1      44.323   4.350   8.981  0.00  0.00    +0.000 HD
BRANCH  20  21
ATOM     21  C   UNL     1      44.751   2.441   9.544  0.00  0.00    +0.000 C 
BRANCH  21  22
ATOM     22  C   UNL     1      45.689   2.419   8.358  0.00  0.00    +0.000 A 
ATOM     23  C   UNL     1      45.890   3.564   7.577  0.00  0.00    +0.000 A 
ATOM     24  C   UNL     1      46.774   3.540   6.493  0.00  0.00    +0.000 A 
ATOM     25  C   UNL     1      47.468   2.369   6.184  0.00  0.00    +0.000 A 
ATOM     26  C   UNL     1      47.278   1.225   6.955  0.00  0.00    +0.000 A 
ATOM     27  C   UNL     1      46.396   1.250   8.037  0.00  0.00    +0.000 A 
ENDBRANCH  21  22
ENDBRANCH  20  21
ENDBRANCH  19  20
ENDBRANCH  18  19
ENDBRANCH  14  15
BRANCH  14  13
ATOM     11  C   UNL     1      48.942   6.360  15.915  0.00  0.00    +0.000 C 
ATOM     12  O   UNL     1      50.075   6.527  15.465  0.00  0.00    +0.000 OA
ATOM     13  N   UNL     1      47.851   6.366  15.090  0.00  0.00    +0.000 N 
ATOM     31  H   UNL     1      46.924   6.206  15.463  0.00  0.00    +0.000 HD
BRANCH  11  10
ATOM      3  C   UNL     1      47.866   8.400  18.487  0.00  0.00    +0.000 A 
ATOM      4  N   UNL     1      47.517   8.962  19.663  0.00  0.00    +0.000 NA
ATOM      5  C   UNL     1      47.547   8.201  20.762  0.00  0.00    +0.000 A 
ATOM      6  N   UNL     1      47.890   6.919  20.835  0.00  0.00    +0.000 NA
ATOM      7  C   UNL     1      48.239   6.399  19.646  0.00  0.00    +0.000 A 
ATOM      8  S   UNL     1      48.704   4.770  19.556  0.00  0.00    +0.000 S 
ATOM      9  C   UNL     1      48.972   4.889  17.884  0.00  0.00    +0.000 A 
ATOM     10  C   UNL     1      48.718   6.152  17.357  0.00  0.00    +0.000 A 
ATOM     30  C   UNL     1      48.268   7.053  18.417  0.00  0.00    +0.000 A 
BRANCH   3   2
ATOM      1  C   UNL     1      49.000   9.892  17.067  0.00  0.00    +0.000 C 
ATOM      2  O   UNL     1      47.800   9.173  17.346  0.00  0.00    +0.000 OA
ENDBRANCH   3   2
ENDBRANCH  11  10
ENDBRANCH  14  13
TORSDOF 8
ENDMDL
MODEL 3
REMARK VINA RESULT:    -7.718      1.666      3.158
REMARK INTER + INTRA:         -12.644
REMARK INTER:                 -11.265
REMARK INTRA:                  -1.380
REMARK UNBOUND:                -1.317
REMARK  Name = 
REMARK  9 active torsions:
REMARK  status: ('A' for Active; 'I' for Inactive)
REMARK    1  A    between atoms: C_1  and  O_2
REMARK    2  A    between atoms: O_2  and  C_3
REMARK    3  A    between atoms: C_10  and  C_11
REMARK    4  A    between atoms: N_13  and  C_14
REMARK    5  A    between atoms: C_14  and  C_15
REMARK    6  A    between atoms: C_18  and  C_19
REMARK    7  A    between atoms: C_19  and  N_20
REMARK    8  A    between atoms: N_20  and  C_21
REMARK    9  A    between atoms: C_21  and  C_22
REMARK                            x       y       z     vdW  Elec       q    Type
REMARK                         _______ _______ _______ _____ _____    ______ ____
ROOT
ATOM     14  C   UNL     1      47.266   4.045  14.801  0.00  0.00    +0.000 C 
ENDROOT
BRANCH  14  15
ATOM     15  C   UNL     1      46.383   4.287  13.603  0.00  0.00    +0.000 A 
ATOM     16  C   UNL     1      46.066   5.591  13.203  0.00  0.00    +0.000 A 
ATOM     17  C   UNL     1      45.198   5.815  12.129  0.00  0.00    +0.000 A 
ATOM     18  C   UNL     1      44.624   4.742  11.433  0.00  0.00    +0.000 A 
ATOM     28  C   UNL     1      44.957   3.437  11.825  0.00  0.00    +0.000 A 
ATOM     29  C   UNL     1      45.822   3.213  12.901  0.00  0.00    +0.000 A 
BRANCH  18  19
ATOM     19  C   UNL     1      43.630   4.985  10.319  0.00  0.00    +0.000 C 
BRANCH  19  20
ATOM     20  N   UNL     1      44.000   4.277   9.096  0.00  0.00    +0.000 NA
ATOM     32  H   UNL     1      43.370   4.552   8.344  0.00  0.00    +0.000 HD
BRANCH  20  21
ATOM     21  C   UNL     1      45.374   4.588   8.698  0.00  0.00    +0.000 C 
BRANCH  21  22
ATOM     22  C   UNL     1      46.032   3.403   8.028  0.00  0.00    +0.000 A 
ATOM     23  C   UNL     1      45.881   2.109   8.541  0.00  0.00    +0.000 A 
ATOM     24  C   UNL     1      46.478   1.016   7.904  0.00  0.00    +0.000 A 
ATOM     25  C   UNL     1      47.229   1.209   6.744  0.00  0.00    +0.000 A 
ATOM     26  C   UNL     1      47.384   2.491   6.222  0.00  0.00    +0.000 A 
ATOM     27  C   UNL     1      46.787   3.581   6.858  0.00  0.00    +0.000 A 
ENDBRANCH  21  22
ENDBRANCH  20  21
ENDBRANCH  19  20
ENDBRANCH  18  19
ENDBRANCH  14  15
BRANCH  14  13
ATOM     11  C   UNL     1      48.514   5.380  16.441  0.00  0.00    +0.000 C 
ATOM     12  O   UNL     1      49.272   4.436  16.658  0.00  0.00    +0.000 OA
ATOM     13  N   UNL     1      47.490   5.267  15.541  0.00  0.00    +0.000 N 
ATOM     31  H   UNL     1      46.856   6.040  15.384  0.00  0.00    +0.000 HD
BRANCH  11  10
ATOM      3  C   UNL     1      48.714   8.663  15.386  0.00  0.00    +0.000 A 
ATOM      4  N   UNL     1      48.858   9.999  15.260  0.00  0.00    +0.000 NA
ATOM      5  C   UNL     1      49.041  10.722  16.369  0.00  0.00    +0.000 A 
ATOM      6  N   UNL     1      49.101  10.269  17.617  0.00  0.00    +0.000 NA
ATOM      7  C   UNL     1      48.964   8.935  17.698  0.00  0.00    +0.000 A 
ATOM      8  S   UNL     1      49.014   8.185  19.220  0.00  0.00    +0.000 S 
ATOM      9  C   UNL     1      48.798   6.652  18.525  0.00  0.00    +0.000 A 
ATOM     10  C   UNL     1      48.683   6.668  17.138  0.00  0.00    +0.000 A 
ATOM     30  C   UNL     1      48.773   8.042  16.646  0.00  0.00    +0.000 A 
BRANCH   3   2
ATOM      1  C   UNL     1      49.667   7.635  13.498  0.00  0.00    +0.000 C 
ATOM      2  O   UNL     1      48.486   7.918  14.246  0.00  0.00    +0.000 OA
ENDBRANCH   3   2
ENDBRANCH  11  10
ENDBRANCH  14  13
TORSDOF 8
ENDMDL
MODEL 4
REMARK VINA RESULT:    -7.685      1.575      2.147
REMARK INTER + INTRA:         -12.596
REMARK INTER:                 -11.211
REMARK INTRA:                  -1.384
REMARK UNBOUND:                -1.317
REMARK  Name = 
REMARK  9 active torsions:
REMARK  status: ('A' for Active; 'I' for Inactive)
REMARK    1  A    between atoms: C_1  and  O_2
REMARK    2  A    between atoms: O_2  and  C_3
REMARK    3  A    between atoms: C_10  and  C_11
REMARK    4  A    between atoms: N_13  and  C_14
REMARK    5  A    between atoms: C_14  and  C_15
REMARK    6  A    between atoms: C_18  and  C_19
REMARK    7  A    between atoms: C_19  and  N_20
REMARK    8  A    between atoms: N_20  and  C_21
REMARK    9  A    between atoms: C_21  and  C_22
REMARK                            x       y       z     vdW  Elec       q    Type
REMARK                         _______ _______ _______ _____ _____    ______ ____
ROOT
ATOM     14  C   UNL     1      47.955   7.373  12.924  0.00  0.00    +0.000 C 
ENDROOT
BRANCH  14  15
ATOM     15  C   UNL     1      46.931   6.365  12.467  0.00  0.00    +0.000 A 
ATOM     16  C   UNL     1      46.112   6.632  11.363  0.00  0.00    +0.000 A 
ATOM     17  C   UNL     1      45.120   5.724  10.976  0.00  0.00    +0.000 A 
ATOM     18  C   UNL     1      44.922   4.532  11.685  0.00  0.00    +0.000 A 
ATOM     28  C   UNL     1      45.755   4.258  12.780  0.00  0.00    +0.000 A 
ATOM     29  C   UNL     1      46.744   5.168  13.169  0.00  0.00    +0.000 A 
BRANCH  18  19
ATOM     19  C   UNL     1      43.802   3.585  11.311  0.00  0.00    +0.000 C 
BRANCH  19  20
ATOM     20  N   UNL     1      43.784   3.307   9.877  0.00  0.00    +0.000 NA
ATOM     32  H   UNL     1      44.250   4.065   9.381  0.00  0.00    +0.000 HD
BRANCH  20  21
ATOM     21  C   UNL     1      44.469   2.050   9.571  0.00  0.00    +0.000 C 
BRANCH  21  22
ATOM     22  C   UNL     1      45.499   2.240   8.480  0.00  0.00    +0.000 A 
ATOM     23  C   UNL     1      45.665   3.481   7.853  0.00  0.00    +0.000 A 
ATOM     24  C   UNL     1      46.633   3.652   6.858  0.00  0.00    +0.000 A 
ATOM     25  C   UNL     1      47.447   2.582   6.485  0.00  0.00    +0.000 A 
ATOM     26  C   UNL     1      47.294   1.344   7.104  0.00  0.00    +0.000 A 
ATOM     27  C   UNL     1      46.328   1.174   8.097  0.00  0.00    +0.000 A 
ENDBRANCH  21  22
ENDBRANCH  20  21
ENDBRANCH  19  20
ENDBRANCH  18  19
ENDBRANCH  14  15
BRANCH  14  13
ATOM     11  C   UNL     1      49.703   7.590  14.634  0.00  0.00    +0.000 C 
ATOM     12  O   UNL     1      49.764   8.803  14.442  0.00  0.00    +0.000 OA
ATOM     13  N   UNL     1      48.838   6.808  13.919  0.00  0.00    +0.000 N 
ATOM     31  H   UNL     1      48.809   5.807  14.065  0.00  0.00    +0.000 HD
BRANCH  11  10
ATOM      3  C   UNL     1      49.113   5.256  17.112  0.00  0.00    +0.000 A 
ATOM      4  N   UNL     1      49.165   4.405  18.158  0.00  0.00    +0.000 NA
ATOM      5  C   UNL     1      50.339   4.226  18.770  0.00  0.00    +0.000 A 
ATOM      6  N   UNL     1      51.495   4.805  18.463  0.00  0.00    +0.000 NA
ATOM      7  C   UNL     1      51.399   5.652  17.424  0.00  0.00    +0.000 A 
ATOM      8  S   UNL     1      52.784   6.478  16.896  0.00  0.00    +0.000 S 
ATOM      9  C   UNL     1      51.905   7.272  15.680  0.00  0.00    +0.000 A 
ATOM     10  C   UNL     1      50.555   6.935  15.644  0.00  0.00    +0.000 A 
ATOM     30  C   UNL     1      50.257   5.954  16.686  0.00  0.00    +0.000 A 
BRANCH   3   2
ATOM      1  C   UNL     1      47.116   4.230  16.413  0.00  0.00    +0.000 C 
ATOM      2  O   UNL     1      47.910   5.414  16.455  0.00  0.00    +0.000 OA
ENDBRANCH   3   2
ENDBRANCH  11  10
ENDBRANCH  14  13
TORSDOF 8
ENDMDL
MODEL 5
REMARK VINA RESULT:    -7.651      2.076      2.653
REMARK INTER + INTRA:         -12.546
REMARK INTER:                 -11.349
REMARK INTRA:                  -1.197
REMARK UNBOUND:                -1.317
REMARK  Name = 
REMARK  9 active torsions:
REMARK  status: ('A' for Active; 'I' for Inactive)
REMARK    1  A    between atoms: C_1  and  O_2
REMARK    2  A    between atoms: O_2  and  C_3
REMARK    3  A    between atoms: C_10  and  C_11
REMARK    4  A    between atoms: N_13  and  C_14
REMARK    5  A    between atoms: C_14  and  C_15
REMARK    6  A    between atoms: C_18  and  C_19
REMARK    7  A    between atoms: C_19  and  N_20
REMARK    8  A    between atoms: N_20  and  C_21
REMARK    9  A    between atoms: C_21  and  C_22
REMARK                            x       y       z     vdW  Elec       q    Type
REMARK                         _______ _______ _______ _____ _____    ______ ____
ROOT
ATOM     14  C   UNL     1      45.812   8.370  13.074  0.00  0.00    +0.000 C 
ENDROOT
BRANCH  14  15
ATOM     15  C   UNL     1      45.328   7.048  12.538  0.00  0.00    +0.000 A 
ATOM     16  C   UNL     1      44.585   6.989  11.352  0.00  0.00    +0.000 A 
ATOM     17  C   UNL     1      44.082   5.768  10.886  0.00  0.00    +0.000 A 
ATOM     18  C   UNL     1      44.308   4.581  11.597  0.00  0.00    +0.000 A 
ATOM     28  C   UNL     1      45.067   4.640  12.775  0.00  0.00    +0.000 A 
ATOM     29  C   UNL     1      45.566   5.861  13.242  0.00  0.00    +0.000 A 
BRANCH  18  19
ATOM     19  C   UNL     1      43.704   3.274  11.131  0.00  0.00    +0.000 C 
BRANCH  19  20
ATOM     20  N   UNL     1      43.817   3.109   9.684  0.00  0.00    +0.000 NA
ATOM     32  H   UNL     1      44.322   3.903   9.293  0.00  0.00    +0.000 HD
BRANCH  20  21
ATOM     21  C   UNL     1      44.534   1.879   9.344  0.00  0.00    +0.000 C 
BRANCH  21  22
ATOM     22  C   UNL     1      45.644   2.148   8.354  0.00  0.00    +0.000 A 
ATOM     23  C   UNL     1      46.510   1.125   7.946  0.00  0.00    +0.000 A 
ATOM     24  C   UNL     1      47.523   1.378   7.016  0.00  0.00    +0.000 A 
ATOM     25  C   UNL     1      47.677   2.658   6.483  0.00  0.00    +0.000 A 
ATOM     26  C   UNL     1      46.820   3.683   6.879  0.00  0.00    +0.000 A 
ATOM     27  C   UNL     1      45.810   3.429   7.807  0.00  0.00    +0.000 A 
ENDBRANCH  21  22
ENDBRANCH  20  21
ENDBRANCH  19  20
ENDBRANCH  18  19
ENDBRANCH  14  15
BRANCH  14  13
ATOM     11  C   UNL     1      48.256   8.153  13.174  0.00  0.00    +0.000 C 
ATOM     12  O   UNL     1      48.328   8.214  11.948  0.00  0.00    +0.000 OA
ATOM     13  N   UNL     1      47.047   8.216  13.810  0.00  0.00    +0.000 N 
ATOM     31  H   UNL     1      46.992   8.142  14.818  0.00  0.00    +0.000 HD
BRANCH  11  10
ATOM      3  C   UNL     1      49.191   5.997  15.707  0.00  0.00    +0.000 A 
ATOM      4  N   UNL     1      49.792   5.338  16.719  0.00  0.00    +0.000 NA
ATOM      5  C   UNL     1      51.010   5.737  17.099  0.00  0.00    +0.000 A 
ATOM      6  N   UNL     1      51.720   6.735  16.583  0.00  0.00    +0.000 NA
ATOM      7  C   UNL     1      51.083   7.372  15.585  0.00  0.00    +0.000 A 
ATOM      8  S   UNL     1      51.847   8.674  14.810  0.00  0.00    +0.000 S 
ATOM      9  C   UNL     1      50.513   8.908  13.786  0.00  0.00    +0.000 A 
ATOM     10  C   UNL     1      49.468   8.015  14.002  0.00  0.00    +0.000 A 
ATOM     30  C   UNL     1      49.818   7.087  15.076  0.00  0.00    +0.000 A 
BRANCH   3   2
ATOM      1  C   UNL     1      47.471   4.419  15.992  0.00  0.00    +0.000 C 
ATOM      2  O   UNL     1      47.949   5.564  15.288  0.00  0.00    +0.000 OA
ENDBRANCH   3   2
ENDBRANCH  11  10
ENDBRANCH  14  13
TORSDOF 8
ENDMDL
MODEL 6
REMARK VINA RESULT:    -7.563      1.552      2.394
REMARK INTER + INTRA:         -12.416
REMARK INTER:                 -11.271
REMARK INTRA:                  -1.146
REMARK UNBOUND:                -1.317
REMARK  Name = 
REMARK  9 active torsions:
REMARK  status: ('A' for Active; 'I' for Inactive)
REMARK    1  A    between atoms: C_1  and  O_2
REMARK    2  A    between atoms: O_2  and  C_3
REMARK    3  A    between atoms: C_10  and  C_11
REMARK    4  A    between atoms: N_13  and  C_14
REMARK    5  A    between atoms: C_14  and  C_15
REMARK    6  A    between atoms: C_18  and  C_19
REMARK    7  A    between atoms: C_19  and  N_20
REMARK    8  A    between atoms: N_20  and  C_21
REMARK    9  A    between atoms: C_21  and  C_22
REMARK                            x       y       z     vdW  Elec       q    Type
REMARK                         _______ _______ _______ _____ _____    ______ ____
ROOT
ATOM     14  C   UNL     1      47.407   4.285  14.896  0.00  0.00    +0.000 C 
ENDROOT
BRANCH  14  15
ATOM     15  C   UNL     1      46.443   4.400  13.744  0.00  0.00    +0.000 A 
ATOM     16  C   UNL     1      45.895   5.641  13.394  0.00  0.00    +0.000 A 
ATOM     17  C   UNL     1      44.953   5.739  12.364  0.00  0.00    +0.000 A 
ATOM     18  C   UNL     1      44.534   4.600  11.663  0.00  0.00    +0.000 A 
ATOM     28  C   UNL     1      45.096   3.361  12.003  0.00  0.00    +0.000 A 
ATOM     29  C   UNL     1      46.035   3.263  13.035  0.00  0.00    +0.000 A 
BRANCH  18  19
ATOM     19  C   UNL     1      43.463   4.697  10.599  0.00  0.00    +0.000 C 
BRANCH  19  20
ATOM     20  N   UNL     1      43.792   3.896   9.423  0.00  0.00    +0.000 NA
ATOM     32  H   UNL     1      42.998   3.895   8.783  0.00  0.00    +0.000 HD
BRANCH  20  21
ATOM     21  C   UNL     1      44.960   4.433   8.724  0.00  0.00    +0.000 C 
BRANCH  21  22
ATOM     22  C   UNL     1      45.796   3.326   8.122  0.00  0.00    +0.000 A 
ATOM     23  C   UNL     1      45.673   2.005   8.570  0.00  0.00    +0.000 A 
ATOM     24  C   UNL     1      46.436   0.984   7.995  0.00  0.00    +0.000 A 
ATOM     25  C   UNL     1      47.329   1.276   6.963  0.00  0.00    +0.000 A 
ATOM     26  C   UNL     1      47.458   2.586   6.507  0.00  0.00    +0.000 A 
ATOM     27  C   UNL     1      46.696   3.604   7.081  0.00  0.00    +0.000 A 
ENDBRANCH  21  22
ENDBRANCH  20  21
ENDBRANCH  19  20
ENDBRANCH  18  19
ENDBRANCH  14  15
BRANCH  14  13
ATOM     11  C   UNL     1      48.578   5.796  16.436  0.00  0.00    +0.000 C 
ATOM     12  O   UNL     1      49.471   4.966  16.598  0.00  0.00    +0.000 OA
ATOM     13  N   UNL     1      47.516   5.534  15.614  0.00  0.00    +0.000 N 
ATOM     31  H   UNL     1      46.774   6.212  15.503  0.00  0.00    +0.000 HD
BRANCH  11  10
ATOM      3  C   UNL     1      47.776   6.864  19.622  0.00  0.00    +0.000 A 
ATOM      4  N   UNL     1      47.514   7.554  20.752  0.00  0.00    +0.000 NA
ATOM      5  C   UNL     1      47.742   8.871  20.758  0.00  0.00    +0.000 A 
ATOM      6  N   UNL     1      48.211   9.603  19.752  0.00  0.00    +0.000 NA
ATOM      7  C   UNL     1      48.450   8.882  18.644  0.00  0.00    +0.000 A 
ATOM      8  S   UNL     1      49.055   9.660  17.262  0.00  0.00    +0.000 S 
ATOM      9  C   UNL     1      49.069   8.204  16.390  0.00  0.00    +0.000 A 
ATOM     10  C   UNL     1      48.622   7.103  17.116  0.00  0.00    +0.000 A 
ATOM     30  C   UNL     1      48.261   7.513  18.472  0.00  0.00    +0.000 A 
BRANCH   3   2
ATOM      1  C   UNL     1      48.702   4.753  20.086  0.00  0.00    +0.000 C 
ATOM      2  O   UNL     1      47.577   5.499  19.626  0.00  0.00    +0.000 OA
ENDBRANCH   3   2
ENDBRANCH  11  10
ENDBRANCH  14  13
TORSDOF 8
ENDMDL
MODEL 7
REMARK VINA RESULT:    -7.533      1.637      3.114
REMARK INTER + INTRA:         -12.372
REMARK INTER:                 -11.177
REMARK INTRA:                  -1.195
REMARK UNBOUND:                -1.317
REMARK  Name = 
REMARK  9 active torsions:
REMARK  status: ('A' for Active; 'I' for Inactive)
REMARK    1  A    between atoms: C_1  and  O_2
REMARK    2  A    between atoms: O_2  and  C_3
REMARK    3  A    between atoms: C_10  and  C_11
REMARK    4  A    between atoms: N_13  and  C_14
REMARK    5  A    between atoms: C_14  and  C_15
REMARK    6  A    between atoms: C_18  and  C_19
REMARK    7  A    between atoms: C_19  and  N_20
REMARK    8  A    between atoms: N_20  and  C_21
REMARK    9  A    between atoms: C_21  and  C_22
REMARK                            x       y       z     vdW  Elec       q    Type
REMARK                         _______ _______ _______ _____ _____    ______ ____
ROOT
ATOM     14  C   UNL     1      47.487   3.923  15.273  0.00  0.00    +0.000 C 
ENDROOT
BRANCH  14  15
ATOM     15  C   UNL     1      46.863   4.372  13.977  0.00  0.00    +0.000 A 
ATOM     16  C   UNL     1      47.015   5.691  13.531  0.00  0.00    +0.000 A 
ATOM     17  C   UNL     1      46.385   6.125  12.359  0.00  0.00    +0.000 A 
ATOM     18  C   UNL     1      45.586   5.251  11.608  0.00  0.00    +0.000 A 
ATOM     28  C   UNL     1      45.449   3.926  12.047  0.00  0.00    +0.000 A 
ATOM     29  C   UNL     1      46.076   3.494  13.220  0.00  0.00    +0.000 A 
BRANCH  18  19
ATOM     19  C   UNL     1      44.848   5.739  10.381  0.00  0.00    +0.000 C 
BRANCH  19  20
ATOM     20  N   UNL     1      45.473   5.269   9.148  0.00  0.00    +0.000 NA
ATOM     32  H   UNL     1      46.435   4.994   9.342  0.00  0.00    +0.000 HD
BRANCH  20  21
ATOM     21  C   UNL     1      44.756   4.121   8.593  0.00  0.00    +0.000 C 
BRANCH  21  22
ATOM     22  C   UNL     1      45.708   3.142   7.942  0.00  0.00    +0.000 A 
ATOM     23  C   UNL     1      46.543   3.539   6.890  0.00  0.00    +0.000 A 
ATOM     24  C   UNL     1      47.434   2.632   6.307  0.00  0.00    +0.000 A 
ATOM     25  C   UNL     1      47.499   1.319   6.775  0.00  0.00    +0.000 A 
ATOM     26  C   UNL     1      46.676   0.913   7.823  0.00  0.00    +0.000 A 
ATOM     27  C   UNL     1      45.788   1.819   8.404  0.00  0.00    +0.000 A 
ENDBRANCH  21  22
ENDBRANCH  20  21
ENDBRANCH  19  20
ENDBRANCH  18  19
ENDBRANCH  14  15
BRANCH  14  13
ATOM     11  C   UNL     1      48.247   4.970  17.360  0.00  0.00    +0.000 C 
ATOM     12  O   UNL     1      49.086   4.085  17.518  0.00  0.00    +0.000 OA
ATOM     13  N   UNL     1      47.411   4.961  16.277  0.00  0.00    +0.000 N 
ATOM     31  H   UNL     1      46.708   5.679  16.165  0.00  0.00    +0.000 HD
BRANCH  11  10
ATOM      3  C   UNL     1      48.551   8.404  17.123  0.00  0.00    +0.000 A 
ATOM      4  N   UNL     1      48.641   9.734  17.328  0.00  0.00    +0.000 NA
ATOM      5  C   UNL     1      48.433  10.199  18.564  0.00  0.00    +0.000 A 
ATOM      6  N   UNL     1      48.140   9.486  19.646  0.00  0.00    +0.000 NA
ATOM      7  C   UNL     1      48.068   8.166  19.402  0.00  0.00    +0.000 A 
ATOM      8  S   UNL     1      47.701   7.105  20.674  0.00  0.00    +0.000 S 
ATOM      9  C   UNL     1      47.804   5.759  19.645  0.00  0.00    +0.000 A 
ATOM     10  C   UNL     1      48.115   6.076  18.326  0.00  0.00    +0.000 A 
ATOM     30  C   UNL     1      48.263   7.524  18.182  0.00  0.00    +0.000 A 
BRANCH   3   2
ATOM      1  C   UNL     1      48.461   8.888  14.823  0.00  0.00    +0.000 C 
ATOM      2  O   UNL     1      48.728   7.924  15.841  0.00  0.00    +0.000 OA
ENDBRANCH   3   2
ENDBRANCH  11  10
ENDBRANCH  14  13
TORSDOF 8
ENDMDL
MODEL 8
REMARK VINA RESULT:    -7.506      1.870      2.524
REMARK INTER + INTRA:         -12.333
REMARK INTER:                 -11.274
REMARK INTRA:                  -1.058
REMARK UNBOUND:                -1.317
REMARK  Name = 
REMARK  9 active torsions:
REMARK  status: ('A' for Active; 'I' for Inactive)
REMARK    1  A    between atoms: C_1  and  O_2
REMARK    2  A    between atoms: O_2  and  C_3
REMARK    3  A    between atoms: C_10  and  C_11
REMARK    4  A    between atoms: N_13  and  C_14
REMARK    5  A    between atoms: C_14  and  C_15
REMARK    6  A    between atoms: C_18  and  C_19
REMARK    7  A    between atoms: C_19  and  N_20
REMARK    8  A    between atoms: N_20  and  C_21
REMARK    9  A    between atoms: C_21  and  C_22
REMARK                            x       y       z     vdW  Elec       q    Type
REMARK                         _______ _______ _______ _____ _____    ______ ____
ROOT
ATOM     14  C   UNL     1      47.559   6.976  13.703  0.00  0.00    +0.000 C 
ENDROOT
BRANCH  14  15
ATOM     15  C   UNL     1      46.552   6.161  12.933  0.00  0.00    +0.000 A 
ATOM     16  C   UNL     1      46.075   6.603  11.692  0.00  0.00    +0.000 A 
ATOM     17  C   UNL     1      45.095   5.878  11.006  0.00  0.00    +0.000 A 
ATOM     18  C   UNL     1      44.566   4.697  11.545  0.00  0.00    +0.000 A 
ATOM     28  C   UNL     1      45.057   4.247  12.780  0.00  0.00    +0.000 A 
ATOM     29  C   UNL     1      46.034   4.974  13.467  0.00  0.00    +0.000 A 
BRANCH  18  19
ATOM     19  C   UNL     1      43.455   3.953  10.837  0.00  0.00    +0.000 C 
BRANCH  19  20
ATOM     20  N   UNL     1      43.827   3.592   9.472  0.00  0.00    +0.000 NA
ATOM     32  H   UNL     1      44.403   4.333   9.073  0.00  0.00    +0.000 HD
BRANCH  20  21
ATOM     21  C   UNL     1      44.583   2.339   9.441  0.00  0.00    +0.000 C 
BRANCH  21  22
ATOM     22  C   UNL     1      45.630   2.357   8.350  0.00  0.00    +0.000 A 
ATOM     23  C   UNL     1      46.398   1.220   8.068  0.00  0.00    +0.000 A 
ATOM     24  C   UNL     1      47.351   1.240   7.045  0.00  0.00    +0.000 A 
ATOM     25  C   UNL     1      47.541   2.398   6.291  0.00  0.00    +0.000 A 
ATOM     26  C   UNL     1      46.781   3.535   6.559  0.00  0.00    +0.000 A 
ATOM     27  C   UNL     1      45.830   3.514   7.581  0.00  0.00    +0.000 A 
ENDBRANCH  21  22
ENDBRANCH  20  21
ENDBRANCH  19  20
ENDBRANCH  18  19
ENDBRANCH  14  15
BRANCH  14  13
ATOM     11  C   UNL     1      48.871   6.846  15.774  0.00  0.00    +0.000 C 
ATOM     12  O   UNL     1      49.249   8.007  15.628  0.00  0.00    +0.000 OA
ATOM     13  N   UNL     1      48.037   6.258  14.863  0.00  0.00    +0.000 N 
ATOM     31  H   UNL     1      47.748   5.295  14.977  0.00  0.00    +0.000 HD
BRANCH  11  10
ATOM      3  C   UNL     1      51.944   5.889  17.027  0.00  0.00    +0.000 A 
ATOM      4  N   UNL     1      52.980   5.350  17.704  0.00  0.00    +0.000 NA
ATOM      5  C   UNL     1      52.713   4.604  18.780  0.00  0.00    +0.000 A 
ATOM      6  N   UNL     1      51.513   4.320  19.276  0.00  0.00    +0.000 NA
ATOM      7  C   UNL     1      50.509   4.866  18.569  0.00  0.00    +0.000 A 
ATOM      8  S   UNL     1      48.907   4.607  19.065  0.00  0.00    +0.000 S 
ATOM      9  C   UNL     1      48.308   5.527  17.770  0.00  0.00    +0.000 A 
ATOM     10  C   UNL     1      49.295   6.049  16.939  0.00  0.00    +0.000 A 
ATOM     30  C   UNL     1      50.616   5.659  17.429  0.00  0.00    +0.000 A 
BRANCH   3   2
ATOM      1  C   UNL     1      53.077   7.791  16.234  0.00  0.00    +0.000 C 
ATOM      2  O   UNL     1      52.219   6.690  15.938  0.00  0.00    +0.000 OA
ENDBRANCH   3   2
ENDBRANCH  11  10
ENDBRANCH  14  13
TORSDOF 8
ENDMDL
MODEL 9
REMARK VINA RESULT:    -7.211      2.148      3.859
REMARK INTER + INTRA:         -11.901
REMARK INTER:                 -10.962
REMARK INTRA:                  -0.938
REMARK UNBOUND:                -1.317
REMARK  Name = 
REMARK  9 active torsions:
REMARK  status: ('A' for Active; 'I' for Inactive)
REMARK    1  A    between atoms: C_1  and  O_2
REMARK    2  A    between atoms: O_2  and  C_3
REMARK    3  A    between atoms: C_10  and  C_11
REMARK    4  A    between atoms: N_13  and  C_14
REMARK    5  A    between atoms: C_14  and  C_15
REMARK    6  A    between atoms: C_18  and  C_19
REMARK    7  A    between atoms: C_19  and  N_20
REMARK    8  A    between atoms: N_20  and  C_21
REMARK    9  A    between atoms: C_21  and  C_22
REMARK                            x       y       z     vdW  Elec       q    Type
REMARK                         _______ _______ _______ _____ _____    ______ ____
ROOT
ATOM     14  C   UNL     1      47.304   4.810  14.718  0.00  0.00    +0.000 C 
ENDROOT
BRANCH  14  15
ATOM     15  C   UNL     1      46.264   4.804  13.628  0.00  0.00    +0.000 A 
ATOM     16  C   UNL     1      45.720   3.597  13.168  0.00  0.00    +0.000 A 
ATOM     17  C   UNL     1      44.800   3.587  12.114  0.00  0.00    +0.000 A 
ATOM     18  C   UNL     1      44.406   4.780  11.493  0.00  0.00    +0.000 A 
ATOM     28  C   UNL     1      44.939   5.988  11.966  0.00  0.00    +0.000 A 
ATOM     29  C   UNL     1      45.861   5.998  13.017  0.00  0.00    +0.000 A 
BRANCH  18  19
ATOM     19  C   UNL     1      43.467   4.762  10.306  0.00  0.00    +0.000 C 
BRANCH  19  20
ATOM     20  N   UNL     1      44.147   4.349   9.082  0.00  0.00    +0.000 NA
ATOM     32  H   UNL     1      45.002   4.894   8.972  0.00  0.00    +0.000 HD
BRANCH  20  21
ATOM     21  C   UNL     1      44.493   2.928   9.119  0.00  0.00    +0.000 C 
BRANCH  21  22
ATOM     22  C   UNL     1      45.618   2.613   8.159  0.00  0.00    +0.000 A 
ATOM     23  C   UNL     1      46.128   3.593   7.299  0.00  0.00    +0.000 A 
ATOM     24  C   UNL     1      47.181   3.297   6.427  0.00  0.00    +0.000 A 
ATOM     25  C   UNL     1      47.736   2.018   6.412  0.00  0.00    +0.000 A 
ATOM     26  C   UNL     1      47.240   1.035   7.265  0.00  0.00    +0.000 A 
ATOM     27  C   UNL     1      46.189   1.331   8.135  0.00  0.00    +0.000 A 
ENDBRANCH  21  22
ENDBRANCH  20  21
ENDBRANCH  19  20
ENDBRANCH  18  19
ENDBRANCH  14  15
BRANCH  14  13
ATOM     11  C   UNL     1      48.926   6.343  15.742  0.00  0.00    +0.000 C 
ATOM     12  O   UNL     1      49.376   5.431  16.435  0.00  0.00    +0.000 OA
ATOM     13  N   UNL     1      47.896   6.120  14.871  0.00  0.00    +0.000 N 
ATOM     31  H   UNL     1      47.515   6.879  14.321  0.00  0.00    +0.000 HD
BRANCH  11  10
ATOM      3  C   UNL     1      50.178   8.554  13.402  0.00  0.00    +0.000 A 
ATOM      4  N   UNL     1      50.741   9.580  12.729  0.00  0.00    +0.000 NA
ATOM      5  C   UNL     1      51.126  10.656  13.422  0.00  0.00    +0.000 A 
ATOM      6  N   UNL     1      51.017  10.841  14.734  0.00  0.00    +0.000 NA
ATOM      7  C   UNL     1      50.461   9.796  15.368  0.00  0.00    +0.000 A 
ATOM      8  S   UNL     1      50.243   9.864  17.050  0.00  0.00    +0.000 S 
ATOM      9  C   UNL     1      49.564   8.308  17.073  0.00  0.00    +0.000 A 
ATOM     10  C   UNL     1      49.484   7.705  15.821  0.00  0.00    +0.000 A 
ATOM     30  C   UNL     1      50.014   8.605  14.798  0.00  0.00    +0.000 A 
BRANCH   3   2
ATOM      1  C   UNL     1      48.797   7.772  11.667  0.00  0.00    +0.000 C 
ATOM      2  O   UNL     1      49.746   7.458  12.685  0.00  0.00    +0.000 OA
ENDBRANCH   3   2
ENDBRANCH  11  10
ENDBRANCH  14  13
TORSDOF 8
ENDMDL
