MODEL 1
REMARK VINA RESULT:    -6.196      0.000      0.000
REMARK INTER + INTRA:          -6.781
REMARK INTER:                  -6.739
REMARK INTRA:                  -0.042
REMARK UNBOUND:                -0.042
REMARK  Name = 
REMARK  2 active torsions:
REMARK  status: ('A' for Active; 'I' for Inactive)
REMARK    1  A    between atoms: C_2  and  C_4
REMARK    2  A    between atoms: C_7  and  N_8
REMARK                            x       y       z     vdW  Elec       q    Type
REMARK                         _______ _______ _______ _____ _____    ______ ____
ROOT
ATOM      4  C   UNL     1      46.348   2.304   7.817  0.00  0.00    +0.000 A 
ATOM      5  C   UNL     1      46.359   3.686   7.608  0.00  0.00    +0.000 A 
ATOM      6  C   UNL     1      45.472   4.504   8.315  0.00  0.00    +0.000 A 
ATOM      7  C   UNL     1      44.542   3.953   9.201  0.00  0.00    +0.000 A 
ATOM      9  C   UNL     1      44.560   2.573   9.424  0.00  0.00    +0.000 A 
ATOM     10  C   UNL     1      45.436   1.745   8.715  0.00  0.00    +0.000 A 
ENDROOT
BRANCH   4   2
ATOM      1  N   UNL     1      48.416   1.999   6.586  0.00  0.00    +0.000 N 
ATOM      2  C   UNL     1      47.307   1.407   7.126  0.00  0.00    +0.000 C 
ATOM      3  O   UNL     1      47.146   0.195   7.083  0.00  0.00    +0.000 OA
ATOM     11  H   UNL     1      49.132   1.373   6.241  0.00  0.00    +0.000 HD
ATOM     12  H   UNL     1      48.699   2.931   6.852  0.00  0.00    +0.000 HD
ENDBRANCH   4   2
BRANCH   7   8
ATOM      8  N   UNL     1      43.775   4.789  10.020  0.00  0.00    +0.000 N 
ATOM     13  H   UNL     1      42.890   4.386  10.309  0.00  0.00    +0.000 HD
ATOM     14  H   UNL     1      44.290   5.188  10.799  0.00  0.00    +0.000 HD
ENDBRANCH   7   8
TORSDOF 2
ENDMDL
MODEL 2
REMARK VINA RESULT:    -6.195      0.180      1.536
REMARK INTER + INTRA:          -6.780
REMARK INTER:                  -6.739
REMARK INTRA:                  -0.041
REMARK UNBOUND:                -0.042
REMARK  Name = 
REMARK  2 active torsions:
REMARK  status: ('A' for Active; 'I' for Inactive)
REMARK    1  A    between atoms: C_2  and  C_4
REMARK    2  A    between atoms: C_7  and  N_8
REMARK                            x       y       z     vdW  Elec       q    Type
REMARK                         _______ _______ _______ _____ _____    ______ ____
ROOT
ATOM      4  C   UNL     1      46.428   2.330   7.776  0.00  0.00    +0.000 A 
ATOM      5  C   UNL     1      45.536   1.778   8.700  0.00  0.00    +0.000 A 
ATOM      6  C   UNL     1      44.679   2.613   9.425  0.00  0.00    +0.000 A 
ATOM      7  C   UNL     1      44.731   4.001   9.269  0.00  0.00    +0.000 A 
ATOM      9  C   UNL     1      45.606   4.540   8.321  0.00  0.00    +0.000 A 
ATOM     10  C   UNL     1      46.474   3.715   7.598  0.00  0.00    +0.000 A 
ENDROOT
BRANCH   4   2
ATOM      1  N   UNL     1      48.464   2.059   6.486  0.00  0.00    +0.000 N 
ATOM      2  C   UNL     1      47.316   1.476   6.950  0.00  0.00    +0.000 C 
ATOM      3  O   UNL     1      47.066   0.297   6.735  0.00  0.00    +0.000 OA
ATOM     11  H   UNL     1      49.130   1.439   6.044  0.00  0.00    +0.000 HD
ATOM     12  H   UNL     1      48.816   2.919   6.880  0.00  0.00    +0.000 HD
ENDBRANCH   4   2
BRANCH   7   8
ATOM      8  N   UNL     1      43.764   4.810   9.875  0.00  0.00    +0.000 N 
ATOM     13  H   UNL     1      43.238   4.347  10.609  0.00  0.00    +0.000 HD
ATOM     14  H   UNL     1      44.111   5.720  10.163  0.00  0.00    +0.000 HD
ENDBRANCH   7   8
TORSDOF 2
ENDMDL
MODEL 3
REMARK VINA RESULT:    -6.156      1.875      4.311
REMARK INTER + INTRA:          -6.738
REMARK INTER:                  -6.694
REMARK INTRA:                  -0.044
REMARK UNBOUND:                -0.042
REMARK  Name = 
REMARK  2 active torsions:
REMARK  status: ('A' for Active; 'I' for Inactive)
REMARK    1  A    between atoms: C_2  and  C_4
REMARK    2  A    between atoms: C_7  and  N_8
REMARK                            x       y       z     vdW  Elec       q    Type
REMARK                         _______ _______ _______ _____ _____    ______ ____
ROOT
ATOM      4  C   UNL     1      45.235   3.097   8.808  0.00  0.00    +0.000 A 
ATOM      5  C   UNL     1      45.635   1.763   8.687  0.00  0.00    +0.000 A 
ATOM      6  C   UNL     1      46.658   1.421   7.798  0.00  0.00    +0.000 A 
ATOM      7  C   UNL     1      47.261   2.392   6.993  0.00  0.00    +0.000 A 
ATOM      9  C   UNL     1      46.874   3.727   7.144  0.00  0.00    +0.000 A 
ATOM     10  C   UNL     1      45.845   4.078   8.024  0.00  0.00    +0.000 A 
ENDROOT
BRANCH   4   2
ATOM      1  N   UNL     1      43.816   4.825   9.750  0.00  0.00    +0.000 N 
ATOM      2  C   UNL     1      44.190   3.509   9.778  0.00  0.00    +0.000 C 
ATOM      3  O   UNL     1      43.651   2.707  10.530  0.00  0.00    +0.000 OA
ATOM     11  H   UNL     1      43.011   5.070  10.311  0.00  0.00    +0.000 HD
ATOM     12  H   UNL     1      44.039   5.420   8.966  0.00  0.00    +0.000 HD
ENDBRANCH   4   2
BRANCH   7   8
ATOM      8  N   UNL     1      48.388   2.067   6.230  0.00  0.00    +0.000 N 
ATOM     13  H   UNL     1      49.059   1.479   6.712  0.00  0.00    +0.000 HD
ATOM     14  H   UNL     1      48.169   1.722   5.300  0.00  0.00    +0.000 HD
ENDBRANCH   7   8
TORSDOF 2
ENDMDL
MODEL 4
REMARK VINA RESULT:    -6.016      1.828      4.038
REMARK INTER + INTRA:          -6.586
REMARK INTER:                  -6.543
REMARK INTRA:                  -0.043
REMARK UNBOUND:                -0.042
REMARK  Name = 
REMARK  2 active torsions:
REMARK  status: ('A' for Active; 'I' for Inactive)
REMARK    1  A    between atoms: C_2  and  C_4
REMARK    2  A    between atoms: C_7  and  N_8
REMARK                            x       y       z     vdW  Elec       q    Type
REMARK                         _______ _______ _______ _____ _____    ______ ____
ROOT
ATOM      4  C   UNL     1      45.370   3.079   8.731  0.00  0.00    +0.000 A 
ATOM      5  C   UNL     1      45.987   4.067   7.959  0.00  0.00    +0.000 A 
ATOM      6  C   UNL     1      46.987   3.716   7.047  0.00  0.00    +0.000 A 
ATOM      7  C   UNL     1      47.409   2.389   6.924  0.00  0.00    +0.000 A 
ATOM      9  C   UNL     1      46.765   1.405   7.679  0.00  0.00    +0.000 A 
ATOM     10  C   UNL     1      45.771   1.747   8.601  0.00  0.00    +0.000 A 
ENDROOT
BRANCH   4   2
ATOM      1  N   UNL     1      43.826   4.697   9.670  0.00  0.00    +0.000 N 
ATOM      2  C   UNL     1      44.270   3.403   9.673  0.00  0.00    +0.000 C 
ATOM      3  O   UNL     1      43.749   2.550  10.379  0.00  0.00    +0.000 OA
ATOM     11  H   UNL     1      42.989   4.881  10.207  0.00  0.00    +0.000 HD
ATOM     12  H   UNL     1      44.044   5.328   8.913  0.00  0.00    +0.000 HD
ENDBRANCH   4   2
BRANCH   7   8
ATOM      8  N   UNL     1      48.289   2.027   5.898  0.00  0.00    +0.000 N 
ATOM     13  H   UNL     1      49.060   1.441   6.202  0.00  0.00    +0.000 HD
ATOM     14  H   UNL     1      47.828   1.660   5.071  0.00  0.00    +0.000 HD
ENDBRANCH   7   8
TORSDOF 2
ENDMDL
MODEL 5
REMARK VINA RESULT:    -5.493      2.550      4.280
REMARK INTER + INTRA:          -6.016
REMARK INTER:                  -5.986
REMARK INTRA:                  -0.030
REMARK UNBOUND:                -0.042
REMARK  Name = 
REMARK  2 active torsions:
REMARK  status: ('A' for Active; 'I' for Inactive)
REMARK    1  A    between atoms: C_2  and  C_4
REMARK    2  A    between atoms: C_7  and  N_8
REMARK                            x       y       z     vdW  Elec       q    Type
REMARK                         _______ _______ _______ _____ _____    ______ ____
ROOT
ATOM      4  C   UNL     1      44.899   3.177   9.920  0.00  0.00    +0.000 A 
ATOM      5  C   UNL     1      45.260   2.083   9.129  0.00  0.00    +0.000 A 
ATOM      6  C   UNL     1      45.957   2.288   7.934  0.00  0.00    +0.000 A 
ATOM      7  C   UNL     1      46.264   3.579   7.497  0.00  0.00    +0.000 A 
ATOM      9  C   UNL     1      45.924   4.664   8.310  0.00  0.00    +0.000 A 
ATOM     10  C   UNL     1      45.218   4.471   9.502  0.00  0.00    +0.000 A 
ENDROOT
BRANCH   4   2
ATOM      1  N   UNL     1      45.000   2.799  12.314  0.00  0.00    +0.000 N 
ATOM      2  C   UNL     1      44.205   3.000  11.220  0.00  0.00    +0.000 C 
ATOM      3  O   UNL     1      42.987   3.081  11.321  0.00  0.00    +0.000 OA
ATOM     11  H   UNL     1      44.535   2.819  13.212  0.00  0.00    +0.000 HD
ATOM     12  H   UNL     1      45.988   3.008  12.295  0.00  0.00    +0.000 HD
ENDBRANCH   4   2
BRANCH   7   8
ATOM      8  N   UNL     1      47.099   3.763   6.390  0.00  0.00    +0.000 N 
ATOM     13  H   UNL     1      48.085   3.832   6.621  0.00  0.00    +0.000 HD
ATOM     14  H   UNL     1      46.926   3.111   5.630  0.00  0.00    +0.000 HD
ENDBRANCH   7   8
TORSDOF 2
ENDMDL
MODEL 6
REMARK VINA RESULT:    -5.476      2.217      4.260
REMARK INTER + INTRA:          -5.998
REMARK INTER:                  -5.955
REMARK INTRA:                  -0.043
REMARK UNBOUND:                -0.042
REMARK  Name = 
REMARK  2 active torsions:
REMARK  status: ('A' for Active; 'I' for Inactive)
REMARK    1  A    between atoms: C_2  and  C_4
REMARK    2  A    between atoms: C_7  and  N_8
REMARK                            x       y       z     vdW  Elec       q    Type
REMARK                         _______ _______ _______ _____ _____    ______ ____
ROOT
ATOM      4  C   UNL     1      44.674   3.538   9.431  0.00  0.00    +0.000 A 
ATOM      5  C   UNL     1      45.391   4.326   8.526  0.00  0.00    +0.000 A 
ATOM      6  C   UNL     1      46.256   3.720   7.609  0.00  0.00    +0.000 A 
ATOM      7  C   UNL     1      46.445   2.335   7.612  0.00  0.00    +0.000 A 
ATOM      9  C   UNL     1      45.701   1.555   8.501  0.00  0.00    +0.000 A 
ATOM     10  C   UNL     1      44.841   2.152   9.429  0.00  0.00    +0.000 A 
ENDROOT
BRANCH   4   2
ATOM      1  N   UNL     1      43.526   5.491  10.301  0.00  0.00    +0.000 N 
ATOM      2  C   UNL     1      43.707   4.137  10.385  0.00  0.00    +0.000 C 
ATOM      3  O   UNL     1      43.065   3.454  11.172  0.00  0.00    +0.000 OA
ATOM     11  H   UNL     1      42.769   5.873  10.853  0.00  0.00    +0.000 HD
ATOM     12  H   UNL     1      43.825   6.014   9.491  0.00  0.00    +0.000 HD
ENDBRANCH   4   2
BRANCH   7   8
ATOM      8  N   UNL     1      47.183   1.728   6.590  0.00  0.00    +0.000 N 
ATOM     13  H   UNL     1      46.843   0.810   6.323  0.00  0.00    +0.000 HD
ATOM     14  H   UNL     1      47.346   2.328   5.787  0.00  0.00    +0.000 HD
ENDBRANCH   7   8
TORSDOF 2
ENDMDL
MODEL 7
REMARK VINA RESULT:    -4.977      4.173      5.499
REMARK INTER + INTRA:          -5.455
REMARK INTER:                  -5.415
REMARK INTRA:                  -0.040
REMARK UNBOUND:                -0.042
REMARK  Name = 
REMARK  2 active torsions:
REMARK  status: ('A' for Active; 'I' for Inactive)
REMARK    1  A    between atoms: C_2  and  C_4
REMARK    2  A    between atoms: C_7  and  N_8
REMARK                            x       y       z     vdW  Elec       q    Type
REMARK                         _______ _______ _______ _____ _____    ______ ____
ROOT
ATOM      4  C   UNL     1      46.010   4.281  12.816  0.00  0.00    +0.000 A 
ATOM      5  C   UNL     1      45.303   3.177  12.330  0.00  0.00    +0.000 A 
ATOM      6  C   UNL     1      44.581   3.283  11.138  0.00  0.00    +0.000 A 
ATOM      7  C   UNL     1      44.520   4.493  10.443  0.00  0.00    +0.000 A 
ATOM      9  C   UNL     1      45.255   5.583  10.922  0.00  0.00    +0.000 A 
ATOM     10  C   UNL     1      45.973   5.490  12.119  0.00  0.00    +0.000 A 
ENDROOT
BRANCH   4   2
ATOM      1  N   UNL     1      46.924   5.335  14.800  0.00  0.00    +0.000 N 
ATOM      2  C   UNL     1      46.831   4.196  14.049  0.00  0.00    +0.000 C 
ATOM      3  O   UNL     1      47.357   3.149  14.407  0.00  0.00    +0.000 OA
ATOM     11  H   UNL     1      47.365   5.237  15.706  0.00  0.00    +0.000 HD
ATOM     12  H   UNL     1      46.282   6.104  14.674  0.00  0.00    +0.000 HD
ENDBRANCH   4   2
BRANCH   7   8
ATOM      8  N   UNL     1      43.933   4.544   9.174  0.00  0.00    +0.000 N 
ATOM     13  H   UNL     1      44.597   4.641   8.414  0.00  0.00    +0.000 HD
ATOM     14  H   UNL     1      43.257   3.805   9.004  0.00  0.00    +0.000 HD
ENDBRANCH   7   8
TORSDOF 2
ENDMDL
MODEL 8
REMARK VINA RESULT:    -4.734      5.758      5.910
REMARK INTER + INTRA:          -5.191
REMARK INTER:                  -5.160
REMARK INTRA:                  -0.031
REMARK UNBOUND:                -0.042
REMARK  Name = 
REMARK  2 active torsions:
REMARK  status: ('A' for Active; 'I' for Inactive)
REMARK    1  A    between atoms: C_2  and  C_4
REMARK    2  A    between atoms: C_7  and  N_8
REMARK                            x       y       z     vdW  Elec       q    Type
REMARK                         _______ _______ _______ _____ _____    ______ ____
ROOT
ATOM      4  C   UNL     1      45.806   5.030  13.268  0.00  0.00    +0.000 A 
ATOM      5  C   UNL     1      46.112   6.173  12.524  0.00  0.00    +0.000 A 
ATOM      6  C   UNL     1      45.121   6.788  11.754  0.00  0.00    +0.000 A 
ATOM      7  C   UNL     1      43.832   6.252  11.684  0.00  0.00    +0.000 A 
ATOM      9  C   UNL     1      43.529   5.126  12.455  0.00  0.00    +0.000 A 
ATOM     10  C   UNL     1      44.516   4.497  13.221  0.00  0.00    +0.000 A 
ENDROOT
BRANCH   4   2
ATOM      1  N   UNL     1      47.220   5.083  15.238  0.00  0.00    +0.000 N 
ATOM      2  C   UNL     1      46.815   4.378  14.139  0.00  0.00    +0.000 C 
ATOM      3  O   UNL     1      47.227   3.246  13.918  0.00  0.00    +0.000 OA
ATOM     11  H   UNL     1      47.798   4.583  15.900  0.00  0.00    +0.000 HD
ATOM     12  H   UNL     1      46.695   5.874  15.581  0.00  0.00    +0.000 HD
ENDBRANCH   4   2
BRANCH   7   8
ATOM      8  N   UNL     1      42.811   6.962  11.044  0.00  0.00    +0.000 N 
ATOM     13  H   UNL     1      42.432   7.727  11.593  0.00  0.00    +0.000 HD
ATOM     14  H   UNL     1      43.038   7.244  10.095  0.00  0.00    +0.000 HD
ENDBRANCH   7   8
TORSDOF 2
ENDMDL
MODEL 9
REMARK VINA RESULT:    -4.667      3.713      4.700
REMARK INTER + INTRA:          -5.118
REMARK INTER:                  -5.075
REMARK INTRA:                  -0.043
REMARK UNBOUND:                -0.042
REMARK  Name = 
REMARK  2 active torsions:
REMARK  status: ('A' for Active; 'I' for Inactive)
REMARK    1  A    between atoms: C_2  and  C_4
REMARK    2  A    between atoms: C_7  and  N_8
REMARK                            x       y       z     vdW  Elec       q    Type
REMARK                         _______ _______ _______ _____ _____    ______ ____
ROOT
ATOM      4  C   UNL     1      44.945   4.599  11.029  0.00  0.00    +0.000 A 
ATOM      5  C   UNL     1      45.645   5.758  10.683  0.00  0.00    +0.000 A 
ATOM      6  C   UNL     1      46.358   6.458  11.661  0.00  0.00    +0.000 A 
ATOM      7  C   UNL     1      46.347   6.036  12.994  0.00  0.00    +0.000 A 
ATOM      9  C   UNL     1      45.668   4.859  13.323  0.00  0.00    +0.000 A 
ATOM     10  C   UNL     1      44.943   4.157  12.354  0.00  0.00    +0.000 A 
ENDROOT
BRANCH   4   2
ATOM      1  N   UNL     1      44.097   4.356   8.769  0.00  0.00    +0.000 N 
ATOM      2  C   UNL     1      44.218   3.798  10.011  0.00  0.00    +0.000 C 
ATOM      3  O   UNL     1      43.794   2.675  10.252  0.00  0.00    +0.000 OA
ATOM     11  H   UNL     1      43.728   3.754   8.044  0.00  0.00    +0.000 HD
ATOM     12  H   UNL     1      44.672   5.134   8.481  0.00  0.00    +0.000 HD
ENDBRANCH   4   2
BRANCH   7   8
ATOM      8  N   UNL     1      47.191   6.646  13.928  0.00  0.00    +0.000 N 
ATOM     13  H   UNL     1      46.725   6.932  14.783  0.00  0.00    +0.000 HD
ATOM     14  H   UNL     1      48.047   6.130  14.109  0.00  0.00    +0.000 HD
ENDBRANCH   7   8
TORSDOF 2
ENDMDL
