MODEL 1
REMARK VINA RESULT:    -6.550      0.000      0.000
REMARK INTER + INTRA:          -9.534
REMARK INTER:                  -8.465
REMARK INTRA:                  -1.069
REMARK UNBOUND:                -1.069
REMARK  Name = 
REMARK  7 active torsions:
REMARK  status: ('A' for Active; 'I' for Inactive)
REMARK    1  A    between atoms: C_1  and  C_2
REMARK    2  A    between atoms: C_2  and  C_3
REMARK    3  A    between atoms: C_2  and  C_4
REMARK    4  A    between atoms: C_7  and  C_9
REMARK    5  A    between atoms: C_9  and  N_10
REMARK    6  A    between atoms: C_11  and  C_12
REMARK    7  A    between atoms: C_18  and  C_19
REMARK                            x       y       z     vdW  Elec       q    Type
REMARK                         _______ _______ _______ _____ _____    ______ ____
ROOT
ATOM     10  N   UNL     1      47.538   4.431  14.632  0.00  0.00    +0.000 N 
ATOM     11  C   UNL     1      47.916   5.753  14.823  0.00  0.00    +0.000 A 
ATOM     15  C   UNL     1      47.265   6.512  13.880  0.00  0.00    +0.000 A 
ATOM     16  C   UNL     1      46.463   5.653  13.097  0.00  0.00    +0.000 A 
ATOM     17  C   UNL     1      45.627   5.834  11.992  0.00  0.00    +0.000 A 
ATOM     18  C   UNL     1      44.963   4.718  11.479  0.00  0.00    +0.000 A 
ATOM     22  C   UNL     1      45.157   3.494  12.118  0.00  0.00    +0.000 A 
ATOM     23  N   UNL     1      45.943   3.266  13.205  0.00  0.00    +0.000 NA
ATOM     24  C   UNL     1      46.604   4.368  13.617  0.00  0.00    +0.000 A 
ENDROOT
BRANCH  18  19
ATOM     19  C   UNL     1      44.076   4.786  10.292  0.00  0.00    +0.000 C 
ATOM     20  N   UNL     1      44.601   4.447   9.065  0.00  0.00    +0.000 N 
ATOM     21  O   UNL     1      42.902   5.134  10.392  0.00  0.00    +0.000 OA
ATOM     28  H   UNL     1      45.541   4.141   8.895  0.00  0.00    +0.000 HD
ATOM     29  H   UNL     1      43.962   4.489   8.283  0.00  0.00    +0.000 HD
ENDBRANCH  18  19
BRANCH  11  12
ATOM     12  C   UNL     1      48.873   6.305  15.877  0.00  0.00    +0.000 C 
ATOM     13  C   UNL     1      48.992   7.814  15.981  0.00  0.00    +0.000 C 
ATOM     14  C   UNL     1      50.139   7.025  15.451  0.00  0.00    +0.000 C 
ENDBRANCH  11  12
BRANCH  10   9
ATOM      9  C   UNL     1      47.885   3.275  15.457  0.00  0.00    +0.000 C 
BRANCH   9   7
ATOM      4  C   UNL     1      49.345   4.597  19.772  0.00  0.00    +0.000 C 
ATOM      5  C   UNL     1      48.488   3.401  19.258  0.00  0.00    +0.000 C 
ATOM      6  N   UNL     1      48.665   3.197  17.814  0.00  0.00    +0.000 N 
ATOM      7  C   UNL     1      47.600   3.444  16.944  0.00  0.00    +0.000 C 
ATOM      8  O   UNL     1      46.485   3.732  17.377  0.00  0.00    +0.000 OA
ATOM     25  C   UNL     1      50.062   2.980  17.433  0.00  0.00    +0.000 C 
ATOM     26  C   UNL     1      50.951   4.120  17.967  0.00  0.00    +0.000 C 
ATOM     27  N   UNL     1      50.771   4.365  19.409  0.00  0.00    +0.000 NA
ATOM     30  H   UNL     1      51.342   5.155  19.698  0.00  0.00    +0.000 HD
BRANCH   4   2
ATOM      1  C   UNL     1      49.645   7.160  19.860  0.00  0.00    +0.000 C 
ATOM      2  C   UNL     1      48.800   5.993  19.324  0.00  0.00    +0.000 C 
ATOM      3  C   UNL     1      47.353   6.228  19.781  0.00  0.00    +0.000 C 
ENDBRANCH   4   2
ENDBRANCH   9   7
ENDBRANCH  10   9
TORSDOF 5
ENDMDL
MODEL 2
REMARK VINA RESULT:    -6.337      2.091      7.687
REMARK INTER + INTRA:          -9.259
REMARK INTER:                  -8.312
REMARK INTRA:                  -0.946
REMARK UNBOUND:                -1.069
REMARK  Name = 
REMARK  7 active torsions:
REMARK  status: ('A' for Active; 'I' for Inactive)
REMARK    1  A    between atoms: C_1  and  C_2
REMARK    2  A    between atoms: C_2  and  C_3
REMARK    3  A    between atoms: C_2  and  C_4
REMARK    4  A    between atoms: C_7  and  C_9
REMARK    5  A    between atoms: C_9  and  N_10
REMARK    6  A    between atoms: C_11  and  C_12
REMARK    7  A    between atoms: C_18  and  C_19
REMARK                            x       y       z     vdW  Elec       q    Type
REMARK                         _______ _______ _______ _____ _____    ______ ____
ROOT
ATOM     10  N   UNL     1      48.035   6.261  14.401  0.00  0.00    +0.000 N 
ATOM     11  C   UNL     1      48.365   7.607  14.315  0.00  0.00    +0.000 A 
ATOM     15  C   UNL     1      48.770   8.015  15.563  0.00  0.00    +0.000 A 
ATOM     16  C   UNL     1      48.700   6.907  16.436  0.00  0.00    +0.000 A 
ATOM     17  C   UNL     1      48.940   6.720  17.800  0.00  0.00    +0.000 A 
ATOM     18  C   UNL     1      48.776   5.438  18.328  0.00  0.00    +0.000 A 
ATOM     22  C   UNL     1      48.406   4.416  17.455  0.00  0.00    +0.000 A 
ATOM     23  N   UNL     1      48.178   4.539  16.119  0.00  0.00    +0.000 NA
ATOM     24  C   UNL     1      48.293   5.810  15.680  0.00  0.00    +0.000 A 
ENDROOT
BRANCH  18  19
ATOM     19  C   UNL     1      48.973   5.130  19.765  0.00  0.00    +0.000 C 
ATOM     20  N   UNL     1      48.603   3.885  20.222  0.00  0.00    +0.000 N 
ATOM     21  O   UNL     1      49.454   5.958  20.535  0.00  0.00    +0.000 OA
ATOM     28  H   UNL     1      48.216   3.147  19.663  0.00  0.00    +0.000 HD
ATOM     29  H   UNL     1      48.769   3.705  21.204  0.00  0.00    +0.000 HD
ENDBRANCH  18  19
BRANCH  11  12
ATOM     12  C   UNL     1      48.309   8.504  13.080  0.00  0.00    +0.000 C 
ATOM     13  C   UNL     1      48.258  10.001  13.315  0.00  0.00    +0.000 C 
ATOM     14  C   UNL     1      47.055   9.304  12.781  0.00  0.00    +0.000 C 
ENDBRANCH  11  12
BRANCH  10   9
ATOM      9  C   UNL     1      47.655   5.364  13.310  0.00  0.00    +0.000 C 
BRANCH   9   7
ATOM      4  C   UNL     1      43.856   4.461  10.617  0.00  0.00    +0.000 C 
ATOM      5  C   UNL     1      44.084   5.358  11.871  0.00  0.00    +0.000 C 
ATOM      6  N   UNL     1      45.511   5.630  12.084  0.00  0.00    +0.000 N 
ATOM      7  C   UNL     1      46.160   5.093  13.198  0.00  0.00    +0.000 C 
ATOM      8  O   UNL     1      45.531   4.482  14.061  0.00  0.00    +0.000 OA
ATOM     25  C   UNL     1      46.153   6.257  10.926  0.00  0.00    +0.000 C 
ATOM     26  C   UNL     1      45.910   5.422   9.655  0.00  0.00    +0.000 C 
ATOM     27  N   UNL     1      44.487   5.111   9.433  0.00  0.00    +0.000 NA
ATOM     30  H   UNL     1      44.387   4.520   8.611  0.00  0.00    +0.000 HD
BRANCH   4   2
ATOM      1  C   UNL     1      44.358   2.183   9.510  0.00  0.00    +0.000 C 
ATOM      2  C   UNL     1      44.294   2.974  10.826  0.00  0.00    +0.000 C 
ATOM      3  C   UNL     1      43.350   2.216  11.770  0.00  0.00    +0.000 C 
ENDBRANCH   4   2
ENDBRANCH   9   7
ENDBRANCH  10   9
TORSDOF 5
ENDMDL
MODEL 3
REMARK VINA RESULT:    -6.044      1.928      2.601
REMARK INTER + INTRA:          -8.880
REMARK INTER:                  -8.075
REMARK INTRA:                  -0.805
REMARK UNBOUND:                -1.069
REMARK  Name = 
REMARK  7 active torsions:
REMARK  status: ('A' for Active; 'I' for Inactive)
REMARK    1  A    between atoms: C_1  and  C_2
REMARK    2  A    between atoms: C_2  and  C_3
REMARK    3  A    between atoms: C_2  and  C_4
REMARK    4  A    between atoms: C_7  and  C_9
REMARK    5  A    between atoms: C_9  and  N_10
REMARK    6  A    between atoms: C_11  and  C_12
REMARK    7  A    between atoms: C_18  and  C_19
REMARK                            x       y       z     vdW  Elec       q    Type
REMARK                         _______ _______ _______ _____ _____    ______ ____
ROOT
ATOM     10  N   UNL     1      48.238   6.728  14.426  0.00  0.00    +0.000 N 
ATOM     11  C   UNL     1      47.903   7.973  13.909  0.00  0.00    +0.000 A 
ATOM     15  C   UNL     1      46.901   7.784  12.988  0.00  0.00    +0.000 A 
ATOM     16  C   UNL     1      46.602   6.405  12.936  0.00  0.00    +0.000 A 
ATOM     17  C   UNL     1      45.725   5.624  12.179  0.00  0.00    +0.000 A 
ATOM     18  C   UNL     1      45.690   4.250  12.423  0.00  0.00    +0.000 A 
ATOM     22  C   UNL     1      46.516   3.745  13.425  0.00  0.00    +0.000 A 
ATOM     23  N   UNL     1      47.373   4.461  14.203  0.00  0.00    +0.000 NA
ATOM     24  C   UNL     1      47.407   5.772  13.880  0.00  0.00    +0.000 A 
ENDROOT
BRANCH  18  19
ATOM     19  C   UNL     1      44.821   3.320  11.660  0.00  0.00    +0.000 C 
ATOM     20  N   UNL     1      43.930   2.537  12.359  0.00  0.00    +0.000 N 
ATOM     21  O   UNL     1      44.889   3.244  10.436  0.00  0.00    +0.000 OA
ATOM     28  H   UNL     1      43.800   2.544  13.354  0.00  0.00    +0.000 HD
ATOM     29  H   UNL     1      43.343   1.930  11.803  0.00  0.00    +0.000 HD
ENDBRANCH  18  19
BRANCH  11  12
ATOM     12  C   UNL     1      48.509   9.327  14.274  0.00  0.00    +0.000 C 
ATOM     13  C   UNL     1      48.532  10.389  13.192  0.00  0.00    +0.000 C 
ATOM     14  C   UNL     1      49.812   9.771  13.638  0.00  0.00    +0.000 C 
ENDBRANCH  11  12
BRANCH  10   9
ATOM      9  C   UNL     1      49.173   6.434  15.510  0.00  0.00    +0.000 C 
BRANCH   9   7
ATOM      4  C   UNL     1      48.537   5.013  19.991  0.00  0.00    +0.000 C 
ATOM      5  C   UNL     1      47.632   5.776  18.977  0.00  0.00    +0.000 C 
ATOM      6  N   UNL     1      48.112   5.608  17.599  0.00  0.00    +0.000 N 
ATOM      7  C   UNL     1      48.633   6.705  16.909  0.00  0.00    +0.000 C 
ATOM      8  O   UNL     1      48.602   7.832  17.401  0.00  0.00    +0.000 OA
ATOM     25  C   UNL     1      48.205   4.205  17.192  0.00  0.00    +0.000 C 
ATOM     26  C   UNL     1      49.055   3.405  18.198  0.00  0.00    +0.000 C 
ATOM     27  N   UNL     1      48.612   3.579  19.593  0.00  0.00    +0.000 NA
ATOM     30  H   UNL     1      49.233   3.071  20.218  0.00  0.00    +0.000 HD
BRANCH   4   2
ATOM      1  C   UNL     1      50.846   4.868  21.138  0.00  0.00    +0.000 C 
ATOM      2  C   UNL     1      49.935   5.681  20.204  0.00  0.00    +0.000 C 
ATOM      3  C   UNL     1      49.822   7.095  20.792  0.00  0.00    +0.000 C 
ENDBRANCH   4   2
ENDBRANCH   9   7
ENDBRANCH  10   9
TORSDOF 5
ENDMDL
MODEL 4
REMARK VINA RESULT:    -5.941      2.034      7.225
REMARK INTER + INTRA:          -8.746
REMARK INTER:                  -8.120
REMARK INTRA:                  -0.626
REMARK UNBOUND:                -1.069
REMARK  Name = 
REMARK  7 active torsions:
REMARK  status: ('A' for Active; 'I' for Inactive)
REMARK    1  A    between atoms: C_1  and  C_2
REMARK    2  A    between atoms: C_2  and  C_3
REMARK    3  A    between atoms: C_2  and  C_4
REMARK    4  A    between atoms: C_7  and  C_9
REMARK    5  A    between atoms: C_9  and  N_10
REMARK    6  A    between atoms: C_11  and  C_12
REMARK    7  A    between atoms: C_18  and  C_19
REMARK                            x       y       z     vdW  Elec       q    Type
REMARK                         _______ _______ _______ _____ _____    ______ ____
ROOT
ATOM     10  N   UNL     1      48.082   7.007  13.521  0.00  0.00    +0.000 N 
ATOM     11  C   UNL     1      49.001   7.924  14.015  0.00  0.00    +0.000 A 
ATOM     15  C   UNL     1      49.374   7.503  15.268  0.00  0.00    +0.000 A 
ATOM     16  C   UNL     1      48.686   6.305  15.556  0.00  0.00    +0.000 A 
ATOM     17  C   UNL     1      48.627   5.454  16.664  0.00  0.00    +0.000 A 
ATOM     18  C   UNL     1      47.824   4.315  16.576  0.00  0.00    +0.000 A 
ATOM     22  C   UNL     1      47.148   4.084  15.379  0.00  0.00    +0.000 A 
ATOM     23  N   UNL     1      47.185   4.868  14.267  0.00  0.00    +0.000 NA
ATOM     24  C   UNL     1      47.928   5.983  14.433  0.00  0.00    +0.000 A 
ENDROOT
BRANCH  18  19
ATOM     19  C   UNL     1      47.661   3.359  17.698  0.00  0.00    +0.000 C 
ATOM     20  N   UNL     1      48.557   3.419  18.743  0.00  0.00    +0.000 N 
ATOM     21  O   UNL     1      46.753   2.531  17.704  0.00  0.00    +0.000 OA
ATOM     28  H   UNL     1      49.317   4.068  18.825  0.00  0.00    +0.000 HD
ATOM     29  H   UNL     1      48.402   2.763  19.497  0.00  0.00    +0.000 HD
ENDBRANCH  18  19
BRANCH  11  12
ATOM     12  C   UNL     1      49.529   9.179  13.322  0.00  0.00    +0.000 C 
ATOM     13  C   UNL     1      49.734  10.410  14.183  0.00  0.00    +0.000 C 
ATOM     14  C   UNL     1      48.637  10.397  13.175  0.00  0.00    +0.000 C 
ENDBRANCH  11  12
BRANCH  10   9
ATOM      9  C   UNL     1      47.485   6.972  12.188  0.00  0.00    +0.000 C 
BRANCH   9   7
ATOM      4  C   UNL     1      43.472   4.940  10.680  0.00  0.00    +0.000 C 
ATOM      5  C   UNL     1      43.902   6.423  10.888  0.00  0.00    +0.000 C 
ATOM      6  N   UNL     1      45.363   6.553  10.966  0.00  0.00    +0.000 N 
ATOM      7  C   UNL     1      45.962   6.928  12.171  0.00  0.00    +0.000 C 
ATOM      8  O   UNL     1      45.279   7.252  13.141  0.00  0.00    +0.000 OA
ATOM     25  C   UNL     1      46.048   6.019   9.787  0.00  0.00    +0.000 C 
ATOM     26  C   UNL     1      45.613   4.565   9.520  0.00  0.00    +0.000 C 
ATOM     27  N   UNL     1      44.149   4.403   9.466  0.00  0.00    +0.000 NA
ATOM     30  H   UNL     1      43.915   3.422   9.336  0.00  0.00    +0.000 HD
BRANCH   4   2
ATOM      1  C   UNL     1      43.200   2.601  11.741  0.00  0.00    +0.000 C 
ATOM      2  C   UNL     1      43.666   4.051  11.953  0.00  0.00    +0.000 C 
ATOM      3  C   UNL     1      42.907   4.602  13.169  0.00  0.00    +0.000 C 
ENDBRANCH   4   2
ENDBRANCH   9   7
ENDBRANCH  10   9
TORSDOF 5
ENDMDL
MODEL 5
REMARK VINA RESULT:    -5.792      1.944      2.731
REMARK INTER + INTRA:          -8.554
REMARK INTER:                  -7.588
REMARK INTRA:                  -0.966
REMARK UNBOUND:                -1.069
REMARK  Name = 
REMARK  7 active torsions:
REMARK  status: ('A' for Active; 'I' for Inactive)
REMARK    1  A    between atoms: C_1  and  C_2
REMARK    2  A    between atoms: C_2  and  C_3
REMARK    3  A    between atoms: C_2  and  C_4
REMARK    4  A    between atoms: C_7  and  C_9
REMARK    5  A    between atoms: C_9  and  N_10
REMARK    6  A    between atoms: C_11  and  C_12
REMARK    7  A    between atoms: C_18  and  C_19
REMARK                            x       y       z     vdW  Elec       q    Type
REMARK                         _______ _______ _______ _____ _____    ______ ____
ROOT
ATOM     10  N   UNL     1      47.678   7.015  13.636  0.00  0.00    +0.000 N 
ATOM     11  C   UNL     1      48.401   7.740  12.697  0.00  0.00    +0.000 A 
ATOM     15  C   UNL     1      47.869   7.464  11.461  0.00  0.00    +0.000 A 
ATOM     16  C   UNL     1      46.796   6.563  11.631  0.00  0.00    +0.000 A 
ATOM     17  C   UNL     1      45.923   5.907  10.758  0.00  0.00    +0.000 A 
ATOM     18  C   UNL     1      44.944   5.077  11.307  0.00  0.00    +0.000 A 
ATOM     22  C   UNL     1      44.884   4.971  12.696  0.00  0.00    +0.000 A 
ATOM     23  N   UNL     1      45.696   5.599  13.590  0.00  0.00    +0.000 NA
ATOM     24  C   UNL     1      46.657   6.339  12.998  0.00  0.00    +0.000 A 
ENDROOT
BRANCH  18  19
ATOM     19  C   UNL     1      43.984   4.308  10.478  0.00  0.00    +0.000 C 
ATOM     20  N   UNL     1      44.052   4.442   9.108  0.00  0.00    +0.000 N 
ATOM     21  O   UNL     1      43.147   3.570  10.990  0.00  0.00    +0.000 OA
ATOM     28  H   UNL     1      44.710   5.011   8.608  0.00  0.00    +0.000 HD
ATOM     29  H   UNL     1      43.394   3.889   8.576  0.00  0.00    +0.000 HD
ENDBRANCH  18  19
BRANCH  11  12
ATOM     12  C   UNL     1      49.573   8.686  12.952  0.00  0.00    +0.000 C 
ATOM     13  C   UNL     1      50.724   8.641  11.966  0.00  0.00    +0.000 C 
ATOM     14  C   UNL     1      50.926   8.126  13.349  0.00  0.00    +0.000 C 
ENDBRANCH  11  12
BRANCH  10   9
ATOM      9  C   UNL     1      47.802   7.066  15.091  0.00  0.00    +0.000 C 
BRANCH   9   7
ATOM      4  C   UNL     1      50.247   5.258  18.732  0.00  0.00    +0.000 C 
ATOM      5  C   UNL     1      50.427   5.182  17.185  0.00  0.00    +0.000 C 
ATOM      6  N   UNL     1      49.670   6.241  16.505  0.00  0.00    +0.000 N 
ATOM      7  C   UNL     1      48.575   5.906  15.706  0.00  0.00    +0.000 C 
ATOM      8  O   UNL     1      48.296   4.729  15.480  0.00  0.00    +0.000 OA
ATOM     25  C   UNL     1      50.031   7.586  16.961  0.00  0.00    +0.000 C 
ATOM     26  C   UNL     1      49.911   7.687  18.494  0.00  0.00    +0.000 C 
ATOM     27  N   UNL     1      50.638   6.618  19.201  0.00  0.00    +0.000 NA
ATOM     30  H   UNL     1      50.488   6.702  20.203  0.00  0.00    +0.000 HD
BRANCH   4   2
ATOM      1  C   UNL     1      48.723   4.733  20.749  0.00  0.00    +0.000 C 
ATOM      2  C   UNL     1      48.830   4.809  19.218  0.00  0.00    +0.000 C 
ATOM      3  C   UNL     1      48.433   3.433  18.663  0.00  0.00    +0.000 C 
ENDBRANCH   4   2
ENDBRANCH   9   7
ENDBRANCH  10   9
TORSDOF 5
ENDMDL
MODEL 6
REMARK VINA RESULT:    -5.777      2.269      3.470
REMARK INTER + INTRA:          -8.535
REMARK INTER:                  -7.803
REMARK INTRA:                  -0.733
REMARK UNBOUND:                -1.069
REMARK  Name = 
REMARK  7 active torsions:
REMARK  status: ('A' for Active; 'I' for Inactive)
REMARK    1  A    between atoms: C_1  and  C_2
REMARK    2  A    between atoms: C_2  and  C_3
REMARK    3  A    between atoms: C_2  and  C_4
REMARK    4  A    between atoms: C_7  and  C_9
REMARK    5  A    between atoms: C_9  and  N_10
REMARK    6  A    between atoms: C_11  and  C_12
REMARK    7  A    between atoms: C_18  and  C_19
REMARK                            x       y       z     vdW  Elec       q    Type
REMARK                         _______ _______ _______ _____ _____    ______ ____
ROOT
ATOM     10  N   UNL     1      48.124   7.464  14.016  0.00  0.00    +0.000 N 
ATOM     11  C   UNL     1      48.510   8.221  12.917  0.00  0.00    +0.000 A 
ATOM     15  C   UNL     1      47.915   7.675  11.806  0.00  0.00    +0.000 A 
ATOM     16  C   UNL     1      47.140   6.569  12.217  0.00  0.00    +0.000 A 
ATOM     17  C   UNL     1      46.361   5.619  11.551  0.00  0.00    +0.000 A 
ATOM     18  C   UNL     1      45.707   4.651  12.314  0.00  0.00    +0.000 A 
ATOM     22  C   UNL     1      45.854   4.705  13.699  0.00  0.00    +0.000 A 
ATOM     23  N   UNL     1      46.583   5.615  14.399  0.00  0.00    +0.000 NA
ATOM     24  C   UNL     1      47.239   6.487  13.604  0.00  0.00    +0.000 A 
ENDROOT
BRANCH  18  19
ATOM     19  C   UNL     1      44.879   3.577  11.712  0.00  0.00    +0.000 C 
ATOM     20  N   UNL     1      44.244   2.692  12.555  0.00  0.00    +0.000 N 
ATOM     21  O   UNL     1      44.757   3.472  10.494  0.00  0.00    +0.000 OA
ATOM     28  H   UNL     1      44.279   2.712  13.558  0.00  0.00    +0.000 HD
ATOM     29  H   UNL     1      43.675   1.986  12.109  0.00  0.00    +0.000 HD
ENDBRANCH  18  19
BRANCH  11  12
ATOM     12  C   UNL     1      49.423   9.446  12.905  0.00  0.00    +0.000 C 
ATOM     13  C   UNL     1      50.182   9.731  11.624  0.00  0.00    +0.000 C 
ATOM     14  C   UNL     1      50.928   9.270  12.828  0.00  0.00    +0.000 C 
ENDBRANCH  11  12
BRANCH  10   9
ATOM      9  C   UNL     1      48.415   7.721  15.424  0.00  0.00    +0.000 C 
BRANCH   9   7
ATOM      4  C   UNL     1      49.279   4.209  18.494  0.00  0.00    +0.000 C 
ATOM      5  C   UNL     1      50.074   5.486  18.085  0.00  0.00    +0.000 C 
ATOM      6  N   UNL     1      49.208   6.465  17.416  0.00  0.00    +0.000 N 
ATOM      7  C   UNL     1      49.398   6.746  16.061  0.00  0.00    +0.000 C 
ATOM      8  O   UNL     1      50.347   6.264  15.444  0.00  0.00    +0.000 OA
ATOM     25  C   UNL     1      48.055   6.860  18.229  0.00  0.00    +0.000 C 
ATOM     26  C   UNL     1      47.270   5.619  18.693  0.00  0.00    +0.000 C 
ATOM     27  N   UNL     1      48.121   4.607  19.343  0.00  0.00    +0.000 NA
ATOM     30  H   UNL     1      47.564   3.791  19.585  0.00  0.00    +0.000 HD
BRANCH   4   2
ATOM      1  C   UNL     1      47.502   2.658  17.443  0.00  0.00    +0.000 C 
ATOM      2  C   UNL     1      48.888   3.304  17.280  0.00  0.00    +0.000 C 
ATOM      3  C   UNL     1      49.897   2.169  17.049  0.00  0.00    +0.000 C 
ENDBRANCH   4   2
ENDBRANCH   9   7
ENDBRANCH  10   9
TORSDOF 5
ENDMDL
MODEL 7
REMARK VINA RESULT:    -5.745      2.279      3.686
REMARK INTER + INTRA:          -8.494
REMARK INTER:                  -7.513
REMARK INTRA:                  -0.981
REMARK UNBOUND:                -1.069
REMARK  Name = 
REMARK  7 active torsions:
REMARK  status: ('A' for Active; 'I' for Inactive)
REMARK    1  A    between atoms: C_1  and  C_2
REMARK    2  A    between atoms: C_2  and  C_3
REMARK    3  A    between atoms: C_2  and  C_4
REMARK    4  A    between atoms: C_7  and  C_9
REMARK    5  A    between atoms: C_9  and  N_10
REMARK    6  A    between atoms: C_11  and  C_12
REMARK    7  A    between atoms: C_18  and  C_19
REMARK                            x       y       z     vdW  Elec       q    Type
REMARK                         _______ _______ _______ _____ _____    ______ ____
ROOT
ATOM     10  N   UNL     1      47.085   5.970  14.167  0.00  0.00    +0.000 N 
ATOM     11  C   UNL     1      47.326   4.884  14.998  0.00  0.00    +0.000 A 
ATOM     15  C   UNL     1      46.787   3.773  14.396  0.00  0.00    +0.000 A 
ATOM     16  C   UNL     1      46.209   4.169  13.171  0.00  0.00    +0.000 A 
ATOM     17  C   UNL     1      45.497   3.507  12.166  0.00  0.00    +0.000 A 
ATOM     18  C   UNL     1      45.085   4.246  11.056  0.00  0.00    +0.000 A 
ATOM     22  C   UNL     1      45.432   5.595  11.006  0.00  0.00    +0.000 A 
ATOM     23  N   UNL     1      46.137   6.283  11.944  0.00  0.00    +0.000 NA
ATOM     24  C   UNL     1      46.454   5.532  13.020  0.00  0.00    +0.000 A 
ENDROOT
BRANCH  18  19
ATOM     19  C   UNL     1      44.298   3.656   9.945  0.00  0.00    +0.000 C 
ATOM     20  N   UNL     1      44.149   4.390   8.789  0.00  0.00    +0.000 N 
ATOM     21  O   UNL     1      43.789   2.542  10.046  0.00  0.00    +0.000 OA
ATOM     28  H   UNL     1      44.539   5.298   8.618  0.00  0.00    +0.000 HD
ATOM     29  H   UNL     1      43.621   3.947   8.049  0.00  0.00    +0.000 HD
ENDBRANCH  18  19
BRANCH  11  12
ATOM     12  C   UNL     1      48.058   4.881  16.339  0.00  0.00    +0.000 C 
ATOM     13  C   UNL     1      48.061   3.583  17.123  0.00  0.00    +0.000 C 
ATOM     14  C   UNL     1      47.274   4.741  17.630  0.00  0.00    +0.000 C 
ENDBRANCH  11  12
BRANCH  10   9
ATOM      9  C   UNL     1      47.561   7.342  14.330  0.00  0.00    +0.000 C 
BRANCH   9   7
ATOM      4  C   UNL     1      50.782   7.797  17.783  0.00  0.00    +0.000 C 
ATOM      5  C   UNL     1      50.651   8.420  16.360  0.00  0.00    +0.000 C 
ATOM      6  N   UNL     1      49.280   8.299  15.847  0.00  0.00    +0.000 N 
ATOM      7  C   UNL     1      49.019   7.464  14.758  0.00  0.00    +0.000 C 
ATOM      8  O   UNL     1      49.935   6.907  14.156  0.00  0.00    +0.000 OA
ATOM     25  C   UNL     1      48.283   8.912  16.728  0.00  0.00    +0.000 C 
ATOM     26  C   UNL     1      48.412   8.355  18.159  0.00  0.00    +0.000 C 
ATOM     27  N   UNL     1      49.785   8.437  18.688  0.00  0.00    +0.000 NA
ATOM     30  H   UNL     1      49.825   8.015  19.612  0.00  0.00    +0.000 HD
BRANCH   4   2
ATOM      1  C   UNL     1      50.777   5.642  19.206  0.00  0.00    +0.000 C 
ATOM      2  C   UNL     1      50.723   6.234  17.788  0.00  0.00    +0.000 C 
ATOM      3  C   UNL     1      51.871   5.605  16.986  0.00  0.00    +0.000 C 
ENDBRANCH   4   2
ENDBRANCH   9   7
ENDBRANCH  10   9
TORSDOF 5
ENDMDL
MODEL 8
REMARK VINA RESULT:    -5.682      2.923      3.915
REMARK INTER + INTRA:          -8.412
REMARK INTER:                  -7.267
REMARK INTRA:                  -1.145
REMARK UNBOUND:                -1.069
REMARK  Name = 
REMARK  7 active torsions:
REMARK  status: ('A' for Active; 'I' for Inactive)
REMARK    1  A    between atoms: C_1  and  C_2
REMARK    2  A    between atoms: C_2  and  C_3
REMARK    3  A    between atoms: C_2  and  C_4
REMARK    4  A    between atoms: C_7  and  C_9
REMARK    5  A    between atoms: C_9  and  N_10
REMARK    6  A    between atoms: C_11  and  C_12
REMARK    7  A    between atoms: C_18  and  C_19
REMARK                            x       y       z     vdW  Elec       q    Type
REMARK                         _______ _______ _______ _____ _____    ______ ____
ROOT
ATOM     10  N   UNL     1      47.698   7.065  13.305  0.00  0.00    +0.000 N 
ATOM     11  C   UNL     1      47.090   8.295  13.085  0.00  0.00    +0.000 A 
ATOM     15  C   UNL     1      45.798   8.053  12.686  0.00  0.00    +0.000 A 
ATOM     16  C   UNL     1      45.594   6.656  12.665  0.00  0.00    +0.000 A 
ATOM     17  C   UNL     1      44.524   5.830  12.313  0.00  0.00    +0.000 A 
ATOM     18  C   UNL     1      44.688   4.449  12.440  0.00  0.00    +0.000 A 
ATOM     22  C   UNL     1      45.904   3.981  12.936  0.00  0.00    +0.000 A 
ATOM     23  N   UNL     1      46.970   4.740  13.310  0.00  0.00    +0.000 NA
ATOM     24  C   UNL     1      46.773   6.060  13.107  0.00  0.00    +0.000 A 
ENDROOT
BRANCH  18  19
ATOM     19  C   UNL     1      43.632   3.476  12.067  0.00  0.00    +0.000 C 
ATOM     20  N   UNL     1      43.742   2.185  12.533  0.00  0.00    +0.000 N 
ATOM     21  O   UNL     1      42.682   3.805  11.362  0.00  0.00    +0.000 OA
ATOM     28  H   UNL     1      44.474   1.835  13.121  0.00  0.00    +0.000 HD
ATOM     29  H   UNL     1      42.994   1.555  12.272  0.00  0.00    +0.000 HD
ENDBRANCH  18  19
BRANCH  11  12
ATOM     12  C   UNL     1      47.707   9.682  13.250  0.00  0.00    +0.000 C 
ATOM     13  C   UNL     1      47.389  10.712  12.184  0.00  0.00    +0.000 C 
ATOM     14  C   UNL     1      48.770  10.160  12.278  0.00  0.00    +0.000 C 
ENDBRANCH  11  12
BRANCH  10   9
ATOM      9  C   UNL     1      49.033   6.814  13.842  0.00  0.00    +0.000 C 
BRANCH   9   7
ATOM      4  C   UNL     1      49.703   9.245  17.860  0.00  0.00    +0.000 C 
ATOM      5  C   UNL     1      50.165   7.837  17.377  0.00  0.00    +0.000 C 
ATOM      6  N   UNL     1      50.063   7.710  15.918  0.00  0.00    +0.000 N 
ATOM      7  C   UNL     1      49.124   6.836  15.363  0.00  0.00    +0.000 C 
ATOM      8  O   UNL     1      48.453   6.094  16.078  0.00  0.00    +0.000 OA
ATOM     25  C   UNL     1      50.825   8.733  15.199  0.00  0.00    +0.000 C 
ATOM     26  C   UNL     1      50.429  10.142  15.684  0.00  0.00    +0.000 C 
ATOM     27  N   UNL     1      50.496  10.287  17.149  0.00  0.00    +0.000 NA
ATOM     30  H   UNL     1      50.180  11.215  17.418  0.00  0.00    +0.000 HD
BRANCH   4   2
ATOM      1  C   UNL     1      47.740  10.912  18.048  0.00  0.00    +0.000 C 
ATOM      2  C   UNL     1      48.157   9.459  17.768  0.00  0.00    +0.000 C 
ATOM      3  C   UNL     1      47.385   8.565  18.750  0.00  0.00    +0.000 C 
ENDBRANCH   4   2
ENDBRANCH   9   7
ENDBRANCH  10   9
TORSDOF 5
ENDMDL
MODEL 9
REMARK VINA RESULT:    -5.664      2.167      4.338
REMARK INTER + INTRA:          -8.389
REMARK INTER:                  -7.487
REMARK INTRA:                  -0.901
REMARK UNBOUND:                -1.069
REMARK  Name = 
REMARK  7 active torsions:
REMARK  status: ('A' for Active; 'I' for Inactive)
REMARK    1  A    between atoms: C_1  and  C_2
REMARK    2  A    between atoms: C_2  and  C_3
REMARK    3  A    between atoms: C_2  and  C_4
REMARK    4  A    between atoms: C_7  and  C_9
REMARK    5  A    between atoms: C_9  and  N_10
REMARK    6  A    between atoms: C_11  and  C_12
REMARK    7  A    between atoms: C_18  and  C_19
REMARK                            x       y       z     vdW  Elec       q    Type
REMARK                         _______ _______ _______ _____ _____    ______ ____
ROOT
ATOM     10  N   UNL     1      47.192   4.535  14.258  0.00  0.00    +0.000 N 
ATOM     11  C   UNL     1      46.308   4.545  13.186  0.00  0.00    +0.000 A 
ATOM     15  C   UNL     1      46.317   5.811  12.654  0.00  0.00    +0.000 A 
ATOM     16  C   UNL     1      47.223   6.598  13.396  0.00  0.00    +0.000 A 
ATOM     17  C   UNL     1      47.616   7.939  13.354  0.00  0.00    +0.000 A 
ATOM     18  C   UNL     1      48.581   8.371  14.266  0.00  0.00    +0.000 A 
ATOM     22  C   UNL     1      49.111   7.431  15.148  0.00  0.00    +0.000 A 
ATOM     23  N   UNL     1      48.779   6.114  15.220  0.00  0.00    +0.000 NA
ATOM     24  C   UNL     1      47.800   5.770  14.356  0.00  0.00    +0.000 A 
ENDROOT
BRANCH  18  19
ATOM     19  C   UNL     1      49.051   9.777  14.332  0.00  0.00    +0.000 C 
ATOM     20  N   UNL     1      48.186  10.773  13.938  0.00  0.00    +0.000 N 
ATOM     21  O   UNL     1      50.180  10.053  14.728  0.00  0.00    +0.000 OA
ATOM     28  H   UNL     1      47.246  10.639  13.614  0.00  0.00    +0.000 HD
ATOM     29  H   UNL     1      48.536  11.719  14.015  0.00  0.00    +0.000 HD
ENDBRANCH  18  19
BRANCH  11  12
ATOM     12  C   UNL     1      45.467   3.383  12.661  0.00  0.00    +0.000 C 
ATOM     13  C   UNL     1      44.710   3.607  11.367  0.00  0.00    +0.000 C 
ATOM     14  C   UNL     1      43.954   3.489  12.645  0.00  0.00    +0.000 C 
ENDBRANCH  11  12
BRANCH  10   9
ATOM      9  C   UNL     1      47.600   3.388  15.067  0.00  0.00    +0.000 C 
BRANCH   9   7
ATOM      4  C   UNL     1      49.297   4.404  19.378  0.00  0.00    +0.000 C 
ATOM      5  C   UNL     1      48.292   3.334  18.854  0.00  0.00    +0.000 C 
ATOM      6  N   UNL     1      48.413   3.151  17.402  0.00  0.00    +0.000 N 
ATOM      7  C   UNL     1      47.369   3.549  16.564  0.00  0.00    +0.000 C 
ATOM      8  O   UNL     1      46.306   3.955  17.031  0.00  0.00    +0.000 OA
ATOM     25  C   UNL     1      49.766   2.779  16.983  0.00  0.00    +0.000 C 
ATOM     26  C   UNL     1      50.797   3.789  17.524  0.00  0.00    +0.000 C 
ATOM     27  N   UNL     1      50.678   4.013  18.975  0.00  0.00    +0.000 NA
ATOM     30  H   UNL     1      51.345   4.721  19.271  0.00  0.00    +0.000 HD
BRANCH   4   2
ATOM      1  C   UNL     1      49.891   6.912  19.546  0.00  0.00    +0.000 C 
ATOM      2  C   UNL     1      48.916   5.867  18.978  0.00  0.00    +0.000 C 
ATOM      3  C   UNL     1      47.507   6.252  19.452  0.00  0.00    +0.000 C 
ENDBRANCH   4   2
ENDBRANCH   9   7
ENDBRANCH  10   9
TORSDOF 5
ENDMDL
