MODEL 1
REMARK VINA RESULT:    -7.696      0.000      0.000
REMARK INTER + INTRA:         -11.354
REMARK INTER:                 -10.846
REMARK INTRA:                  -0.508
REMARK UNBOUND:                -0.508
REMARK  Name = 
REMARK  9 active torsions:
REMARK  status: ('A' for Active; 'I' for Inactive)
REMARK    1  A    between atoms: C_1  and  C_2
REMARK    2  A    between atoms: C_2  and  N_3
REMARK    3  A    between atoms: N_3  and  C_4
REMARK    4  A    between atoms: N_3  and  C_6
REMARK    5  A    between atoms: C_4  and  C_5
REMARK    6  A    between atoms: C_6  and  C_7
REMARK    7  A    between atoms: C_10  and  C_11
REMARK    8  A    between atoms: C_11  and  N_12
REMARK    9  A    between atoms: C_13  and  C_15
REMARK                            x       y       z     vdW  Elec       q    Type
REMARK                         _______ _______ _______ _____ _____    ______ ____
ROOT
ATOM     12  N   UNL     1      45.368   5.828  13.574  0.00  0.00    +0.000 N 
ATOM     13  C   UNL     1      46.316   4.922  13.959  0.00  0.00    +0.000 C 
ATOM     14  O   UNL     1      46.252   3.720  13.690  0.00  0.00    +0.000 OA
ATOM     27  H   UNL     1      45.271   6.659  14.153  0.00  0.00    +0.000 HD
ENDROOT
BRANCH  13  15
ATOM     15  C   UNL     1      47.466   5.491  14.666  0.00  0.00    +0.000 A 
ATOM     16  C   UNL     1      48.216   6.515  14.103  0.00  0.00    +0.000 A 
ATOM     17  S   UNL     1      49.470   7.071  15.123  0.00  0.00    +0.000 S 
ATOM     18  C   UNL     1      49.075   5.935  16.319  0.00  0.00    +0.000 A 
ATOM     19  N   UNL     1      49.789   5.850  17.480  0.00  0.00    +0.000 NA
ATOM     20  C   UNL     1      49.406   4.906  18.281  0.00  0.00    +0.000 A 
ATOM     21  N   UNL     1      48.362   4.042  18.035  0.00  0.00    +0.000 N 
ATOM     22  C   UNL     1      47.572   4.143  16.928  0.00  0.00    +0.000 A 
ATOM     23  O   UNL     1      46.574   3.439  16.788  0.00  0.00    +0.000 OA
ATOM     24  C   UNL     1      47.995   5.157  15.967  0.00  0.00    +0.000 A 
ATOM     28  H   UNL     1      48.093   3.355  18.715  0.00  0.00    +0.000 HD
ENDBRANCH  13  15
BRANCH  12  11
ATOM     11  C   UNL     1      44.205   5.456  12.825  0.00  0.00    +0.000 C 
BRANCH  11  10
ATOM      7  C   UNL     1      45.169   3.955   8.866  0.00  0.00    +0.000 A 
ATOM      8  C   UNL     1      45.726   5.152   9.307  0.00  0.00    +0.000 A 
ATOM      9  C   UNL     1      45.405   5.670  10.572  0.00  0.00    +0.000 A 
ATOM     10  C   UNL     1      44.514   4.989  11.420  0.00  0.00    +0.000 A 
ATOM     25  C   UNL     1      43.919   3.816  10.947  0.00  0.00    +0.000 A 
ATOM     26  C   UNL     1      44.238   3.297   9.690  0.00  0.00    +0.000 A 
BRANCH   7   6
ATOM      6  C   UNL     1      45.625   3.309   7.570  0.00  0.00    +0.000 C 
BRANCH   6   3
ATOM      3  N   UNL     1      46.763   2.374   7.739  0.00  0.00    +0.000 NA
BRANCH   3   4
ATOM      4  C   UNL     1      47.622   2.368   6.538  0.00  0.00    +0.000 C 
ATOM      5  C   UNL     1      46.976   2.885   5.258  0.00  0.00    +0.000 C 
ENDBRANCH   3   4
BRANCH   3   2
ATOM      1  C   UNL     1      46.765  -0.135   7.301  0.00  0.00    +0.000 C 
ATOM      2  C   UNL     1      46.235   1.044   8.103  0.00  0.00    +0.000 C 
ENDBRANCH   3   2
ENDBRANCH   6   3
ENDBRANCH   7   6
ENDBRANCH  11  10
ENDBRANCH  12  11
TORSDOF 7
ENDMDL
MODEL 2
REMARK VINA RESULT:    -7.110      2.097      3.378
REMARK INTER + INTRA:         -10.528
REMARK INTER:                  -9.113
REMARK INTRA:                  -1.415
REMARK UNBOUND:                -0.508
REMARK  Name = 
REMARK  9 active torsions:
REMARK  status: ('A' for Active; 'I' for Inactive)
REMARK    1  A    between atoms: C_1  and  C_2
REMARK    2  A    between atoms: C_2  and  N_3
REMARK    3  A    between atoms: N_3  and  C_4
REMARK    4  A    between atoms: N_3  and  C_6
REMARK    5  A    between atoms: C_4  and  C_5
REMARK    6  A    between atoms: C_6  and  C_7
REMARK    7  A    between atoms: C_10  and  C_11
REMARK    8  A    between atoms: C_11  and  N_12
REMARK    9  A    between atoms: C_13  and  C_15
REMARK                            x       y       z     vdW  Elec       q    Type
REMARK                         _______ _______ _______ _____ _____    ______ ____
ROOT
ATOM     12  N   UNL     1      47.606   7.544  14.707  0.00  0.00    +0.000 N 
ATOM     13  C   UNL     1      48.834   6.950  14.787  0.00  0.00    +0.000 C 
ATOM     14  O   UNL     1      49.676   7.013  13.888  0.00  0.00    +0.000 OA
ATOM     27  H   UNL     1      46.860   7.123  15.257  0.00  0.00    +0.000 HD
ENDROOT
BRANCH  13  15
ATOM     15  C   UNL     1      49.116   6.278  16.058  0.00  0.00    +0.000 A 
ATOM     16  C   UNL     1      50.119   6.737  16.901  0.00  0.00    +0.000 A 
ATOM     17  S   UNL     1      50.235   5.847  18.356  0.00  0.00    +0.000 S 
ATOM     18  C   UNL     1      48.986   4.802  17.881  0.00  0.00    +0.000 A 
ATOM     19  N   UNL     1      48.585   3.767  18.676  0.00  0.00    +0.000 NA
ATOM     20  C   UNL     1      47.655   3.024  18.166  0.00  0.00    +0.000 A 
ATOM     21  N   UNL     1      47.074   3.226  16.934  0.00  0.00    +0.000 N 
ATOM     22  C   UNL     1      47.385   4.293  16.144  0.00  0.00    +0.000 A 
ATOM     23  O   UNL     1      46.769   4.520  15.104  0.00  0.00    +0.000 OA
ATOM     24  C   UNL     1      48.468   5.131  16.648  0.00  0.00    +0.000 A 
ATOM     28  H   UNL     1      46.331   2.633  16.613  0.00  0.00    +0.000 HD
ENDBRANCH  13  15
BRANCH  12  11
ATOM     11  C   UNL     1      47.184   8.292  13.560  0.00  0.00    +0.000 C 
BRANCH  11  10
ATOM      7  C   UNL     1      44.854   5.834  10.842  0.00  0.00    +0.000 A 
ATOM      8  C   UNL     1      46.238   5.898  10.704  0.00  0.00    +0.000 A 
ATOM      9  C   UNL     1      47.008   6.709  11.554  0.00  0.00    +0.000 A 
ATOM     10  C   UNL     1      46.395   7.473  12.562  0.00  0.00    +0.000 A 
ATOM     25  C   UNL     1      45.001   7.445  12.658  0.00  0.00    +0.000 A 
ATOM     26  C   UNL     1      44.233   6.637  11.816  0.00  0.00    +0.000 A 
BRANCH   7   6
ATOM      6  C   UNL     1      44.031   4.848  10.034  0.00  0.00    +0.000 C 
BRANCH   6   3
ATOM      3  N   UNL     1      44.367   3.429  10.305  0.00  0.00    +0.000 NA
BRANCH   3   4
ATOM      4  C   UNL     1      44.471   2.663   9.047  0.00  0.00    +0.000 C 
ATOM      5  C   UNL     1      45.177   3.371   7.896  0.00  0.00    +0.000 C 
ENDBRANCH   3   4
BRANCH   3   2
ATOM      1  C   UNL     1      43.718   3.031  12.736  0.00  0.00    +0.000 C 
ATOM      2  C   UNL     1      43.382   2.882  11.259  0.00  0.00    +0.000 C 
ENDBRANCH   3   2
ENDBRANCH   6   3
ENDBRANCH   7   6
ENDBRANCH  11  10
ENDBRANCH  12  11
TORSDOF 7
ENDMDL
MODEL 3
REMARK VINA RESULT:    -7.023      3.959      8.944
REMARK INTER + INTRA:         -10.405
REMARK INTER:                  -9.498
REMARK INTRA:                  -0.907
REMARK UNBOUND:                -0.508
REMARK  Name = 
REMARK  9 active torsions:
REMARK  status: ('A' for Active; 'I' for Inactive)
REMARK    1  A    between atoms: C_1  and  C_2
REMARK    2  A    between atoms: C_2  and  N_3
REMARK    3  A    between atoms: N_3  and  C_4
REMARK    4  A    between atoms: N_3  and  C_6
REMARK    5  A    between atoms: C_4  and  C_5
REMARK    6  A    between atoms: C_6  and  C_7
REMARK    7  A    between atoms: C_10  and  C_11
REMARK    8  A    between atoms: C_11  and  N_12
REMARK    9  A    between atoms: C_13  and  C_15
REMARK                            x       y       z     vdW  Elec       q    Type
REMARK                         _______ _______ _______ _____ _____    ______ ____
ROOT
ATOM     12  N   UNL     1      46.777   4.555  15.766  0.00  0.00    +0.000 N 
ATOM     13  C   UNL     1      46.772   4.254  14.433  0.00  0.00    +0.000 C 
ATOM     14  O   UNL     1      47.154   3.172  13.982  0.00  0.00    +0.000 OA
ATOM     27  H   UNL     1      46.850   5.541  16.010  0.00  0.00    +0.000 HD
ENDROOT
BRANCH  13  15
ATOM     15  C   UNL     1      46.212   5.294  13.565  0.00  0.00    +0.000 A 
ATOM     16  C   UNL     1      46.917   6.460  13.300  0.00  0.00    +0.000 A 
ATOM     17  S   UNL     1      46.108   7.504  12.216  0.00  0.00    +0.000 S 
ATOM     18  C   UNL     1      44.781   6.453  12.107  0.00  0.00    +0.000 A 
ATOM     19  N   UNL     1      43.693   6.760  11.341  0.00  0.00    +0.000 NA
ATOM     20  C   UNL     1      42.736   5.889  11.390  0.00  0.00    +0.000 A 
ATOM     21  N   UNL     1      42.768   4.725  12.127  0.00  0.00    +0.000 N 
ATOM     22  C   UNL     1      43.865   4.340  12.839  0.00  0.00    +0.000 A 
ATOM     23  O   UNL     1      43.916   3.242  13.391  0.00  0.00    +0.000 OA
ATOM     24  C   UNL     1      44.952   5.314  12.861  0.00  0.00    +0.000 A 
ATOM     28  H   UNL     1      42.006   4.074  12.091  0.00  0.00    +0.000 HD
ENDBRANCH  13  15
BRANCH  12  11
ATOM     11  C   UNL     1      47.236   3.635  16.763  0.00  0.00    +0.000 C 
BRANCH  11  10
ATOM      7  C   UNL     1      51.500   3.691  17.587  0.00  0.00    +0.000 A 
ATOM      8  C   UNL     1      50.806   4.890  17.445  0.00  0.00    +0.000 A 
ATOM      9  C   UNL     1      49.433   4.895  17.150  0.00  0.00    +0.000 A 
ATOM     10  C   UNL     1      48.731   3.687  16.992  0.00  0.00    +0.000 A 
ATOM     25  C   UNL     1      49.446   2.490  17.081  0.00  0.00    +0.000 A 
ATOM     26  C   UNL     1      50.812   2.482  17.378  0.00  0.00    +0.000 A 
BRANCH   7   6
ATOM      6  C   UNL     1      52.943   3.672  18.055  0.00  0.00    +0.000 C 
BRANCH   6   3
ATOM      3  N   UNL     1      53.180   2.781  19.217  0.00  0.00    +0.000 NA
BRANCH   3   4
ATOM      4  C   UNL     1      53.495   3.567  20.427  0.00  0.00    +0.000 C 
ATOM      5  C   UNL     1      52.394   4.503  20.916  0.00  0.00    +0.000 C 
ENDBRANCH   3   4
BRANCH   3   2
ATOM      1  C   UNL     1      53.803   0.706  17.879  0.00  0.00    +0.000 C 
ATOM      2  C   UNL     1      54.218   1.796  18.857  0.00  0.00    +0.000 C 
ENDBRANCH   3   2
ENDBRANCH   6   3
ENDBRANCH   7   6
ENDBRANCH  11  10
ENDBRANCH  12  11
TORSDOF 7
ENDMDL
MODEL 4
REMARK VINA RESULT:    -7.018      1.508      2.036
REMARK INTER + INTRA:         -10.398
REMARK INTER:                  -9.884
REMARK INTRA:                  -0.514
REMARK UNBOUND:                -0.508
REMARK  Name = 
REMARK  9 active torsions:
REMARK  status: ('A' for Active; 'I' for Inactive)
REMARK    1  A    between atoms: C_1  and  C_2
REMARK    2  A    between atoms: C_2  and  N_3
REMARK    3  A    between atoms: N_3  and  C_4
REMARK    4  A    between atoms: N_3  and  C_6
REMARK    5  A    between atoms: C_4  and  C_5
REMARK    6  A    between atoms: C_6  and  C_7
REMARK    7  A    between atoms: C_10  and  C_11
REMARK    8  A    between atoms: C_11  and  N_12
REMARK    9  A    between atoms: C_13  and  C_15
REMARK                            x       y       z     vdW  Elec       q    Type
REMARK                         _______ _______ _______ _____ _____    ______ ____
ROOT
ATOM     12  N   UNL     1      46.922   7.031  14.000  0.00  0.00    +0.000 N 
ATOM     13  C   UNL     1      48.220   6.621  14.128  0.00  0.00    +0.000 C 
ATOM     14  O   UNL     1      49.020   6.608  13.190  0.00  0.00    +0.000 OA
ATOM     27  H   UNL     1      46.254   6.638  14.660  0.00  0.00    +0.000 HD
ENDROOT
BRANCH  13  15
ATOM     15  C   UNL     1      48.624   6.257  15.488  0.00  0.00    +0.000 A 
ATOM     16  C   UNL     1      49.488   7.062  16.217  0.00  0.00    +0.000 A 
ATOM     17  S   UNL     1      49.776   6.483  17.799  0.00  0.00    +0.000 S 
ATOM     18  C   UNL     1      48.794   5.125  17.539  0.00  0.00    +0.000 A 
ATOM     19  N   UNL     1      48.619   4.180  18.509  0.00  0.00    +0.000 NA
ATOM     20  C   UNL     1      47.882   3.174  18.156  0.00  0.00    +0.000 A 
ATOM     21  N   UNL     1      47.289   3.029  16.921  0.00  0.00    +0.000 N 
ATOM     22  C   UNL     1      47.370   3.986  15.953  0.00  0.00    +0.000 A 
ATOM     23  O   UNL     1      46.735   3.890  14.904  0.00  0.00    +0.000 OA
ATOM     24  C   UNL     1      48.234   5.115  16.281  0.00  0.00    +0.000 A 
ATOM     28  H   UNL     1      46.700   2.242  16.724  0.00  0.00    +0.000 HD
ENDBRANCH  13  15
BRANCH  12  11
ATOM     11  C   UNL     1      46.373   7.476  12.754  0.00  0.00    +0.000 C 
BRANCH  11  10
ATOM      7  C   UNL     1      45.021   4.123  10.348  0.00  0.00    +0.000 A 
ATOM      8  C   UNL     1      45.655   5.202   9.738  0.00  0.00    +0.000 A 
ATOM      9  C   UNL     1      46.075   6.309  10.493  0.00  0.00    +0.000 A 
ATOM     10  C   UNL     1      45.862   6.351  11.882  0.00  0.00    +0.000 A 
ATOM     25  C   UNL     1      45.176   5.289  12.477  0.00  0.00    +0.000 A 
ATOM     26  C   UNL     1      44.760   4.184  11.729  0.00  0.00    +0.000 A 
BRANCH   7   6
ATOM      6  C   UNL     1      44.703   2.859   9.571  0.00  0.00    +0.000 C 
BRANCH   6   3
ATOM      3  N   UNL     1      45.724   2.514   8.552  0.00  0.00    +0.000 NA
BRANCH   3   4
ATOM      4  C   UNL     1      45.501   3.275   7.306  0.00  0.00    +0.000 C 
ATOM      5  C   UNL     1      46.758   3.703   6.556  0.00  0.00    +0.000 C 
ENDBRANCH   3   4
BRANCH   3   2
ATOM      1  C   UNL     1      46.916   0.475   7.600  0.00  0.00    +0.000 C 
ATOM      2  C   UNL     1      45.733   1.050   8.365  0.00  0.00    +0.000 C 
ENDBRANCH   3   2
ENDBRANCH   6   3
ENDBRANCH   7   6
ENDBRANCH  11  10
ENDBRANCH  12  11
TORSDOF 7
ENDMDL
MODEL 5
REMARK VINA RESULT:    -6.993      2.073      3.118
REMARK INTER + INTRA:         -10.364
REMARK INTER:                  -9.509
REMARK INTRA:                  -0.854
REMARK UNBOUND:                -0.508
REMARK  Name = 
REMARK  9 active torsions:
REMARK  status: ('A' for Active; 'I' for Inactive)
REMARK    1  A    between atoms: C_1  and  C_2
REMARK    2  A    between atoms: C_2  and  N_3
REMARK    3  A    between atoms: N_3  and  C_4
REMARK    4  A    between atoms: N_3  and  C_6
REMARK    5  A    between atoms: C_4  and  C_5
REMARK    6  A    between atoms: C_6  and  C_7
REMARK    7  A    between atoms: C_10  and  C_11
REMARK    8  A    between atoms: C_11  and  N_12
REMARK    9  A    between atoms: C_13  and  C_15
REMARK                            x       y       z     vdW  Elec       q    Type
REMARK                         _______ _______ _______ _____ _____    ______ ____
ROOT
ATOM     12  N   UNL     1      45.896   6.479  13.336  0.00  0.00    +0.000 N 
ATOM     13  C   UNL     1      46.803   5.693  13.989  0.00  0.00    +0.000 C 
ATOM     14  O   UNL     1      46.614   4.498  14.228  0.00  0.00    +0.000 OA
ATOM     27  H   UNL     1      45.929   7.476  13.539  0.00  0.00    +0.000 HD
ENDROOT
BRANCH  13  15
ATOM     15  C   UNL     1      48.065   6.355  14.332  0.00  0.00    +0.000 A 
ATOM     16  C   UNL     1      48.586   6.277  15.616  0.00  0.00    +0.000 A 
ATOM     17  S   UNL     1      50.093   7.067  15.780  0.00  0.00    +0.000 S 
ATOM     18  C   UNL     1      50.067   7.570  14.160  0.00  0.00    +0.000 A 
ATOM     19  N   UNL     1      51.075   8.328  13.636  0.00  0.00    +0.000 NA
ATOM     20  C   UNL     1      50.901   8.679  12.401  0.00  0.00    +0.000 A 
ATOM     21  N   UNL     1      49.812   8.331  11.632  0.00  0.00    +0.000 N 
ATOM     22  C   UNL     1      48.825   7.510  12.088  0.00  0.00    +0.000 A 
ATOM     23  O   UNL     1      47.927   7.116  11.346  0.00  0.00    +0.000 OA
ATOM     24  C   UNL     1      48.947   7.130  13.492  0.00  0.00    +0.000 A 
ATOM     28  H   UNL     1      49.756   8.607  10.669  0.00  0.00    +0.000 HD
ENDBRANCH  13  15
BRANCH  12  11
ATOM     11  C   UNL     1      44.634   5.981  12.876  0.00  0.00    +0.000 C 
BRANCH  11  10
ATOM      7  C   UNL     1      45.065   3.336   9.459  0.00  0.00    +0.000 A 
ATOM      8  C   UNL     1      45.431   4.675   9.349  0.00  0.00    +0.000 A 
ATOM      9  C   UNL     1      45.273   5.554  10.433  0.00  0.00    +0.000 A 
ATOM     10  C   UNL     1      44.741   5.100  11.652  0.00  0.00    +0.000 A 
ATOM     25  C   UNL     1      44.325   3.768  11.736  0.00  0.00    +0.000 A 
ATOM     26  C   UNL     1      44.484   2.890  10.660  0.00  0.00    +0.000 A 
BRANCH   7   6
ATOM      6  C   UNL     1      45.372   2.346   8.351  0.00  0.00    +0.000 C 
BRANCH   6   3
ATOM      3  N   UNL     1      46.637   2.633   7.631  0.00  0.00    +0.000 NA
BRANCH   3   4
ATOM      4  C   UNL     1      46.368   3.300   6.341  0.00  0.00    +0.000 C 
ATOM      5  C   UNL     1      47.204   2.820   5.160  0.00  0.00    +0.000 C 
ENDBRANCH   3   4
BRANCH   3   2
ATOM      1  C   UNL     1      46.620   0.086   7.659  0.00  0.00    +0.000 C 
ATOM      2  C   UNL     1      47.407   1.380   7.508  0.00  0.00    +0.000 C 
ENDBRANCH   3   2
ENDBRANCH   6   3
ENDBRANCH   7   6
ENDBRANCH  11  10
ENDBRANCH  12  11
TORSDOF 7
ENDMDL
MODEL 6
REMARK VINA RESULT:    -6.574      3.672      8.533
REMARK INTER + INTRA:          -9.773
REMARK INTER:                  -8.788
REMARK INTRA:                  -0.985
REMARK UNBOUND:                -0.508
REMARK  Name = 
REMARK  9 active torsions:
REMARK  status: ('A' for Active; 'I' for Inactive)
REMARK    1  A    between atoms: C_1  and  C_2
REMARK    2  A    between atoms: C_2  and  N_3
REMARK    3  A    between atoms: N_3  and  C_4
REMARK    4  A    between atoms: N_3  and  C_6
REMARK    5  A    between atoms: C_4  and  C_5
REMARK    6  A    between atoms: C_6  and  C_7
REMARK    7  A    between atoms: C_10  and  C_11
REMARK    8  A    between atoms: C_11  and  N_12
REMARK    9  A    between atoms: C_13  and  C_15
REMARK                            x       y       z     vdW  Elec       q    Type
REMARK                         _______ _______ _______ _____ _____    ______ ____
ROOT
ATOM     12  N   UNL     1      47.854   5.835  16.143  0.00  0.00    +0.000 N 
ATOM     13  C   UNL     1      48.345   6.257  14.940  0.00  0.00    +0.000 C 
ATOM     14  O   UNL     1      49.512   6.620  14.775  0.00  0.00    +0.000 OA
ATOM     27  H   UNL     1      46.854   5.953  16.293  0.00  0.00    +0.000 HD
ENDROOT
BRANCH  13  15
ATOM     15  C   UNL     1      47.397   6.187  13.824  0.00  0.00    +0.000 A 
ATOM     16  C   UNL     1      47.037   7.328  13.120  0.00  0.00    +0.000 A 
ATOM     17  S   UNL     1      45.972   7.010  11.822  0.00  0.00    +0.000 S 
ATOM     18  C   UNL     1      45.927   5.356  12.192  0.00  0.00    +0.000 A 
ATOM     19  N   UNL     1      45.165   4.486  11.466  0.00  0.00    +0.000 NA
ATOM     20  C   UNL     1      45.190   3.262  11.890  0.00  0.00    +0.000 A 
ATOM     21  N   UNL     1      45.921   2.819  12.971  0.00  0.00    +0.000 N 
ATOM     22  C   UNL     1      46.758   3.635  13.672  0.00  0.00    +0.000 A 
ATOM     23  O   UNL     1      47.490   3.193  14.556  0.00  0.00    +0.000 OA
ATOM     24  C   UNL     1      46.725   5.037  13.269  0.00  0.00    +0.000 A 
ATOM     28  H   UNL     1      45.925   1.849  13.225  0.00  0.00    +0.000 HD
ENDBRANCH  13  15
BRANCH  12  11
ATOM     11  C   UNL     1      48.657   5.782  17.328  0.00  0.00    +0.000 C 
BRANCH  11  10
ATOM      7  C   UNL     1      51.212   2.273  17.437  0.00  0.00    +0.000 A 
ATOM      8  C   UNL     1      49.831   2.121  17.342  0.00  0.00    +0.000 A 
ATOM      9  C   UNL     1      48.984   3.242  17.334  0.00  0.00    +0.000 A 
ATOM     10  C   UNL     1      49.515   4.540  17.423  0.00  0.00    +0.000 A 
ATOM     25  C   UNL     1      50.897   4.681  17.573  0.00  0.00    +0.000 A 
ATOM     26  C   UNL     1      51.742   3.568  17.578  0.00  0.00    +0.000 A 
BRANCH   7   6
ATOM      6  C   UNL     1      52.142   1.083  17.292  0.00  0.00    +0.000 C 
BRANCH   6   3
ATOM      3  N   UNL     1      53.575   1.423  17.470  0.00  0.00    +0.000 NA
BRANCH   3   4
ATOM      4  C   UNL     1      54.415   0.684  16.506  0.00  0.00    +0.000 C 
ATOM      5  C   UNL     1      54.841  -0.716  16.934  0.00  0.00    +0.000 C 
ENDBRANCH   3   4
BRANCH   3   2
ATOM      1  C   UNL     1      54.510   2.396  19.630  0.00  0.00    +0.000 C 
ATOM      2  C   UNL     1      53.945   1.197  18.881  0.00  0.00    +0.000 C 
ENDBRANCH   3   2
ENDBRANCH   6   3
ENDBRANCH   7   6
ENDBRANCH  11  10
ENDBRANCH  12  11
TORSDOF 7
ENDMDL
MODEL 7
REMARK VINA RESULT:    -6.511      4.273      8.644
REMARK INTER + INTRA:          -9.684
REMARK INTER:                  -8.419
REMARK INTRA:                  -1.265
REMARK UNBOUND:                -0.508
REMARK  Name = 
REMARK  9 active torsions:
REMARK  status: ('A' for Active; 'I' for Inactive)
REMARK    1  A    between atoms: C_1  and  C_2
REMARK    2  A    between atoms: C_2  and  N_3
REMARK    3  A    between atoms: N_3  and  C_4
REMARK    4  A    between atoms: N_3  and  C_6
REMARK    5  A    between atoms: C_4  and  C_5
REMARK    6  A    between atoms: C_6  and  C_7
REMARK    7  A    between atoms: C_10  and  C_11
REMARK    8  A    between atoms: C_11  and  N_12
REMARK    9  A    between atoms: C_13  and  C_15
REMARK                            x       y       z     vdW  Elec       q    Type
REMARK                         _______ _______ _______ _____ _____    ______ ____
ROOT
ATOM     12  N   UNL     1      46.887   4.447  15.875  0.00  0.00    +0.000 N 
ATOM     13  C   UNL     1      46.923   4.206  14.530  0.00  0.00    +0.000 C 
ATOM     14  O   UNL     1      47.231   3.114  14.047  0.00  0.00    +0.000 OA
ATOM     27  H   UNL     1      47.035   5.411  16.168  0.00  0.00    +0.000 HD
ENDROOT
BRANCH  13  15
ATOM     15  C   UNL     1      46.502   5.328  13.687  0.00  0.00    +0.000 A 
ATOM     16  C   UNL     1      45.279   5.309  13.031  0.00  0.00    +0.000 A 
ATOM     17  S   UNL     1      44.961   6.742  12.156  0.00  0.00    +0.000 S 
ATOM     18  C   UNL     1      46.461   7.405  12.590  0.00  0.00    +0.000 A 
ATOM     19  N   UNL     1      46.848   8.637  12.147  0.00  0.00    +0.000 NA
ATOM     20  C   UNL     1      48.036   8.996  12.519  0.00  0.00    +0.000 A 
ATOM     21  N   UNL     1      48.875   8.240  13.308  0.00  0.00    +0.000 N 
ATOM     22  C   UNL     1      48.498   7.042  13.839  0.00  0.00    +0.000 A 
ATOM     23  O   UNL     1      49.217   6.442  14.637  0.00  0.00    +0.000 OA
ATOM     24  C   UNL     1      47.188   6.567  13.407  0.00  0.00    +0.000 A 
ATOM     28  H   UNL     1      49.770   8.593  13.590  0.00  0.00    +0.000 HD
ENDBRANCH  13  15
BRANCH  12  11
ATOM     11  C   UNL     1      47.212   3.447  16.847  0.00  0.00    +0.000 C 
BRANCH  11  10
ATOM      7  C   UNL     1      51.470   3.436  17.704  0.00  0.00    +0.000 A 
ATOM      8  C   UNL     1      50.845   2.265  17.281  0.00  0.00    +0.000 A 
ATOM      9  C   UNL     1      49.465   2.239  17.026  0.00  0.00    +0.000 A 
ATOM     10  C   UNL     1      48.684   3.396  17.194  0.00  0.00    +0.000 A 
ATOM     25  C   UNL     1      49.309   4.552  17.671  0.00  0.00    +0.000 A 
ATOM     26  C   UNL     1      50.683   4.581  17.923  0.00  0.00    +0.000 A 
BRANCH   7   6
ATOM      6  C   UNL     1      52.979   3.515  17.834  0.00  0.00    +0.000 C 
BRANCH   6   3
ATOM      3  N   UNL     1      53.577   2.362  18.550  0.00  0.00    +0.000 NA
BRANCH   3   4
ATOM      4  C   UNL     1      54.176   2.791  19.830  0.00  0.00    +0.000 C 
ATOM      5  C   UNL     1      54.413   4.289  19.982  0.00  0.00    +0.000 C 
ENDBRANCH   3   4
BRANCH   3   2
ATOM      1  C   UNL     1      54.058   0.356  17.057  0.00  0.00    +0.000 C 
ATOM      2  C   UNL     1      54.523   1.680  17.646  0.00  0.00    +0.000 C 
ENDBRANCH   3   2
ENDBRANCH   6   3
ENDBRANCH   7   6
ENDBRANCH  11  10
ENDBRANCH  12  11
TORSDOF 7
ENDMDL
MODEL 8
REMARK VINA RESULT:    -6.476      2.634      4.842
REMARK INTER + INTRA:          -9.635
REMARK INTER:                  -8.810
REMARK INTRA:                  -0.825
REMARK UNBOUND:                -0.508
REMARK  Name = 
REMARK  9 active torsions:
REMARK  status: ('A' for Active; 'I' for Inactive)
REMARK    1  A    between atoms: C_1  and  C_2
REMARK    2  A    between atoms: C_2  and  N_3
REMARK    3  A    between atoms: N_3  and  C_4
REMARK    4  A    between atoms: N_3  and  C_6
REMARK    5  A    between atoms: C_4  and  C_5
REMARK    6  A    between atoms: C_6  and  C_7
REMARK    7  A    between atoms: C_10  and  C_11
REMARK    8  A    between atoms: C_11  and  N_12
REMARK    9  A    between atoms: C_13  and  C_15
REMARK                            x       y       z     vdW  Elec       q    Type
REMARK                         _______ _______ _______ _____ _____    ______ ____
ROOT
ATOM     12  N   UNL     1      49.739   6.252  15.928  0.00  0.00    +0.000 N 
ATOM     13  C   UNL     1      49.644   5.702  17.175  0.00  0.00    +0.000 C 
ATOM     14  O   UNL     1      48.626   5.769  17.868  0.00  0.00    +0.000 OA
ATOM     27  H   UNL     1      50.673   6.512  15.616  0.00  0.00    +0.000 HD
ENDROOT
BRANCH  13  15
ATOM     15  C   UNL     1      50.825   4.956  17.616  0.00  0.00    +0.000 A 
ATOM     16  C   UNL     1      51.909   5.608  18.190  0.00  0.00    +0.000 A 
ATOM     17  S   UNL     1      53.149   4.542  18.688  0.00  0.00    +0.000 S 
ATOM     18  C   UNL     1      52.297   3.194  18.113  0.00  0.00    +0.000 A 
ATOM     19  N   UNL     1      52.815   1.934  18.205  0.00  0.00    +0.000 NA
ATOM     20  C   UNL     1      52.077   1.006  17.683  0.00  0.00    +0.000 A 
ATOM     21  N   UNL     1      50.854   1.219  17.085  0.00  0.00    +0.000 N 
ATOM     22  C   UNL     1      50.262   2.446  17.044  0.00  0.00    +0.000 A 
ATOM     23  O   UNL     1      49.120   2.591  16.613  0.00  0.00    +0.000 OA
ATOM     24  C   UNL     1      51.078   3.535  17.570  0.00  0.00    +0.000 A 
ATOM     28  H   UNL     1      50.315   0.450  16.732  0.00  0.00    +0.000 HD
ENDBRANCH  13  15
BRANCH  12  11
ATOM     11  C   UNL     1      48.660   6.968  15.316  0.00  0.00    +0.000 C 
BRANCH  11  10
ATOM      7  C   UNL     1      46.021   4.626  12.784  0.00  0.00    +0.000 A 
ATOM      8  C   UNL     1      46.459   4.104  13.998  0.00  0.00    +0.000 A 
ATOM      9  C   UNL     1      47.336   4.832  14.818  0.00  0.00    +0.000 A 
ATOM     10  C   UNL     1      47.789   6.105  14.430  0.00  0.00    +0.000 A 
ATOM     25  C   UNL     1      47.387   6.598  13.185  0.00  0.00    +0.000 A 
ATOM     26  C   UNL     1      46.512   5.877  12.368  0.00  0.00    +0.000 A 
BRANCH   7   6
ATOM      6  C   UNL     1      44.958   3.918  11.965  0.00  0.00    +0.000 C 
BRANCH   6   3
ATOM      3  N   UNL     1      44.707   4.546  10.644  0.00  0.00    +0.000 NA
BRANCH   3   4
ATOM      4  C   UNL     1      43.388   5.209  10.619  0.00  0.00    +0.000 C 
ATOM      5  C   UNL     1      42.630   5.229  11.942  0.00  0.00    +0.000 C 
ENDBRANCH   3   4
BRANCH   3   2
ATOM      1  C   UNL     1      45.377   4.027   8.242  0.00  0.00    +0.000 C 
ATOM      2  C   UNL     1      44.884   3.526   9.592  0.00  0.00    +0.000 C 
ENDBRANCH   3   2
ENDBRANCH   6   3
ENDBRANCH   7   6
ENDBRANCH  11  10
ENDBRANCH  12  11
TORSDOF 7
ENDMDL
MODEL 9
REMARK VINA RESULT:    -6.434      3.067      8.270
REMARK INTER + INTRA:          -9.575
REMARK INTER:                  -8.475
REMARK INTRA:                  -1.100
REMARK UNBOUND:                -0.508
REMARK  Name = 
REMARK  9 active torsions:
REMARK  status: ('A' for Active; 'I' for Inactive)
REMARK    1  A    between atoms: C_1  and  C_2
REMARK    2  A    between atoms: C_2  and  N_3
REMARK    3  A    between atoms: N_3  and  C_4
REMARK    4  A    between atoms: N_3  and  C_6
REMARK    5  A    between atoms: C_4  and  C_5
REMARK    6  A    between atoms: C_6  and  C_7
REMARK    7  A    between atoms: C_10  and  C_11
REMARK    8  A    between atoms: C_11  and  N_12
REMARK    9  A    between atoms: C_13  and  C_15
REMARK                            x       y       z     vdW  Elec       q    Type
REMARK                         _______ _______ _______ _____ _____    ______ ____
ROOT
ATOM     12  N   UNL     1      47.672   6.684  11.729  0.00  0.00    +0.000 N 
ATOM     13  C   UNL     1      46.332   6.839  11.512  0.00  0.00    +0.000 C 
ATOM     14  O   UNL     1      45.712   7.862  11.812  0.00  0.00    +0.000 OA
ATOM     27  H   UNL     1      48.006   5.730  11.846  0.00  0.00    +0.000 HD
ENDROOT
BRANCH  13  15
ATOM     15  C   UNL     1      45.681   5.719  10.828  0.00  0.00    +0.000 A 
ATOM     16  C   UNL     1      45.795   5.557   9.454  0.00  0.00    +0.000 A 
ATOM     17  S   UNL     1      45.013   4.153   8.873  0.00  0.00    +0.000 S 
ATOM     18  C   UNL     1      44.464   3.750  10.427  0.00  0.00    +0.000 A 
ATOM     19  N   UNL     1      43.694   2.644  10.643  0.00  0.00    +0.000 NA
ATOM     20  C   UNL     1      43.308   2.485  11.870  0.00  0.00    +0.000 A 
ATOM     21  N   UNL     1      43.633   3.328  12.911  0.00  0.00    +0.000 N 
ATOM     22  C   UNL     1      44.465   4.396  12.756  0.00  0.00    +0.000 A 
ATOM     23  O   UNL     1      44.837   5.062  13.720  0.00  0.00    +0.000 OA
ATOM     24  C   UNL     1      44.884   4.650  11.381  0.00  0.00    +0.000 A 
ATOM     28  H   UNL     1      43.331   3.127  13.846  0.00  0.00    +0.000 HD
ENDBRANCH  13  15
BRANCH  12  11
ATOM     11  C   UNL     1      48.478   7.702  12.336  0.00  0.00    +0.000 C 
BRANCH  11  10
ATOM      7  C   UNL     1      50.051   6.556  16.218  0.00  0.00    +0.000 A 
ATOM      8  C   UNL     1      48.770   6.158  15.845  0.00  0.00    +0.000 A 
ATOM      9  C   UNL     1      48.231   6.542  14.606  0.00  0.00    +0.000 A 
ATOM     10  C   UNL     1      48.975   7.336  13.717  0.00  0.00    +0.000 A 
ATOM     25  C   UNL     1      50.238   7.777  14.122  0.00  0.00    +0.000 A 
ATOM     26  C   UNL     1      50.778   7.394  15.353  0.00  0.00    +0.000 A 
BRANCH   7   6
ATOM      6  C   UNL     1      50.700   6.023  17.481  0.00  0.00    +0.000 C 
BRANCH   6   3
ATOM      3  N   UNL     1      50.021   4.829  18.041  0.00  0.00    +0.000 NA
BRANCH   3   4
ATOM      4  C   UNL     1      49.645   5.050  19.451  0.00  0.00    +0.000 C 
ATOM      5  C   UNL     1      48.221   5.541  19.689  0.00  0.00    +0.000 C 
ENDBRANCH   3   4
BRANCH   3   2
ATOM      1  C   UNL     1      50.218   2.428  17.214  0.00  0.00    +0.000 C 
ATOM      2  C   UNL     1      50.884   3.650  17.830  0.00  0.00    +0.000 C 
ENDBRANCH   3   2
ENDBRANCH   6   3
ENDBRANCH   7   6
ENDBRANCH  11  10
ENDBRANCH  12  11
TORSDOF 7
ENDMDL
