MODEL 1
REMARK VINA RESULT:    -8.805      0.000      0.000
REMARK INTER + INTRA:         -11.568
REMARK INTER:                 -10.863
REMARK INTRA:                  -0.705
REMARK UNBOUND:                -0.705
REMARK  Name = 
REMARK  4 active torsions:
REMARK  status: ('A' for Active; 'I' for Inactive)
REMARK    1  A    between atoms: C_2  and  C_4
REMARK    2  A    between atoms: N_8  and  C_9
REMARK    3  A    between atoms: C_9  and  C_10
REMARK    4  A    between atoms: C_14  and  N_15
REMARK                            x       y       z     vdW  Elec       q    Type
REMARK                         _______ _______ _______ _____ _____    ______ ____
ROOT
ATOM      9  C   UNL     1      43.439   4.703  11.081  0.00  0.00    +0.000 C 
ENDROOT
BRANCH   9   8
ATOM      4  C   UNL     1      46.420   2.333   7.651  0.00  0.00    +0.000 A 
ATOM      5  C   UNL     1      45.637   1.794   8.664  0.00  0.00    +0.000 A 
ATOM      6  C   UNL     1      44.785   2.631   9.384  0.00  0.00    +0.000 A 
ATOM      7  C   UNL     1      44.744   3.992   9.099  0.00  0.00    +0.000 A 
ATOM      8  N   UNL     1      43.880   4.866   9.711  0.00  0.00    +0.000 N 
ATOM     22  N   UNL     1      45.509   4.524   8.123  0.00  0.00    +0.000 NA
ATOM     23  C   UNL     1      46.333   3.696   7.429  0.00  0.00    +0.000 A 
ATOM     26  H   UNL     1      44.106   5.811   9.420  0.00  0.00    +0.000 HD
BRANCH   4   2
ATOM      1  N   UNL     1      48.444   2.121   6.329  0.00  0.00    +0.000 N 
ATOM      2  C   UNL     1      47.329   1.508   6.830  0.00  0.00    +0.000 C 
ATOM      3  O   UNL     1      47.114   0.319   6.632  0.00  0.00    +0.000 OA
ATOM     24  H   UNL     1      49.109   1.529   5.848  0.00  0.00    +0.000 HD
ATOM     25  H   UNL     1      48.779   3.010   6.677  0.00  0.00    +0.000 HD
ENDBRANCH   4   2
ENDBRANCH   9   8
BRANCH   9  10
ATOM     10  C   UNL     1      44.542   4.875  12.097  0.00  0.00    +0.000 A 
ATOM     11  C   UNL     1      45.133   3.760  12.702  0.00  0.00    +0.000 A 
ATOM     12  C   UNL     1      46.268   3.916  13.489  0.00  0.00    +0.000 A 
ATOM     13  C   UNL     1      46.836   5.179  13.655  0.00  0.00    +0.000 A 
ATOM     14  C   UNL     1      46.275   6.324  13.070  0.00  0.00    +0.000 A 
ATOM     21  C   UNL     1      45.096   6.150  12.329  0.00  0.00    +0.000 A 
BRANCH  14  15
ATOM     15  N   UNL     1      46.888   7.557  13.156  0.00  0.00    +0.000 N 
ATOM     16  C   UNL     1      46.110   8.800  13.225  0.00  0.00    +0.000 C 
ATOM     17  C   UNL     1      46.497   9.746  12.070  0.00  0.00    +0.000 C 
ATOM     18  N   UNL     1      47.950  10.016  12.003  0.00  0.00    +0.000 NA
ATOM     19  C   UNL     1      48.664   8.723  11.890  0.00  0.00    +0.000 C 
ATOM     20  C   UNL     1      48.340   7.717  13.026  0.00  0.00    +0.000 C 
ATOM     27  H   UNL     1      48.227  10.449  12.885  0.00  0.00    +0.000 HD
ENDBRANCH  14  15
ENDBRANCH   9  10
TORSDOF 4
ENDMDL
MODEL 2
REMARK VINA RESULT:    -8.315      1.729      2.994
REMARK INTER + INTRA:         -10.964
REMARK INTER:                 -10.259
REMARK INTRA:                  -0.705
REMARK UNBOUND:                -0.705
REMARK  Name = 
REMARK  4 active torsions:
REMARK  status: ('A' for Active; 'I' for Inactive)
REMARK    1  A    between atoms: C_2  and  C_4
REMARK    2  A    between atoms: N_8  and  C_9
REMARK    3  A    between atoms: C_9  and  C_10
REMARK    4  A    between atoms: C_14  and  N_15
REMARK                            x       y       z     vdW  Elec       q    Type
REMARK                         _______ _______ _______ _____ _____    ______ ____
ROOT
ATOM      9  C   UNL     1      43.595   5.274  10.897  0.00  0.00    +0.000 C 
ENDROOT
BRANCH   9   8
ATOM      4  C   UNL     1      46.208   2.005   7.939  0.00  0.00    +0.000 A 
ATOM      5  C   UNL     1      45.579   1.785   9.158  0.00  0.00    +0.000 A 
ATOM      6  C   UNL     1      44.794   2.796   9.710  0.00  0.00    +0.000 A 
ATOM      7  C   UNL     1      44.667   4.015   9.052  0.00  0.00    +0.000 A 
ATOM      8  N   UNL     1      43.855   5.030   9.494  0.00  0.00    +0.000 N 
ATOM     22  N   UNL     1      45.283   4.239   7.874  0.00  0.00    +0.000 NA
ATOM     23  C   UNL     1      46.043   3.245   7.347  0.00  0.00    +0.000 A 
ATOM     26  H   UNL     1      44.007   5.850   8.915  0.00  0.00    +0.000 HD
BRANCH   4   2
ATOM      1  N   UNL     1      46.798  -0.327   7.621  0.00  0.00    +0.000 N 
ATOM      2  C   UNL     1      47.037   0.975   7.280  0.00  0.00    +0.000 C 
ATOM      3  O   UNL     1      47.879   1.269   6.441  0.00  0.00    +0.000 OA
ATOM     24  H   UNL     1      47.303  -1.032   7.099  0.00  0.00    +0.000 HD
ATOM     25  H   UNL     1      45.959  -0.618   8.105  0.00  0.00    +0.000 HD
ENDBRANCH   4   2
ENDBRANCH   9   8
BRANCH   9  10
ATOM     10  C   UNL     1      44.634   6.142  11.564  0.00  0.00    +0.000 A 
ATOM     11  C   UNL     1      44.480   7.532  11.610  0.00  0.00    +0.000 A 
ATOM     12  C   UNL     1      45.338   8.303  12.385  0.00  0.00    +0.000 A 
ATOM     13  C   UNL     1      46.338   7.690  13.140  0.00  0.00    +0.000 A 
ATOM     14  C   UNL     1      46.531   6.301  13.122  0.00  0.00    +0.000 A 
ATOM     21  C   UNL     1      45.690   5.551  12.286  0.00  0.00    +0.000 A 
BRANCH  14  15
ATOM     15  N   UNL     1      47.457   5.687  13.939  0.00  0.00    +0.000 N 
ATOM     16  C   UNL     1      47.235   4.340  14.479  0.00  0.00    +0.000 C 
ATOM     17  C   UNL     1      47.293   4.357  16.020  0.00  0.00    +0.000 C 
ATOM     18  N   UNL     1      48.540   4.955  16.547  0.00  0.00    +0.000 NA
ATOM     19  C   UNL     1      48.673   6.324  15.997  0.00  0.00    +0.000 C 
ATOM     20  C   UNL     1      48.639   6.392  14.447  0.00  0.00    +0.000 C 
ATOM     27  H   UNL     1      49.323   4.402  16.197  0.00  0.00    +0.000 HD
ENDBRANCH  14  15
ENDBRANCH   9  10
TORSDOF 4
ENDMDL
MODEL 3
REMARK VINA RESULT:    -7.397      1.767      2.974
REMARK INTER + INTRA:          -9.832
REMARK INTER:                  -9.499
REMARK INTRA:                  -0.333
REMARK UNBOUND:                -0.705
REMARK  Name = 
REMARK  4 active torsions:
REMARK  status: ('A' for Active; 'I' for Inactive)
REMARK    1  A    between atoms: C_2  and  C_4
REMARK    2  A    between atoms: N_8  and  C_9
REMARK    3  A    between atoms: C_9  and  C_10
REMARK    4  A    between atoms: C_14  and  N_15
REMARK                            x       y       z     vdW  Elec       q    Type
REMARK                         _______ _______ _______ _____ _____    ______ ____
ROOT
ATOM      9  C   UNL     1      43.516   4.726  10.859  0.00  0.00    +0.000 C 
ENDROOT
BRANCH   9   8
ATOM      4  C   UNL     1      46.527   2.625   7.283  0.00  0.00    +0.000 A 
ATOM      5  C   UNL     1      46.485   3.934   7.745  0.00  0.00    +0.000 A 
ATOM      6  C   UNL     1      45.679   4.243   8.840  0.00  0.00    +0.000 A 
ATOM      7  C   UNL     1      44.912   3.250   9.441  0.00  0.00    +0.000 A 
ATOM      8  N   UNL     1      44.153   3.459  10.566  0.00  0.00    +0.000 N 
ATOM     22  N   UNL     1      44.941   1.978   8.991  0.00  0.00    +0.000 NA
ATOM     23  C   UNL     1      45.732   1.692   7.925  0.00  0.00    +0.000 A 
ATOM     26  H   UNL     1      43.606   2.625  10.754  0.00  0.00    +0.000 HD
BRANCH   4   2
ATOM      1  N   UNL     1      47.279   2.960   5.000  0.00  0.00    +0.000 N 
ATOM      2  C   UNL     1      47.373   2.215   6.143  0.00  0.00    +0.000 C 
ATOM      3  O   UNL     1      48.148   1.271   6.226  0.00  0.00    +0.000 OA
ATOM     24  H   UNL     1      47.927   2.732   4.257  0.00  0.00    +0.000 HD
ATOM     25  H   UNL     1      46.852   3.877   4.981  0.00  0.00    +0.000 HD
ENDBRANCH   4   2
ENDBRANCH   9   8
BRANCH   9  10
ATOM     10  C   UNL     1      44.451   5.753  11.447  0.00  0.00    +0.000 A 
ATOM     11  C   UNL     1      44.119   7.113  11.429  0.00  0.00    +0.000 A 
ATOM     12  C   UNL     1      44.891   8.027  12.136  0.00  0.00    +0.000 A 
ATOM     13  C   UNL     1      45.982   7.589  12.887  0.00  0.00    +0.000 A 
ATOM     14  C   UNL     1      46.353   6.236  12.931  0.00  0.00    +0.000 A 
ATOM     21  C   UNL     1      45.594   5.341  12.161  0.00  0.00    +0.000 A 
BRANCH  14  15
ATOM     15  N   UNL     1      47.372   5.791  13.746  0.00  0.00    +0.000 N 
ATOM     16  C   UNL     1      47.290   4.504  14.448  0.00  0.00    +0.000 C 
ATOM     17  C   UNL     1      47.439   4.706  15.970  0.00  0.00    +0.000 C 
ATOM     18  N   UNL     1      48.664   5.449  16.338  0.00  0.00    +0.000 NA
ATOM     19  C   UNL     1      48.655   6.750  15.630  0.00  0.00    +0.000 C 
ATOM     20  C   UNL     1      48.523   6.633  14.089  0.00  0.00    +0.000 C 
ATOM     27  H   UNL     1      49.466   4.915  16.000  0.00  0.00    +0.000 HD
ENDBRANCH  14  15
ENDBRANCH   9  10
TORSDOF 4
ENDMDL
MODEL 4
REMARK VINA RESULT:    -7.235      2.175      2.814
REMARK INTER + INTRA:          -9.632
REMARK INTER:                  -9.071
REMARK INTRA:                  -0.560
REMARK UNBOUND:                -0.705
REMARK  Name = 
REMARK  4 active torsions:
REMARK  status: ('A' for Active; 'I' for Inactive)
REMARK    1  A    between atoms: C_2  and  C_4
REMARK    2  A    between atoms: N_8  and  C_9
REMARK    3  A    between atoms: C_9  and  C_10
REMARK    4  A    between atoms: C_14  and  N_15
REMARK                            x       y       z     vdW  Elec       q    Type
REMARK                         _______ _______ _______ _____ _____    ______ ____
ROOT
ATOM      9  C   UNL     1      43.475   3.751  11.318  0.00  0.00    +0.000 C 
ENDROOT
BRANCH   9   8
ATOM      4  C   UNL     1      46.549   2.795   7.330  0.00  0.00    +0.000 A 
ATOM      5  C   UNL     1      46.177   4.013   7.887  0.00  0.00    +0.000 A 
ATOM      6  C   UNL     1      45.444   4.021   9.073  0.00  0.00    +0.000 A 
ATOM      7  C   UNL     1      45.075   2.820   9.671  0.00  0.00    +0.000 A 
ATOM      8  N   UNL     1      44.420   2.747  10.875  0.00  0.00    +0.000 N 
ATOM     22  N   UNL     1      45.424   1.635   9.130  0.00  0.00    +0.000 NA
ATOM     23  C   UNL     1      46.139   1.642   7.975  0.00  0.00    +0.000 A 
ATOM     26  H   UNL     1      44.166   1.781  11.054  0.00  0.00    +0.000 HD
BRANCH   4   2
ATOM      1  N   UNL     1      48.688   2.491   6.225  0.00  0.00    +0.000 N 
ATOM      2  C   UNL     1      47.344   2.705   6.088  0.00  0.00    +0.000 C 
ATOM      3  O   UNL     1      46.821   2.784   4.984  0.00  0.00    +0.000 OA
ATOM     24  H   UNL     1      49.211   2.337   5.372  0.00  0.00    +0.000 HD
ATOM     25  H   UNL     1      49.103   2.171   7.090  0.00  0.00    +0.000 HD
ENDBRANCH   4   2
ENDBRANCH   9   8
BRANCH   9  10
ATOM     10  C   UNL     1      44.127   4.968  11.929  0.00  0.00    +0.000 A 
ATOM     11  C   UNL     1      45.148   4.829  12.877  0.00  0.00    +0.000 A 
ATOM     12  C   UNL     1      45.869   5.943  13.291  0.00  0.00    +0.000 A 
ATOM     13  C   UNL     1      45.595   7.197  12.745  0.00  0.00    +0.000 A 
ATOM     14  C   UNL     1      44.578   7.382  11.795  0.00  0.00    +0.000 A 
ATOM     21  C   UNL     1      43.826   6.253  11.437  0.00  0.00    +0.000 A 
BRANCH  14  15
ATOM     15  N   UNL     1      44.369   8.602  11.186  0.00  0.00    +0.000 N 
ATOM     16  C   UNL     1      45.349   9.691  11.287  0.00  0.00    +0.000 C 
ATOM     17  C   UNL     1      44.699  10.950  11.895  0.00  0.00    +0.000 C 
ATOM     18  N   UNL     1      43.481  11.380  11.173  0.00  0.00    +0.000 NA
ATOM     19  C   UNL     1      42.525  10.249  11.151  0.00  0.00    +0.000 C 
ATOM     20  C   UNL     1      43.099   8.944  10.539  0.00  0.00    +0.000 C 
ATOM     27  H   UNL     1      43.746  11.583  10.209  0.00  0.00    +0.000 HD
ENDBRANCH  14  15
ENDBRANCH   9  10
TORSDOF 4
ENDMDL
MODEL 5
REMARK VINA RESULT:    -7.178      2.531      3.848
REMARK INTER + INTRA:          -9.561
REMARK INTER:                  -8.944
REMARK INTRA:                  -0.617
REMARK UNBOUND:                -0.705
REMARK  Name = 
REMARK  4 active torsions:
REMARK  status: ('A' for Active; 'I' for Inactive)
REMARK    1  A    between atoms: C_2  and  C_4
REMARK    2  A    between atoms: N_8  and  C_9
REMARK    3  A    between atoms: C_9  and  C_10
REMARK    4  A    between atoms: C_14  and  N_15
REMARK                            x       y       z     vdW  Elec       q    Type
REMARK                         _______ _______ _______ _____ _____    ______ ____
ROOT
ATOM      9  C   UNL     1      44.747   5.134  11.895  0.00  0.00    +0.000 C 
ENDROOT
BRANCH   9   8
ATOM      4  C   UNL     1      46.369   2.791   7.635  0.00  0.00    +0.000 A 
ATOM      5  C   UNL     1      45.762   2.253   8.764  0.00  0.00    +0.000 A 
ATOM      6  C   UNL     1      45.267   3.112   9.743  0.00  0.00    +0.000 A 
ATOM      7  C   UNL     1      45.403   4.489   9.595  0.00  0.00    +0.000 A 
ATOM      8  N   UNL     1      44.877   5.400  10.477  0.00  0.00    +0.000 N 
ATOM     22  N   UNL     1      46.000   5.017   8.506  0.00  0.00    +0.000 NA
ATOM     23  C   UNL     1      46.477   4.168   7.559  0.00  0.00    +0.000 A 
ATOM     26  H   UNL     1      45.193   6.329  10.220  0.00  0.00    +0.000 HD
BRANCH   4   2
ATOM      1  N   UNL     1      47.007   2.524   5.309  0.00  0.00    +0.000 N 
ATOM      2  C   UNL     1      46.898   1.947   6.544  0.00  0.00    +0.000 C 
ATOM      3  O   UNL     1      47.255   0.793   6.741  0.00  0.00    +0.000 OA
ATOM     24  H   UNL     1      47.456   1.972   4.589  0.00  0.00    +0.000 HD
ATOM     25  H   UNL     1      46.966   3.525   5.170  0.00  0.00    +0.000 HD
ENDBRANCH   4   2
ENDBRANCH   9   8
BRANCH   9  10
ATOM     10  C   UNL     1      46.006   5.412  12.681  0.00  0.00    +0.000 A 
ATOM     11  C   UNL     1      46.824   6.500  12.356  0.00  0.00    +0.000 A 
ATOM     12  C   UNL     1      47.872   6.858  13.195  0.00  0.00    +0.000 A 
ATOM     13  C   UNL     1      48.094   6.151  14.377  0.00  0.00    +0.000 A 
ATOM     14  C   UNL     1      47.301   5.053  14.741  0.00  0.00    +0.000 A 
ATOM     21  C   UNL     1      46.287   4.674  13.847  0.00  0.00    +0.000 A 
BRANCH  14  15
ATOM     15  N   UNL     1      47.461   4.413  15.952  0.00  0.00    +0.000 N 
ATOM     16  C   UNL     1      47.590   5.163  17.208  0.00  0.00    +0.000 C 
ATOM     17  C   UNL     1      48.911   4.804  17.919  0.00  0.00    +0.000 C 
ATOM     18  N   UNL     1      49.077   3.350  18.135  0.00  0.00    +0.000 NA
ATOM     19  C   UNL     1      48.979   2.667  16.825  0.00  0.00    +0.000 C 
ATOM     20  C   UNL     1      47.669   2.964  16.049  0.00  0.00    +0.000 C 
ATOM     27  H   UNL     1      48.298   3.030  18.712  0.00  0.00    +0.000 HD
ENDBRANCH  14  15
ENDBRANCH   9  10
TORSDOF 4
ENDMDL
MODEL 6
REMARK VINA RESULT:    -6.967      4.551      8.359
REMARK INTER + INTRA:          -9.300
REMARK INTER:                  -8.852
REMARK INTRA:                  -0.448
REMARK UNBOUND:                -0.705
REMARK  Name = 
REMARK  4 active torsions:
REMARK  status: ('A' for Active; 'I' for Inactive)
REMARK    1  A    between atoms: C_2  and  C_4
REMARK    2  A    between atoms: N_8  and  C_9
REMARK    3  A    between atoms: C_9  and  C_10
REMARK    4  A    between atoms: C_14  and  N_15
REMARK                            x       y       z     vdW  Elec       q    Type
REMARK                         _______ _______ _______ _____ _____    ______ ____
ROOT
ATOM      9  C   UNL     1      46.709   4.605  13.643  0.00  0.00    +0.000 C 
ENDROOT
BRANCH   9   8
ATOM      4  C   UNL     1      48.730   4.244  18.339  0.00  0.00    +0.000 A 
ATOM      5  C   UNL     1      48.051   5.302  17.748  0.00  0.00    +0.000 A 
ATOM      6  C   UNL     1      47.455   5.116  16.502  0.00  0.00    +0.000 A 
ATOM      7  C   UNL     1      47.564   3.888  15.855  0.00  0.00    +0.000 A 
ATOM      8  N   UNL     1      46.944   3.605  14.664  0.00  0.00    +0.000 N 
ATOM     22  N   UNL     1      48.231   2.860  16.418  0.00  0.00    +0.000 NA
ATOM     23  C   UNL     1      48.805   3.056  17.634  0.00  0.00    +0.000 A 
ATOM     26  H   UNL     1      47.253   2.695  14.339  0.00  0.00    +0.000 HD
BRANCH   4   2
ATOM      1  N   UNL     1      48.620   3.985  20.749  0.00  0.00    +0.000 N 
ATOM      2  C   UNL     1      49.368   4.357  19.666  0.00  0.00    +0.000 C 
ATOM      3  O   UNL     1      50.526   4.735  19.792  0.00  0.00    +0.000 OA
ATOM     24  H   UNL     1      49.093   3.976  21.644  0.00  0.00    +0.000 HD
ATOM     25  H   UNL     1      47.773   3.439  20.664  0.00  0.00    +0.000 HD
ENDBRANCH   4   2
ENDBRANCH   9   8
BRANCH   9  10
ATOM     10  C   UNL     1      45.474   4.347  12.814  0.00  0.00    +0.000 A 
ATOM     11  C   UNL     1      44.230   4.847  13.214  0.00  0.00    +0.000 A 
ATOM     12  C   UNL     1      43.139   4.768  12.355  0.00  0.00    +0.000 A 
ATOM     13  C   UNL     1      43.289   4.214  11.084  0.00  0.00    +0.000 A 
ATOM     14  C   UNL     1      44.517   3.698  10.643  0.00  0.00    +0.000 A 
ATOM     21  C   UNL     1      45.587   3.735  11.550  0.00  0.00    +0.000 A 
BRANCH  14  15
ATOM     15  N   UNL     1      44.688   3.236   9.355  0.00  0.00    +0.000 N 
ATOM     16  C   UNL     1      44.759   1.801   9.054  0.00  0.00    +0.000 C 
ATOM     17  C   UNL     1      46.084   1.462   8.341  0.00  0.00    +0.000 C 
ATOM     18  N   UNL     1      46.319   2.283   7.133  0.00  0.00    +0.000 NA
ATOM     19  C   UNL     1      46.278   3.712   7.521  0.00  0.00    +0.000 C 
ATOM     20  C   UNL     1      44.967   4.139   8.233  0.00  0.00    +0.000 C 
ATOM     27  H   UNL     1      45.548   2.113   6.486  0.00  0.00    +0.000 HD
ENDBRANCH  14  15
ENDBRANCH   9  10
TORSDOF 4
ENDMDL
MODEL 7
REMARK VINA RESULT:    -6.895      1.618      2.308
REMARK INTER + INTRA:          -9.212
REMARK INTER:                  -9.056
REMARK INTRA:                  -0.155
REMARK UNBOUND:                -0.705
REMARK  Name = 
REMARK  4 active torsions:
REMARK  status: ('A' for Active; 'I' for Inactive)
REMARK    1  A    between atoms: C_2  and  C_4
REMARK    2  A    between atoms: N_8  and  C_9
REMARK    3  A    between atoms: C_9  and  C_10
REMARK    4  A    between atoms: C_14  and  N_15
REMARK                            x       y       z     vdW  Elec       q    Type
REMARK                         _______ _______ _______ _____ _____    ______ ____
ROOT
ATOM      9  C   UNL     1      43.573   3.477  11.254  0.00  0.00    +0.000 C 
ENDROOT
BRANCH   9   8
ATOM      4  C   UNL     1      46.531   2.731   7.136  0.00  0.00    +0.000 A 
ATOM      5  C   UNL     1      45.985   3.909   7.631  0.00  0.00    +0.000 A 
ATOM      6  C   UNL     1      45.332   3.891   8.862  0.00  0.00    +0.000 A 
ATOM      7  C   UNL     1      45.213   2.698   9.568  0.00  0.00    +0.000 A 
ATOM      8  N   UNL     1      44.650   2.613  10.818  0.00  0.00    +0.000 N 
ATOM     22  N   UNL     1      45.731   1.549   9.089  0.00  0.00    +0.000 NA
ATOM     23  C   UNL     1      46.366   1.582   7.889  0.00  0.00    +0.000 A 
ATOM     26  H   UNL     1      44.579   1.636  11.082  0.00  0.00    +0.000 HD
BRANCH   4   2
ATOM      1  N   UNL     1      48.579   2.330   5.898  0.00  0.00    +0.000 N 
ATOM      2  C   UNL     1      47.256   2.675   5.851  0.00  0.00    +0.000 C 
ATOM      3  O   UNL     1      46.694   2.895   4.786  0.00  0.00    +0.000 OA
ATOM     24  H   UNL     1      49.046   2.202   5.009  0.00  0.00    +0.000 HD
ATOM     25  H   UNL     1      49.001   1.901   6.711  0.00  0.00    +0.000 HD
ENDBRANCH   4   2
ENDBRANCH   9   8
BRANCH   9  10
ATOM     10  C   UNL     1      43.956   4.935  11.324  0.00  0.00    +0.000 A 
ATOM     11  C   UNL     1      43.062   5.928  10.905  0.00  0.00    +0.000 A 
ATOM     12  C   UNL     1      43.346   7.267  11.147  0.00  0.00    +0.000 A 
ATOM     13  C   UNL     1      44.507   7.623  11.832  0.00  0.00    +0.000 A 
ATOM     14  C   UNL     1      45.432   6.662  12.268  0.00  0.00    +0.000 A 
ATOM     21  C   UNL     1      45.153   5.322  11.959  0.00  0.00    +0.000 A 
BRANCH  14  15
ATOM     15  N   UNL     1      46.531   7.006  13.026  0.00  0.00    +0.000 N 
ATOM     16  C   UNL     1      46.741   8.380  13.500  0.00  0.00    +0.000 C 
ATOM     17  C   UNL     1      48.097   8.922  13.005  0.00  0.00    +0.000 C 
ATOM     18  N   UNL     1      49.236   8.046  13.357  0.00  0.00    +0.000 NA
ATOM     19  C   UNL     1      48.975   6.694  12.810  0.00  0.00    +0.000 C 
ATOM     20  C   UNL     1      47.633   6.069  13.274  0.00  0.00    +0.000 C 
ATOM     27  H   UNL     1      49.267   7.970  14.374  0.00  0.00    +0.000 HD
ENDBRANCH  14  15
ENDBRANCH   9  10
TORSDOF 4
ENDMDL
MODEL 8
REMARK VINA RESULT:    -6.779      2.926      7.031
REMARK INTER + INTRA:          -9.069
REMARK INTER:                  -8.460
REMARK INTRA:                  -0.609
REMARK UNBOUND:                -0.705
REMARK  Name = 
REMARK  4 active torsions:
REMARK  status: ('A' for Active; 'I' for Inactive)
REMARK    1  A    between atoms: C_2  and  C_4
REMARK    2  A    between atoms: N_8  and  C_9
REMARK    3  A    between atoms: C_9  and  C_10
REMARK    4  A    between atoms: C_14  and  N_15
REMARK                            x       y       z     vdW  Elec       q    Type
REMARK                         _______ _______ _______ _____ _____    ______ ____
ROOT
ATOM      9  C   UNL     1      45.045   6.869  12.255  0.00  0.00    +0.000 C 
ENDROOT
BRANCH   9   8
ATOM      4  C   UNL     1      49.982   8.131  12.804  0.00  0.00    +0.000 A 
ATOM      5  C   UNL     1      49.063   8.551  11.850  0.00  0.00    +0.000 A 
ATOM      6  C   UNL     1      47.724   8.188  11.990  0.00  0.00    +0.000 A 
ATOM      7  C   UNL     1      47.328   7.395  13.063  0.00  0.00    +0.000 A 
ATOM      8  N   UNL     1      46.019   7.059  13.310  0.00  0.00    +0.000 N 
ATOM     22  N   UNL     1      48.216   6.976  13.987  0.00  0.00    +0.000 NA
ATOM     23  C   UNL     1      49.517   7.338  13.838  0.00  0.00    +0.000 A 
ATOM     26  H   UNL     1      45.989   6.395  14.076  0.00  0.00    +0.000 HD
BRANCH   4   2
ATOM      1  N   UNL     1      52.244   7.915  13.656  0.00  0.00    +0.000 N 
ATOM      2  C   UNL     1      51.413   8.493  12.737  0.00  0.00    +0.000 C 
ATOM      3  O   UNL     1      51.843   9.252  11.877  0.00  0.00    +0.000 OA
ATOM     24  H   UNL     1      53.235   8.094  13.546  0.00  0.00    +0.000 HD
ATOM     25  H   UNL     1      51.975   7.107  14.201  0.00  0.00    +0.000 HD
ENDBRANCH   4   2
ENDBRANCH   9   8
BRANCH   9  10
ATOM     10  C   UNL     1      44.734   5.419  11.973  0.00  0.00    +0.000 A 
ATOM     11  C   UNL     1      43.936   4.677  12.852  0.00  0.00    +0.000 A 
ATOM     12  C   UNL     1      43.500   3.407  12.493  0.00  0.00    +0.000 A 
ATOM     13  C   UNL     1      43.833   2.881  11.245  0.00  0.00    +0.000 A 
ATOM     14  C   UNL     1      44.632   3.588  10.334  0.00  0.00    +0.000 A 
ATOM     21  C   UNL     1      45.109   4.842  10.744  0.00  0.00    +0.000 A 
BRANCH  14  15
ATOM     15  N   UNL     1      44.883   3.108   9.065  0.00  0.00    +0.000 N 
ATOM     16  C   UNL     1      45.022   1.671   8.800  0.00  0.00    +0.000 C 
ATOM     17  C   UNL     1      46.392   1.370   8.158  0.00  0.00    +0.000 C 
ATOM     18  N   UNL     1      46.654   2.175   6.945  0.00  0.00    +0.000 NA
ATOM     19  C   UNL     1      46.540   3.609   7.299  0.00  0.00    +0.000 C 
ATOM     20  C   UNL     1      45.181   3.999   7.939  0.00  0.00    +0.000 C 
ATOM     27  H   UNL     1      45.922   1.962   6.266  0.00  0.00    +0.000 HD
ENDBRANCH  14  15
ENDBRANCH   9  10
TORSDOF 4
ENDMDL
MODEL 9
REMARK VINA RESULT:    -6.667      2.834      6.950
REMARK INTER + INTRA:          -8.930
REMARK INTER:                  -8.301
REMARK INTRA:                  -0.629
REMARK UNBOUND:                -0.705
REMARK  Name = 
REMARK  4 active torsions:
REMARK  status: ('A' for Active; 'I' for Inactive)
REMARK    1  A    between atoms: C_2  and  C_4
REMARK    2  A    between atoms: N_8  and  C_9
REMARK    3  A    between atoms: C_9  and  C_10
REMARK    4  A    between atoms: C_14  and  N_15
REMARK                            x       y       z     vdW  Elec       q    Type
REMARK                         _______ _______ _______ _____ _____    ______ ____
ROOT
ATOM      9  C   UNL     1      46.567   4.235  13.793  0.00  0.00    +0.000 C 
ENDROOT
BRANCH   9   8
ATOM      4  C   UNL     1      48.958   8.547  12.395  0.00  0.00    +0.000 A 
ATOM      5  C   UNL     1      48.293   7.612  11.611  0.00  0.00    +0.000 A 
ATOM      6  C   UNL     1      47.583   6.586  12.234  0.00  0.00    +0.000 A 
ATOM      7  C   UNL     1      47.565   6.497  13.623  0.00  0.00    +0.000 A 
ATOM      8  N   UNL     1      46.829   5.563  14.309  0.00  0.00    +0.000 N 
ATOM     22  N   UNL     1      48.217   7.396  14.388  0.00  0.00    +0.000 NA
ATOM     23  C   UNL     1      48.904   8.390  13.768  0.00  0.00    +0.000 A 
ATOM     26  H   UNL     1      47.057   5.624  15.296  0.00  0.00    +0.000 HD
BRANCH   4   2
ATOM      1  N   UNL     1      49.013  10.554  11.030  0.00  0.00    +0.000 N 
ATOM      2  C   UNL     1      49.713   9.674  11.809  0.00  0.00    +0.000 C 
ATOM      3  O   UNL     1      50.905   9.835  12.036  0.00  0.00    +0.000 OA
ATOM     24  H   UNL     1      49.514  11.373  10.710  0.00  0.00    +0.000 HD
ATOM     25  H   UNL     1      48.002  10.597  11.032  0.00  0.00    +0.000 HD
ENDBRANCH   4   2
ENDBRANCH   9   8
BRANCH   9  10
ATOM     10  C   UNL     1      45.366   4.168  12.880  0.00  0.00    +0.000 A 
ATOM     11  C   UNL     1      44.180   4.833  13.211  0.00  0.00    +0.000 A 
ATOM     12  C   UNL     1      43.150   4.922  12.283  0.00  0.00    +0.000 A 
ATOM     13  C   UNL     1      43.306   4.374  11.010  0.00  0.00    +0.000 A 
ATOM     14  C   UNL     1      44.476   3.696  10.636  0.00  0.00    +0.000 A 
ATOM     21  C   UNL     1      45.478   3.567  11.610  0.00  0.00    +0.000 A 
BRANCH  14  15
ATOM     15  N   UNL     1      44.667   3.235   9.350  0.00  0.00    +0.000 N 
ATOM     16  C   UNL     1      44.747   1.800   9.050  0.00  0.00    +0.000 C 
ATOM     17  C   UNL     1      46.083   1.466   8.355  0.00  0.00    +0.000 C 
ATOM     18  N   UNL     1      46.332   2.288   7.151  0.00  0.00    +0.000 NA
ATOM     19  C   UNL     1      46.280   3.717   7.539  0.00  0.00    +0.000 C 
ATOM     20  C   UNL     1      44.959   4.139   8.232  0.00  0.00    +0.000 C 
ATOM     27  H   UNL     1      45.571   2.116   6.493  0.00  0.00    +0.000 HD
ENDBRANCH  14  15
ENDBRANCH   9  10
TORSDOF 4
ENDMDL
