MODEL 1
REMARK VINA RESULT:    -7.339      0.000      0.000
REMARK INTER + INTRA:          -9.361
REMARK INTER:                  -9.055
REMARK INTRA:                  -0.306
REMARK UNBOUND:                -0.306
REMARK  Name = 
REMARK  4 active torsions:
REMARK  status: ('A' for Active; 'I' for Inactive)
REMARK    1  A    between atoms: C_2  and  C_4
REMARK    2  A    between atoms: C_11  and  C_12
REMARK    3  A    between atoms: N_15  and  C_16
REMARK    4  A    between atoms: C_16  and  C_17
REMARK                            x       y       z     vdW  Elec       q    Type
REMARK                         _______ _______ _______ _____ _____    ______ ____
ROOT
ATOM      4  C   UNL     1      46.588   2.750   7.368  0.00  0.00    +0.000 A 
ATOM      5  C   UNL     1      46.873   4.110   7.454  0.00  0.00    +0.000 A 
ATOM      6  N   UNL     1      46.312   4.992   8.330  0.00  0.00    +0.000 NA
ATOM      7  C   UNL     1      45.430   4.412   9.175  0.00  0.00    +0.000 A 
ATOM      8  C   UNL     1      45.079   3.065   9.195  0.00  0.00    +0.000 A 
ATOM      9  C   UNL     1      45.680   2.196   8.272  0.00  0.00    +0.000 A 
ATOM     10  C   UNL     1      44.125   2.897  10.218  0.00  0.00    +0.000 A 
ATOM     11  C   UNL     1      43.909   4.125  10.810  0.00  0.00    +0.000 A 
ATOM     15  N   UNL     1      44.709   5.053  10.165  0.00  0.00    +0.000 N 
ENDROOT
BRANCH   4   2
ATOM      1  N   UNL     1      47.982   2.579   5.388  0.00  0.00    +0.000 N 
ATOM      2  C   UNL     1      47.251   1.925   6.340  0.00  0.00    +0.000 C 
ATOM      3  O   UNL     1      47.179   0.701   6.358  0.00  0.00    +0.000 OA
ATOM     25  H   UNL     1      48.501   2.004   4.734  0.00  0.00    +0.000 HD
ATOM     26  H   UNL     1      48.237   3.554   5.458  0.00  0.00    +0.000 HD
ENDBRANCH   4   2
BRANCH  11  12
ATOM     12  C   UNL     1      42.976   4.359  11.996  0.00  0.00    +0.000 C 
ATOM     13  C   UNL     1      43.516   5.182  13.157  0.00  0.00    +0.000 C 
ATOM     14  C   UNL     1      43.300   3.720  13.332  0.00  0.00    +0.000 C 
ENDBRANCH  11  12
BRANCH  15  16
ATOM     16  C   UNL     1      44.715   6.505  10.356  0.00  0.00    +0.000 C 
BRANCH  16  17
ATOM     17  C   UNL     1      45.704   7.014  11.392  0.00  0.00    +0.000 C 
ATOM     18  O   UNL     1      46.672   6.346  11.757  0.00  0.00    +0.000 OA
ATOM     19  N   UNL     1      45.468   8.280  11.935  0.00  0.00    +0.000 N 
ATOM     20  C   UNL     1      44.334   9.170  11.649  0.00  0.00    +0.000 C 
ATOM     21  C   UNL     1      44.814  10.547  11.136  0.00  0.00    +0.000 C 
ATOM     22  N   UNL     1      45.853  11.173  11.979  0.00  0.00    +0.000 NA
ATOM     23  C   UNL     1      46.965  10.221  12.189  0.00  0.00    +0.000 C 
ATOM     24  C   UNL     1      46.490   8.886  12.793  0.00  0.00    +0.000 C 
ATOM     27  H   UNL     1      45.450  11.399  12.888  0.00  0.00    +0.000 HD
ENDBRANCH  16  17
ENDBRANCH  15  16
TORSDOF 4
ENDMDL
MODEL 2
REMARK VINA RESULT:    -7.307      5.513      7.367
REMARK INTER + INTRA:          -9.321
REMARK INTER:                  -8.470
REMARK INTRA:                  -0.852
REMARK UNBOUND:                -0.306
REMARK  Name = 
REMARK  4 active torsions:
REMARK  status: ('A' for Active; 'I' for Inactive)
REMARK    1  A    between atoms: C_2  and  C_4
REMARK    2  A    between atoms: C_11  and  C_12
REMARK    3  A    between atoms: N_15  and  C_16
REMARK    4  A    between atoms: C_16  and  C_17
REMARK                            x       y       z     vdW  Elec       q    Type
REMARK                         _______ _______ _______ _____ _____    ______ ____
ROOT
ATOM      4  C   UNL     1      45.336   5.039  11.582  0.00  0.00    +0.000 A 
ATOM      5  C   UNL     1      44.973   4.158  12.596  0.00  0.00    +0.000 A 
ATOM      6  N   UNL     1      45.562   4.060  13.823  0.00  0.00    +0.000 NA
ATOM      7  C   UNL     1      46.562   4.953  14.002  0.00  0.00    +0.000 A 
ATOM      8  C   UNL     1      47.001   5.890  13.072  0.00  0.00    +0.000 A 
ATOM      9  C   UNL     1      46.366   5.950  11.822  0.00  0.00    +0.000 A 
ATOM     10  C   UNL     1      48.064   6.601  13.664  0.00  0.00    +0.000 A 
ATOM     11  C   UNL     1      48.258   6.102  14.936  0.00  0.00    +0.000 A 
ATOM     15  N   UNL     1      47.338   5.088  15.139  0.00  0.00    +0.000 N 
ENDROOT
BRANCH   4   2
ATOM      1  N   UNL     1      45.376   5.172   9.159  0.00  0.00    +0.000 N 
ATOM      2  C   UNL     1      44.627   5.003  10.289  0.00  0.00    +0.000 C 
ATOM      3  O   UNL     1      43.420   4.794  10.227  0.00  0.00    +0.000 OA
ATOM     25  H   UNL     1      44.898   5.065   8.271  0.00  0.00    +0.000 HD
ATOM     26  H   UNL     1      46.386   5.136   9.154  0.00  0.00    +0.000 HD
ENDBRANCH   4   2
BRANCH  11  12
ATOM     12  C   UNL     1      49.290   6.640  15.925  0.00  0.00    +0.000 C 
ATOM     13  C   UNL     1      48.791   7.579  17.013  0.00  0.00    +0.000 C 
ATOM     14  C   UNL     1      49.633   8.117  15.911  0.00  0.00    +0.000 C 
ENDBRANCH  11  12
BRANCH  15  16
ATOM     16  C   UNL     1      47.256   4.179  16.284  0.00  0.00    +0.000 C 
BRANCH  16  17
ATOM     17  C   UNL     1      48.341   3.115  16.340  0.00  0.00    +0.000 C 
ATOM     18  O   UNL     1      48.512   2.306  15.427  0.00  0.00    +0.000 OA
ATOM     19  N   UNL     1      49.141   3.075  17.484  0.00  0.00    +0.000 N 
ATOM     20  C   UNL     1      49.027   3.927  18.676  0.00  0.00    +0.000 C 
ATOM     21  C   UNL     1      50.346   4.680  18.960  0.00  0.00    +0.000 C 
ATOM     22  N   UNL     1      51.542   3.814  18.971  0.00  0.00    +0.000 NA
ATOM     23  C   UNL     1      51.593   3.019  17.726  0.00  0.00    +0.000 C 
ATOM     24  C   UNL     1      50.312   2.194  17.502  0.00  0.00    +0.000 C 
ATOM     27  H   UNL     1      51.476   3.170  19.759  0.00  0.00    +0.000 HD
ENDBRANCH  16  17
ENDBRANCH  15  16
TORSDOF 4
ENDMDL
MODEL 3
REMARK VINA RESULT:    -7.028      4.509      8.164
REMARK INTER + INTRA:          -8.978
REMARK INTER:                  -8.259
REMARK INTRA:                  -0.719
REMARK UNBOUND:                -0.306
REMARK  Name = 
REMARK  4 active torsions:
REMARK  status: ('A' for Active; 'I' for Inactive)
REMARK    1  A    between atoms: C_2  and  C_4
REMARK    2  A    between atoms: C_11  and  C_12
REMARK    3  A    between atoms: N_15  and  C_16
REMARK    4  A    between atoms: C_16  and  C_17
REMARK                            x       y       z     vdW  Elec       q    Type
REMARK                         _______ _______ _______ _____ _____    ______ ____
ROOT
ATOM      4  C   UNL     1      48.410   5.017  17.481  0.00  0.00    +0.000 A 
ATOM      5  C   UNL     1      47.585   4.346  16.583  0.00  0.00    +0.000 A 
ATOM      6  N   UNL     1      47.365   4.693  15.283  0.00  0.00    +0.000 NA
ATOM      7  C   UNL     1      48.070   5.782  14.899  0.00  0.00    +0.000 A 
ATOM      8  C   UNL     1      48.935   6.523  15.699  0.00  0.00    +0.000 A 
ATOM      9  C   UNL     1      49.125   6.129  17.032  0.00  0.00    +0.000 A 
ATOM     10  C   UNL     1      49.441   7.572  14.907  0.00  0.00    +0.000 A 
ATOM     11  C   UNL     1      48.893   7.461  13.645  0.00  0.00    +0.000 A 
ATOM     15  N   UNL     1      48.049   6.364  13.645  0.00  0.00    +0.000 N 
ENDROOT
BRANCH   4   2
ATOM      1  N   UNL     1      48.368   3.202  19.092  0.00  0.00    +0.000 N 
ATOM      2  C   UNL     1      48.519   4.543  18.874  0.00  0.00    +0.000 C 
ATOM      3  O   UNL     1      48.770   5.313  19.794  0.00  0.00    +0.000 OA
ATOM     25  H   UNL     1      48.524   2.871  20.037  0.00  0.00    +0.000 HD
ATOM     26  H   UNL     1      48.369   2.516  18.349  0.00  0.00    +0.000 HD
ENDBRANCH   4   2
BRANCH  11  12
ATOM     12  C   UNL     1      49.227   8.385  12.476  0.00  0.00    +0.000 C 
ATOM     13  C   UNL     1      50.171   7.847  11.410  0.00  0.00    +0.000 C 
ATOM     14  C   UNL     1      50.639   8.918  12.331  0.00  0.00    +0.000 C 
ENDBRANCH  11  12
BRANCH  15  16
ATOM     16  C   UNL     1      47.146   5.939  12.573  0.00  0.00    +0.000 C 
BRANCH  16  17
ATOM     17  C   UNL     1      45.680   6.278  12.793  0.00  0.00    +0.000 C 
ATOM     18  O   UNL     1      45.299   7.430  13.004  0.00  0.00    +0.000 OA
ATOM     19  N   UNL     1      44.767   5.221  12.762  0.00  0.00    +0.000 N 
ATOM     20  C   UNL     1      45.068   3.794  12.582  0.00  0.00    +0.000 C 
ATOM     21  C   UNL     1      44.310   3.207  11.369  0.00  0.00    +0.000 C 
ATOM     22  N   UNL     1      42.864   3.506  11.363  0.00  0.00    +0.000 NA
ATOM     23  C   UNL     1      42.656   4.962  11.518  0.00  0.00    +0.000 C 
ATOM     24  C   UNL     1      43.333   5.521  12.783  0.00  0.00    +0.000 C 
ATOM     27  H   UNL     1      42.425   3.034  12.153  0.00  0.00    +0.000 HD
ENDBRANCH  16  17
ENDBRANCH  15  16
TORSDOF 4
ENDMDL
MODEL 4
REMARK VINA RESULT:    -6.752      4.403      6.874
REMARK INTER + INTRA:          -8.637
REMARK INTER:                  -7.742
REMARK INTRA:                  -0.895
REMARK UNBOUND:                -0.306
REMARK  Name = 
REMARK  4 active torsions:
REMARK  status: ('A' for Active; 'I' for Inactive)
REMARK    1  A    between atoms: C_2  and  C_4
REMARK    2  A    between atoms: C_11  and  C_12
REMARK    3  A    between atoms: N_15  and  C_16
REMARK    4  A    between atoms: C_16  and  C_17
REMARK                            x       y       z     vdW  Elec       q    Type
REMARK                         _______ _______ _______ _____ _____    ______ ____
ROOT
ATOM      4  C   UNL     1      45.679   4.274  12.559  0.00  0.00    +0.000 A 
ATOM      5  C   UNL     1      46.387   4.077  13.741  0.00  0.00    +0.000 A 
ATOM      6  N   UNL     1      47.344   4.904  14.249  0.00  0.00    +0.000 NA
ATOM      7  C   UNL     1      47.546   6.008  13.493  0.00  0.00    +0.000 A 
ATOM      8  C   UNL     1      46.889   6.320  12.307  0.00  0.00    +0.000 A 
ATOM      9  C   UNL     1      45.914   5.435  11.821  0.00  0.00    +0.000 A 
ATOM     10  C   UNL     1      47.413   7.545  11.848  0.00  0.00    +0.000 A 
ATOM     11  C   UNL     1      48.369   7.968  12.751  0.00  0.00    +0.000 A 
ATOM     15  N   UNL     1      48.451   7.021  13.757  0.00  0.00    +0.000 N 
ENDROOT
BRANCH   4   2
ATOM      1  N   UNL     1      44.880   2.713  10.881  0.00  0.00    +0.000 N 
ATOM      2  C   UNL     1      44.695   3.268  12.116  0.00  0.00    +0.000 C 
ATOM      3  O   UNL     1      43.769   2.917  12.839  0.00  0.00    +0.000 OA
ATOM     25  H   UNL     1      44.249   1.964  10.615  0.00  0.00    +0.000 HD
ATOM     26  H   UNL     1      45.733   2.817  10.349  0.00  0.00    +0.000 HD
ENDBRANCH   4   2
BRANCH  11  12
ATOM     12  C   UNL     1      49.140   9.281  12.638  0.00  0.00    +0.000 C 
ATOM     13  C   UNL     1      48.558  10.495  13.349  0.00  0.00    +0.000 C 
ATOM     14  C   UNL     1      48.533  10.434  11.862  0.00  0.00    +0.000 C 
ENDBRANCH  11  12
BRANCH  15  16
ATOM     16  C   UNL     1      49.419   6.972  14.853  0.00  0.00    +0.000 C 
BRANCH  16  17
ATOM     17  C   UNL     1      48.886   7.424  16.204  0.00  0.00    +0.000 C 
ATOM     18  O   UNL     1      48.441   8.558  16.385  0.00  0.00    +0.000 OA
ATOM     19  N   UNL     1      48.932   6.502  17.252  0.00  0.00    +0.000 N 
ATOM     20  C   UNL     1      49.483   5.140  17.212  0.00  0.00    +0.000 C 
ATOM     21  C   UNL     1      48.424   4.092  17.624  0.00  0.00    +0.000 C 
ATOM     22  N   UNL     1      47.728   4.405  18.888  0.00  0.00    +0.000 NA
ATOM     23  C   UNL     1      47.181   5.778  18.828  0.00  0.00    +0.000 C 
ATOM     24  C   UNL     1      48.262   6.829  18.515  0.00  0.00    +0.000 C 
ATOM     27  H   UNL     1      48.399   4.362  19.655  0.00  0.00    +0.000 HD
ENDBRANCH  16  17
ENDBRANCH  15  16
TORSDOF 4
ENDMDL
MODEL 5
REMARK VINA RESULT:    -6.717      3.223      7.029
REMARK INTER + INTRA:          -8.594
REMARK INTER:                  -8.012
REMARK INTRA:                  -0.582
REMARK UNBOUND:                -0.306
REMARK  Name = 
REMARK  4 active torsions:
REMARK  status: ('A' for Active; 'I' for Inactive)
REMARK    1  A    between atoms: C_2  and  C_4
REMARK    2  A    between atoms: C_11  and  C_12
REMARK    3  A    between atoms: N_15  and  C_16
REMARK    4  A    between atoms: C_16  and  C_17
REMARK                            x       y       z     vdW  Elec       q    Type
REMARK                         _______ _______ _______ _____ _____    ______ ____
ROOT
ATOM      4  C   UNL     1      47.490   4.213  15.409  0.00  0.00    +0.000 A 
ATOM      5  C   UNL     1      46.517   3.884  14.470  0.00  0.00    +0.000 A 
ATOM      6  N   UNL     1      46.040   4.704  13.489  0.00  0.00    +0.000 NA
ATOM      7  C   UNL     1      46.636   5.919  13.478  0.00  0.00    +0.000 A 
ATOM      8  C   UNL     1      47.628   6.353  14.352  0.00  0.00    +0.000 A 
ATOM      9  C   UNL     1      48.084   5.474  15.347  0.00  0.00    +0.000 A 
ATOM     10  C   UNL     1      47.951   7.677  13.993  0.00  0.00    +0.000 A 
ATOM     11  C   UNL     1      47.167   8.032  12.914  0.00  0.00    +0.000 A 
ATOM     15  N   UNL     1      46.359   6.953  12.603  0.00  0.00    +0.000 N 
ENDROOT
BRANCH   4   2
ATOM      1  N   UNL     1      47.022   3.047  17.486  0.00  0.00    +0.000 N 
ATOM      2  C   UNL     1      47.879   3.229  16.437  0.00  0.00    +0.000 C 
ATOM      3  O   UNL     1      48.912   2.575  16.338  0.00  0.00    +0.000 OA
ATOM     25  H   UNL     1      47.255   2.313  18.146  0.00  0.00    +0.000 HD
ATOM     26  H   UNL     1      46.078   3.405  17.498  0.00  0.00    +0.000 HD
ENDBRANCH   4   2
BRANCH  11  12
ATOM     12  C   UNL     1      47.249   9.378  12.196  0.00  0.00    +0.000 C 
ATOM     13  C   UNL     1      48.549   9.706  11.477  0.00  0.00    +0.000 C 
ATOM     14  C   UNL     1      48.192  10.442  12.720  0.00  0.00    +0.000 C 
ENDBRANCH  11  12
BRANCH  15  16
ATOM     16  C   UNL     1      45.271   6.912  11.624  0.00  0.00    +0.000 C 
BRANCH  16  17
ATOM     17  C   UNL     1      45.481   5.946  10.468  0.00  0.00    +0.000 C 
ATOM     18  O   UNL     1      46.432   6.050   9.692  0.00  0.00    +0.000 OA
ATOM     19  N   UNL     1      44.537   4.929  10.304  0.00  0.00    +0.000 N 
ATOM     20  C   UNL     1      43.325   4.706  11.103  0.00  0.00    +0.000 C 
ATOM     21  C   UNL     1      43.311   3.291  11.725  0.00  0.00    +0.000 C 
ATOM     22  N   UNL     1      43.582   2.208  10.759  0.00  0.00    +0.000 NA
ATOM     23  C   UNL     1      44.832   2.498  10.023  0.00  0.00    +0.000 C 
ATOM     24  C   UNL     1      44.798   3.870   9.325  0.00  0.00    +0.000 C 
ATOM     27  H   UNL     1      42.818   2.166  10.085  0.00  0.00    +0.000 HD
ENDBRANCH  16  17
ENDBRANCH  15  16
TORSDOF 4
ENDMDL
MODEL 6
REMARK VINA RESULT:    -6.644      4.737      8.055
REMARK INTER + INTRA:          -8.504
REMARK INTER:                  -7.987
REMARK INTRA:                  -0.516
REMARK UNBOUND:                -0.306
REMARK  Name = 
REMARK  4 active torsions:
REMARK  status: ('A' for Active; 'I' for Inactive)
REMARK    1  A    between atoms: C_2  and  C_4
REMARK    2  A    between atoms: C_11  and  C_12
REMARK    3  A    between atoms: N_15  and  C_16
REMARK    4  A    between atoms: C_16  and  C_17
REMARK                            x       y       z     vdW  Elec       q    Type
REMARK                         _______ _______ _______ _____ _____    ______ ____
ROOT
ATOM      4  C   UNL     1      48.425   4.708  18.016  0.00  0.00    +0.000 A 
ATOM      5  C   UNL     1      47.828   3.571  17.480  0.00  0.00    +0.000 A 
ATOM      6  N   UNL     1      47.390   3.423  16.197  0.00  0.00    +0.000 NA
ATOM      7  C   UNL     1      47.617   4.516  15.432  0.00  0.00    +0.000 A 
ATOM      8  C   UNL     1      48.218   5.699  15.850  0.00  0.00    +0.000 A 
ATOM      9  C   UNL     1      48.649   5.804  17.181  0.00  0.00    +0.000 A 
ATOM     10  C   UNL     1      48.242   6.570  14.742  0.00  0.00    +0.000 A 
ATOM     11  C   UNL     1      47.668   5.917  13.670  0.00  0.00    +0.000 A 
ATOM     15  N   UNL     1      47.282   4.658  14.097  0.00  0.00    +0.000 N 
ENDROOT
BRANCH   4   2
ATOM      1  N   UNL     1      48.475   3.648  20.199  0.00  0.00    +0.000 N 
ATOM      2  C   UNL     1      48.814   4.732  19.438  0.00  0.00    +0.000 C 
ATOM      3  O   UNL     1      49.446   5.670  19.913  0.00  0.00    +0.000 OA
ATOM     25  H   UNL     1      48.816   3.633  21.154  0.00  0.00    +0.000 HD
ATOM     26  H   UNL     1      48.146   2.777  19.806  0.00  0.00    +0.000 HD
ENDBRANCH   4   2
BRANCH  11  12
ATOM     12  C   UNL     1      47.546   6.507  12.267  0.00  0.00    +0.000 C 
ATOM     13  C   UNL     1      47.252   7.996  12.159  0.00  0.00    +0.000 C 
ATOM     14  C   UNL     1      46.199   7.012  11.789  0.00  0.00    +0.000 C 
ENDBRANCH  11  12
BRANCH  15  16
ATOM     16  C   UNL     1      46.510   3.665  13.349  0.00  0.00    +0.000 C 
BRANCH  16  17
ATOM     17  C   UNL     1      45.034   3.991  13.179  0.00  0.00    +0.000 C 
ATOM     18  O   UNL     1      44.345   4.410  14.110  0.00  0.00    +0.000 OA
ATOM     19  N   UNL     1      44.473   3.783  11.917  0.00  0.00    +0.000 N 
ATOM     20  C   UNL     1      45.143   3.237  10.728  0.00  0.00    +0.000 C 
ATOM     21  C   UNL     1      45.059   4.216   9.534  0.00  0.00    +0.000 C 
ATOM     22  N   UNL     1      43.697   4.715   9.262  0.00  0.00    +0.000 NA
ATOM     23  C   UNL     1      43.113   5.272  10.501  0.00  0.00    +0.000 C 
ATOM     24  C   UNL     1      43.111   4.257  11.658  0.00  0.00    +0.000 C 
ATOM     27  H   UNL     1      43.113   3.937   8.956  0.00  0.00    +0.000 HD
ENDBRANCH  16  17
ENDBRANCH  15  16
TORSDOF 4
ENDMDL
MODEL 7
REMARK VINA RESULT:    -6.591      4.891      7.112
REMARK INTER + INTRA:          -8.438
REMARK INTER:                  -7.697
REMARK INTRA:                  -0.742
REMARK UNBOUND:                -0.306
REMARK  Name = 
REMARK  4 active torsions:
REMARK  status: ('A' for Active; 'I' for Inactive)
REMARK    1  A    between atoms: C_2  and  C_4
REMARK    2  A    between atoms: C_11  and  C_12
REMARK    3  A    between atoms: N_15  and  C_16
REMARK    4  A    between atoms: C_16  and  C_17
REMARK                            x       y       z     vdW  Elec       q    Type
REMARK                         _______ _______ _______ _____ _____    ______ ____
ROOT
ATOM      4  C   UNL     1      49.690   8.078  12.083  0.00  0.00    +0.000 A 
ATOM      5  C   UNL     1      49.895   7.540  13.350  0.00  0.00    +0.000 A 
ATOM      6  N   UNL     1      49.039   6.715  14.018  0.00  0.00    +0.000 NA
ATOM      7  C   UNL     1      47.926   6.420  13.309  0.00  0.00    +0.000 A 
ATOM      8  C   UNL     1      47.621   6.883  12.032  0.00  0.00    +0.000 A 
ATOM      9  C   UNL     1      48.532   7.732  11.386  0.00  0.00    +0.000 A 
ATOM     10  C   UNL     1      46.367   6.343  11.680  0.00  0.00    +0.000 A 
ATOM     11  C   UNL     1      45.928   5.560  12.729  0.00  0.00    +0.000 A 
ATOM     15  N   UNL     1      46.884   5.612  13.728  0.00  0.00    +0.000 N 
ENDROOT
BRANCH   4   2
ATOM      1  N   UNL     1      51.969   8.512  11.367  0.00  0.00    +0.000 N 
ATOM      2  C   UNL     1      50.695   8.989  11.501  0.00  0.00    +0.000 C 
ATOM      3  O   UNL     1      50.394  10.115  11.120  0.00  0.00    +0.000 OA
ATOM     25  H   UNL     1      52.635   9.111  10.893  0.00  0.00    +0.000 HD
ATOM     26  H   UNL     1      52.209   7.536  11.471  0.00  0.00    +0.000 HD
ENDBRANCH   4   2
BRANCH  11  12
ATOM     12  C   UNL     1      44.627   4.760  12.720  0.00  0.00    +0.000 C 
ATOM     13  C   UNL     1      44.683   3.344  12.165  0.00  0.00    +0.000 C 
ATOM     14  C   UNL     1      43.982   4.406  11.394  0.00  0.00    +0.000 C 
ENDBRANCH  11  12
BRANCH  15  16
ATOM     16  C   UNL     1      46.789   5.054  15.078  0.00  0.00    +0.000 C 
BRANCH  16  17
ATOM     17  C   UNL     1      47.451   3.697  15.261  0.00  0.00    +0.000 C 
ATOM     18  O   UNL     1      47.552   2.887  14.337  0.00  0.00    +0.000 OA
ATOM     19  N   UNL     1      47.935   3.387  16.534  0.00  0.00    +0.000 N 
ATOM     20  C   UNL     1      47.841   4.214  17.744  0.00  0.00    +0.000 C 
ATOM     21  C   UNL     1      49.237   4.500  18.343  0.00  0.00    +0.000 C 
ATOM     22  N   UNL     1      50.072   3.295  18.521  0.00  0.00    +0.000 NA
ATOM     23  C   UNL     1      50.137   2.542  17.250  0.00  0.00    +0.000 C 
ATOM     24  C   UNL     1      48.742   2.176  16.711  0.00  0.00    +0.000 C 
ATOM     27  H   UNL     1      49.643   2.696  19.225  0.00  0.00    +0.000 HD
ENDBRANCH  16  17
ENDBRANCH  15  16
TORSDOF 4
ENDMDL
MODEL 8
REMARK VINA RESULT:    -6.192      3.241      4.943
REMARK INTER + INTRA:          -7.946
REMARK INTER:                  -7.146
REMARK INTRA:                  -0.800
REMARK UNBOUND:                -0.306
REMARK  Name = 
REMARK  4 active torsions:
REMARK  status: ('A' for Active; 'I' for Inactive)
REMARK    1  A    between atoms: C_2  and  C_4
REMARK    2  A    between atoms: C_11  and  C_12
REMARK    3  A    between atoms: N_15  and  C_16
REMARK    4  A    between atoms: C_16  and  C_17
REMARK                            x       y       z     vdW  Elec       q    Type
REMARK                         _______ _______ _______ _____ _____    ______ ____
ROOT
ATOM      4  C   UNL     1      44.449   4.376  11.369  0.00  0.00    +0.000 A 
ATOM      5  C   UNL     1      43.743   5.563  11.199  0.00  0.00    +0.000 A 
ATOM      6  N   UNL     1      44.125   6.794  11.646  0.00  0.00    +0.000 NA
ATOM      7  C   UNL     1      45.322   6.781  12.276  0.00  0.00    +0.000 A 
ATOM      8  C   UNL     1      46.124   5.663  12.489  0.00  0.00    +0.000 A 
ATOM      9  C   UNL     1      45.686   4.417  12.014  0.00  0.00    +0.000 A 
ATOM     10  C   UNL     1      47.267   6.096  13.190  0.00  0.00    +0.000 A 
ATOM     11  C   UNL     1      47.157   7.457  13.391  0.00  0.00    +0.000 A 
ATOM     15  N   UNL     1      45.962   7.874  12.832  0.00  0.00    +0.000 N 
ENDROOT
BRANCH   4   2
ATOM      1  N   UNL     1      43.416   2.219  11.783  0.00  0.00    +0.000 N 
ATOM      2  C   UNL     1      43.888   3.110  10.860  0.00  0.00    +0.000 C 
ATOM      3  O   UNL     1      43.816   2.879   9.658  0.00  0.00    +0.000 OA
ATOM     25  H   UNL     1      42.959   1.387  11.425  0.00  0.00    +0.000 HD
ATOM     26  H   UNL     1      43.267   2.454  12.754  0.00  0.00    +0.000 HD
ENDBRANCH   4   2
BRANCH  11  12
ATOM     12  C   UNL     1      48.219   8.315  14.075  0.00  0.00    +0.000 C 
ATOM     13  C   UNL     1      49.346   8.856  13.206  0.00  0.00    +0.000 C 
ATOM     14  C   UNL     1      49.634   7.786  14.199  0.00  0.00    +0.000 C 
ENDBRANCH  11  12
BRANCH  15  16
ATOM     16  C   UNL     1      45.355   9.203  12.921  0.00  0.00    +0.000 C 
BRANCH  16  17
ATOM     17  C   UNL     1      45.673  10.135  11.762  0.00  0.00    +0.000 C 
ATOM     18  O   UNL     1      46.828  10.350  11.392  0.00  0.00    +0.000 OA
ATOM     19  N   UNL     1      44.596  10.760  11.129  0.00  0.00    +0.000 N 
ATOM     20  C   UNL     1      43.174  10.655  11.486  0.00  0.00    +0.000 C 
ATOM     21  C   UNL     1      42.329  10.151  10.294  0.00  0.00    +0.000 C 
ATOM     22  N   UNL     1      42.564  10.890   9.038  0.00  0.00    +0.000 NA
ATOM     23  C   UNL     1      44.012  10.920   8.740  0.00  0.00    +0.000 C 
ATOM     24  C   UNL     1      44.837  11.515   9.896  0.00  0.00    +0.000 C 
ATOM     27  H   UNL     1      42.241  11.851   9.153  0.00  0.00    +0.000 HD
ENDBRANCH  16  17
ENDBRANCH  15  16
TORSDOF 4
ENDMDL
MODEL 9
REMARK VINA RESULT:    -6.182      5.219      8.398
REMARK INTER + INTRA:          -7.934
REMARK INTER:                  -7.090
REMARK INTRA:                  -0.843
REMARK UNBOUND:                -0.306
REMARK  Name = 
REMARK  4 active torsions:
REMARK  status: ('A' for Active; 'I' for Inactive)
REMARK    1  A    between atoms: C_2  and  C_4
REMARK    2  A    between atoms: C_11  and  C_12
REMARK    3  A    between atoms: N_15  and  C_16
REMARK    4  A    between atoms: C_16  and  C_17
REMARK                            x       y       z     vdW  Elec       q    Type
REMARK                         _______ _______ _______ _____ _____    ______ ____
ROOT
ATOM      4  C   UNL     1      50.700   5.044  17.692  0.00  0.00    +0.000 A 
ATOM      5  C   UNL     1      49.591   4.207  17.609  0.00  0.00    +0.000 A 
ATOM      6  N   UNL     1      48.544   4.346  16.747  0.00  0.00    +0.000 NA
ATOM      7  C   UNL     1      48.683   5.400  15.910  0.00  0.00    +0.000 A 
ATOM      8  C   UNL     1      49.750   6.293  15.887  0.00  0.00    +0.000 A 
ATOM      9  C   UNL     1      50.803   6.111  16.797  0.00  0.00    +0.000 A 
ATOM     10  C   UNL     1      49.483   7.238  14.876  0.00  0.00    +0.000 A 
ATOM     11  C   UNL     1      48.275   6.914  14.294  0.00  0.00    +0.000 A 
ATOM     15  N   UNL     1      47.784   5.788  14.933  0.00  0.00    +0.000 N 
ENDROOT
BRANCH   4   2
ATOM      1  N   UNL     1      52.108   3.487  18.910  0.00  0.00    +0.000 N 
ATOM      2  C   UNL     1      51.740   4.787  18.706  0.00  0.00    +0.000 C 
ATOM      3  O   UNL     1      52.278   5.704  19.317  0.00  0.00    +0.000 OA
ATOM     25  H   UNL     1      52.878   3.323  19.548  0.00  0.00    +0.000 HD
ATOM     26  H   UNL     1      51.845   2.733  18.290  0.00  0.00    +0.000 HD
ENDBRANCH   4   2
BRANCH  11  12
ATOM     12  C   UNL     1      47.652   7.669  13.122  0.00  0.00    +0.000 C 
ATOM     13  C   UNL     1      47.797   7.052  11.739  0.00  0.00    +0.000 C 
ATOM     14  C   UNL     1      48.556   8.287  12.074  0.00  0.00    +0.000 C 
ENDBRANCH  11  12
BRANCH  15  16
ATOM     16  C   UNL     1      46.472   5.164  14.751  0.00  0.00    +0.000 C 
BRANCH  16  17
ATOM     17  C   UNL     1      46.395   4.142  13.628  0.00  0.00    +0.000 C 
ATOM     18  O   UNL     1      47.152   3.172  13.573  0.00  0.00    +0.000 OA
ATOM     19  N   UNL     1      45.433   4.351  12.637  0.00  0.00    +0.000 N 
ATOM     20  C   UNL     1      44.501   5.482  12.529  0.00  0.00    +0.000 C 
ATOM     21  C   UNL     1      43.033   5.002  12.493  0.00  0.00    +0.000 C 
ATOM     22  N   UNL     1      42.774   3.935  11.505  0.00  0.00    +0.000 NA
ATOM     23  C   UNL     1      43.734   2.828  11.706  0.00  0.00    +0.000 C 
ATOM     24  C   UNL     1      45.198   3.299  11.643  0.00  0.00    +0.000 C 
ATOM     27  H   UNL     1      42.912   4.311  10.568  0.00  0.00    +0.000 HD
ENDBRANCH  16  17
ENDBRANCH  15  16
TORSDOF 4
ENDMDL
