MODEL 1
REMARK VINA RESULT:    -6.698      0.000      0.000
REMARK INTER + INTRA:         -14.676
REMARK INTER:                 -12.572
REMARK INTRA:                  -2.104
REMARK UNBOUND:                -2.104
REMARK  Name = 
REMARK  17 active torsions:
REMARK  status: ('A' for Active; 'I' for Inactive)
REMARK    1  A    between atoms: C_1  and  C_2
REMARK    2  A    between atoms: C_2  and  C_3
REMARK    3  A    between atoms: C_3  and  C_4
REMARK    4  A    between atoms: C_4  and  C_5
REMARK    5  A    between atoms: C_5  and  C_6
REMARK    6  A    between atoms: C_6  and  C_7
REMARK    7  A    between atoms: C_7  and  C_8
REMARK    8  A    between atoms: C_8  and  N_9
REMARK    9  A    between atoms: N_9  and  C_10
REMARK   10  A    between atoms: C_10  and  C_11
REMARK   11  A    between atoms: C_14  and  C_15
REMARK   12  A    between atoms: C_15  and  N_16
REMARK   13  A    between atoms: C_17  and  C_19
REMARK   14  A    between atoms: C_26  and  O_27
REMARK   15  A    between atoms: O_27  and  C_28
REMARK   16  A    between atoms: C_28  and  C_29
REMARK   17  A    between atoms: C_29  and  C_30
REMARK                            x       y       z     vdW  Elec       q    Type
REMARK                         _______ _______ _______ _____ _____    ______ ____
ROOT
ATOM     15  C   UNL     1      47.643   7.683  13.167  0.00  0.00    +0.000 C 
ENDROOT
BRANCH  15  14
ATOM     11  C   UNL     1      44.454   4.764  12.849  0.00  0.00    +0.000 A 
ATOM     12  C   UNL     1      45.716   4.401  13.343  0.00  0.00    +0.000 A 
ATOM     13  C   UNL     1      46.740   5.346  13.454  0.00  0.00    +0.000 A 
ATOM     14  C   UNL     1      46.528   6.675  13.069  0.00  0.00    +0.000 A 
ATOM     32  C   UNL     1      45.275   7.034  12.554  0.00  0.00    +0.000 A 
ATOM     33  C   UNL     1      44.248   6.091  12.450  0.00  0.00    +0.000 A 
BRANCH  11  10
ATOM     10  C   UNL     1      43.348   3.738  12.733  0.00  0.00    +0.000 C 
BRANCH  10   9
ATOM      9  N   UNL     1      43.054   3.431  11.335  0.00  0.00    +0.000 NA
ATOM     34  H   UNL     1      42.116   3.041  11.263  0.00  0.00    +0.000 HD
BRANCH   9   8
ATOM      8  C   UNL     1      44.017   2.481  10.789  0.00  0.00    +0.000 C 
BRANCH   8   7
ATOM      7  C   UNL     1      44.302   2.839   9.331  0.00  0.00    +0.000 C 
BRANCH   7   6
ATOM      6  C   UNL     1      44.802   4.277   9.217  0.00  0.00    +0.000 C 
BRANCH   6   5
ATOM      5  C   UNL     1      45.914   4.395   8.178  0.00  0.00    +0.000 C 
BRANCH   5   4
ATOM      4  C   UNL     1      45.876   3.216   7.209  0.00  0.00    +0.000 C 
BRANCH   4   3
ATOM      3  C   UNL     1      47.259   2.940   6.625  0.00  0.00    +0.000 C 
BRANCH   3   2
ATOM      1  C   UNL     1      46.667   0.768   7.742  0.00  0.00    +0.000 C 
ATOM      2  C   UNL     1      47.737   1.536   6.984  0.00  0.00    +0.000 C 
ENDBRANCH   3   2
ENDBRANCH   4   3
ENDBRANCH   5   4
ENDBRANCH   6   5
ENDBRANCH   7   6
ENDBRANCH   8   7
ENDBRANCH   9   8
ENDBRANCH  10   9
ENDBRANCH  11  10
ENDBRANCH  15  14
BRANCH  15  16
ATOM     16  N   UNL     1      47.834   8.115  14.529  0.00  0.00    +0.000 N 
ATOM     17  C   UNL     1      48.886   7.660  15.284  0.00  0.00    +0.000 C 
ATOM     18  O   UNL     1      49.774   6.958  14.811  0.00  0.00    +0.000 OA
ATOM     35  H   UNL     1      47.062   8.578  14.985  0.00  0.00    +0.000 HD
BRANCH  17  19
ATOM     19  C   UNL     1      48.928   8.117  16.681  0.00  0.00    +0.000 A 
ATOM     20  C   UNL     1      49.228   9.441  16.961  0.00  0.00    +0.000 A 
ATOM     21  S   UNL     1      49.160   9.816  18.621  0.00  0.00    +0.000 S 
ATOM     22  C   UNL     1      48.794   8.204  19.020  0.00  0.00    +0.000 A 
ATOM     23  N   UNL     1      48.621   7.854  20.307  0.00  0.00    +0.000 NA
ATOM     24  C   UNL     1      48.376   6.552  20.456  0.00  0.00    +0.000 A 
ATOM     25  N   UNL     1      48.293   5.627  19.493  0.00  0.00    +0.000 NA
ATOM     26  C   UNL     1      48.451   6.031  18.219  0.00  0.00    +0.000 A 
ATOM     31  C   UNL     1      48.712   7.374  17.912  0.00  0.00    +0.000 A 
BRANCH  26  27
ATOM     27  O   UNL     1      48.428   5.093  17.214  0.00  0.00    +0.000 OA
BRANCH  27  28
ATOM     28  C   UNL     1      47.210   4.358  17.084  0.00  0.00    +0.000 C 
BRANCH  28  29
ATOM     29  C   UNL     1      47.491   2.900  17.421  0.00  0.00    +0.000 C 
ATOM     30  C   UNL     1      48.657   2.359  16.615  0.00  0.00    +0.000 C 
ENDBRANCH  28  29
ENDBRANCH  27  28
ENDBRANCH  26  27
ENDBRANCH  17  19
ENDBRANCH  15  16
TORSDOF 15
ENDMDL
MODEL 2
REMARK VINA RESULT:    -6.466      2.025      2.293
REMARK INTER + INTRA:         -14.241
REMARK INTER:                 -12.461
REMARK INTRA:                  -1.780
REMARK UNBOUND:                -2.104
REMARK  Name = 
REMARK  17 active torsions:
REMARK  status: ('A' for Active; 'I' for Inactive)
REMARK    1  A    between atoms: C_1  and  C_2
REMARK    2  A    between atoms: C_2  and  C_3
REMARK    3  A    between atoms: C_3  and  C_4
REMARK    4  A    between atoms: C_4  and  C_5
REMARK    5  A    between atoms: C_5  and  C_6
REMARK    6  A    between atoms: C_6  and  C_7
REMARK    7  A    between atoms: C_7  and  C_8
REMARK    8  A    between atoms: C_8  and  N_9
REMARK    9  A    between atoms: N_9  and  C_10
REMARK   10  A    between atoms: C_10  and  C_11
REMARK   11  A    between atoms: C_14  and  C_15
REMARK   12  A    between atoms: C_15  and  N_16
REMARK   13  A    between atoms: C_17  and  C_19
REMARK   14  A    between atoms: C_26  and  O_27
REMARK   15  A    between atoms: O_27  and  C_28
REMARK   16  A    between atoms: C_28  and  C_29
REMARK   17  A    between atoms: C_29  and  C_30
REMARK                            x       y       z     vdW  Elec       q    Type
REMARK                         _______ _______ _______ _____ _____    ______ ____
ROOT
ATOM     15  C   UNL     1      48.606   7.565  12.757  0.00  0.00    +0.000 C 
ENDROOT
BRANCH  15  14
ATOM     11  C   UNL     1      44.878   5.388  13.151  0.00  0.00    +0.000 A 
ATOM     12  C   UNL     1      46.085   4.837  13.605  0.00  0.00    +0.000 A 
ATOM     13  C   UNL     1      47.285   5.544  13.487  0.00  0.00    +0.000 A 
ATOM     14  C   UNL     1      47.306   6.818  12.906  0.00  0.00    +0.000 A 
ATOM     32  C   UNL     1      46.105   7.361  12.431  0.00  0.00    +0.000 A 
ATOM     33  C   UNL     1      44.903   6.656  12.556  0.00  0.00    +0.000 A 
BRANCH  11  10
ATOM     10  C   UNL     1      43.581   4.620  13.284  0.00  0.00    +0.000 C 
BRANCH  10   9
ATOM      9  N   UNL     1      43.766   3.208  12.956  0.00  0.00    +0.000 NA
ATOM     34  H   UNL     1      44.731   2.941  13.134  0.00  0.00    +0.000 HD
BRANCH   9   8
ATOM      8  C   UNL     1      43.441   2.945  11.558  0.00  0.00    +0.000 C 
BRANCH   8   7
ATOM      7  C   UNL     1      44.730   2.943  10.736  0.00  0.00    +0.000 C 
BRANCH   7   6
ATOM      6  C   UNL     1      44.621   3.912   9.561  0.00  0.00    +0.000 C 
BRANCH   6   5
ATOM      5  C   UNL     1      44.969   3.223   8.244  0.00  0.00    +0.000 C 
BRANCH   5   4
ATOM      4  C   UNL     1      45.654   1.883   8.498  0.00  0.00    +0.000 C 
BRANCH   4   3
ATOM      3  C   UNL     1      46.858   1.698   7.578  0.00  0.00    +0.000 C 
BRANCH   3   2
ATOM      1  C   UNL     1      47.087   2.792   5.327  0.00  0.00    +0.000 C 
ATOM      2  C   UNL     1      47.183   2.989   6.831  0.00  0.00    +0.000 C 
ENDBRANCH   3   2
ENDBRANCH   4   3
ENDBRANCH   5   4
ENDBRANCH   6   5
ENDBRANCH   7   6
ENDBRANCH   8   7
ENDBRANCH   9   8
ENDBRANCH  10   9
ENDBRANCH  11  10
ENDBRANCH  15  14
BRANCH  15  16
ATOM     16  N   UNL     1      49.603   7.059  13.666  0.00  0.00    +0.000 N 
ATOM     17  C   UNL     1      49.731   7.555  14.939  0.00  0.00    +0.000 C 
ATOM     18  O   UNL     1      48.938   8.367  15.407  0.00  0.00    +0.000 OA
ATOM     35  H   UNL     1      50.346   6.497  13.278  0.00  0.00    +0.000 HD
BRANCH  17  19
ATOM     19  C   UNL     1      50.835   7.007  15.742  0.00  0.00    +0.000 A 
ATOM     20  C   UNL     1      52.138   7.392  15.469  0.00  0.00    +0.000 A 
ATOM     21  S   UNL     1      53.282   6.723  16.539  0.00  0.00    +0.000 S 
ATOM     22  C   UNL     1      52.076   5.845  17.356  0.00  0.00    +0.000 A 
ATOM     23  N   UNL     1      52.408   5.049  18.389  0.00  0.00    +0.000 NA
ATOM     24  C   UNL     1      51.358   4.404  18.897  0.00  0.00    +0.000 A 
ATOM     25  N   UNL     1      50.085   4.479  18.492  0.00  0.00    +0.000 NA
ATOM     26  C   UNL     1      49.799   5.307  17.470  0.00  0.00    +0.000 A 
ATOM     31  C   UNL     1      50.806   6.052  16.838  0.00  0.00    +0.000 A 
BRANCH  26  27
ATOM     27  O   UNL     1      48.510   5.362  16.995  0.00  0.00    +0.000 OA
BRANCH  27  28
ATOM     28  C   UNL     1      47.509   4.837  17.868  0.00  0.00    +0.000 C 
BRANCH  28  29
ATOM     29  C   UNL     1      47.025   3.510  17.300  0.00  0.00    +0.000 C 
ATOM     30  C   UNL     1      47.918   3.030  16.171  0.00  0.00    +0.000 C 
ENDBRANCH  28  29
ENDBRANCH  27  28
ENDBRANCH  26  27
ENDBRANCH  17  19
ENDBRANCH  15  16
TORSDOF 15
ENDMDL
MODEL 3
REMARK VINA RESULT:    -6.394      1.372      2.172
REMARK INTER + INTRA:         -14.105
REMARK INTER:                 -11.329
REMARK INTRA:                  -2.776
REMARK UNBOUND:                -2.104
REMARK  Name = 
REMARK  17 active torsions:
REMARK  status: ('A' for Active; 'I' for Inactive)
REMARK    1  A    between atoms: C_1  and  C_2
REMARK    2  A    between atoms: C_2  and  C_3
REMARK    3  A    between atoms: C_3  and  C_4
REMARK    4  A    between atoms: C_4  and  C_5
REMARK    5  A    between atoms: C_5  and  C_6
REMARK    6  A    between atoms: C_6  and  C_7
REMARK    7  A    between atoms: C_7  and  C_8
REMARK    8  A    between atoms: C_8  and  N_9
REMARK    9  A    between atoms: N_9  and  C_10
REMARK   10  A    between atoms: C_10  and  C_11
REMARK   11  A    between atoms: C_14  and  C_15
REMARK   12  A    between atoms: C_15  and  N_16
REMARK   13  A    between atoms: C_17  and  C_19
REMARK   14  A    between atoms: C_26  and  O_27
REMARK   15  A    between atoms: O_27  and  C_28
REMARK   16  A    between atoms: C_28  and  C_29
REMARK   17  A    between atoms: C_29  and  C_30
REMARK                            x       y       z     vdW  Elec       q    Type
REMARK                         _______ _______ _______ _____ _____    ______ ____
ROOT
ATOM     15  C   UNL     1      49.014   7.653  13.183  0.00  0.00    +0.000 C 
ENDROOT
BRANCH  15  14
ATOM     11  C   UNL     1      45.031   7.082  11.570  0.00  0.00    +0.000 A 
ATOM     12  C   UNL     1      45.242   7.885  12.701  0.00  0.00    +0.000 A 
ATOM     13  C   UNL     1      46.528   8.076  13.214  0.00  0.00    +0.000 A 
ATOM     14  C   UNL     1      47.633   7.464  12.611  0.00  0.00    +0.000 A 
ATOM     32  C   UNL     1      47.423   6.644  11.495  0.00  0.00    +0.000 A 
ATOM     33  C   UNL     1      46.136   6.458  10.977  0.00  0.00    +0.000 A 
BRANCH  11  10
ATOM     10  C   UNL     1      43.638   6.880  11.016  0.00  0.00    +0.000 C 
BRANCH  10   9
ATOM      9  N   UNL     1      43.456   5.518  10.521  0.00  0.00    +0.000 NA
ATOM     34  H   UNL     1      42.872   5.535   9.687  0.00  0.00    +0.000 HD
BRANCH   9   8
ATOM      8  C   UNL     1      42.835   4.667  11.530  0.00  0.00    +0.000 C 
BRANCH   8   7
ATOM      7  C   UNL     1      43.379   3.245  11.390  0.00  0.00    +0.000 C 
BRANCH   7   6
ATOM      6  C   UNL     1      44.605   3.224  10.482  0.00  0.00    +0.000 C 
BRANCH   6   5
ATOM      5  C   UNL     1      44.479   2.148   9.408  0.00  0.00    +0.000 C 
BRANCH   5   4
ATOM      4  C   UNL     1      45.703   2.147   8.496  0.00  0.00    +0.000 C 
BRANCH   4   3
ATOM      3  C   UNL     1      45.724   3.384   7.603  0.00  0.00    +0.000 C 
BRANCH   3   2
ATOM      1  C   UNL     1      47.702   2.087   6.756  0.00  0.00    +0.000 C 
ATOM      2  C   UNL     1      46.746   3.235   6.479  0.00  0.00    +0.000 C 
ENDBRANCH   3   2
ENDBRANCH   4   3
ENDBRANCH   5   4
ENDBRANCH   6   5
ENDBRANCH   7   6
ENDBRANCH   8   7
ENDBRANCH   9   8
ENDBRANCH  10   9
ENDBRANCH  11  10
ENDBRANCH  15  14
BRANCH  15  16
ATOM     16  N   UNL     1      48.977   7.705  14.623  0.00  0.00    +0.000 N 
ATOM     17  C   UNL     1      50.125   7.645  15.373  0.00  0.00    +0.000 C 
ATOM     18  O   UNL     1      51.240   7.659  14.861  0.00  0.00    +0.000 OA
ATOM     35  H   UNL     1      48.085   7.560  15.073  0.00  0.00    +0.000 HD
BRANCH  17  19
ATOM     19  C   UNL     1      49.947   7.632  16.832  0.00  0.00    +0.000 A 
ATOM     20  C   UNL     1      50.505   8.641  17.600  0.00  0.00    +0.000 A 
ATOM     21  S   UNL     1      50.141   8.513  19.259  0.00  0.00    +0.000 S 
ATOM     22  C   UNL     1      49.283   7.066  19.009  0.00  0.00    +0.000 A 
ATOM     23  N   UNL     1      48.720   6.429  20.052  0.00  0.00    +0.000 NA
ATOM     24  C   UNL     1      48.117   5.296  19.696  0.00  0.00    +0.000 A 
ATOM     25  N   UNL     1      48.030   4.774  18.467  0.00  0.00    +0.000 NA
ATOM     26  C   UNL     1      48.589   5.460  17.453  0.00  0.00    +0.000 A 
ATOM     31  C   UNL     1      49.256   6.672  17.679  0.00  0.00    +0.000 A 
BRANCH  26  27
ATOM     27  O   UNL     1      48.564   4.920  16.188  0.00  0.00    +0.000 OA
BRANCH  27  28
ATOM     28  C   UNL     1      47.375   4.207  15.845  0.00  0.00    +0.000 C 
BRANCH  28  29
ATOM     29  C   UNL     1      47.169   4.313  14.340  0.00  0.00    +0.000 C 
ATOM     30  C   UNL     1      45.703   4.489  13.991  0.00  0.00    +0.000 C 
ENDBRANCH  28  29
ENDBRANCH  27  28
ENDBRANCH  26  27
ENDBRANCH  17  19
ENDBRANCH  15  16
TORSDOF 15
ENDMDL
MODEL 4
REMARK VINA RESULT:    -6.137      3.098      4.216
REMARK INTER + INTRA:         -13.623
REMARK INTER:                 -11.628
REMARK INTRA:                  -1.995
REMARK UNBOUND:                -2.104
REMARK  Name = 
REMARK  17 active torsions:
REMARK  status: ('A' for Active; 'I' for Inactive)
REMARK    1  A    between atoms: C_1  and  C_2
REMARK    2  A    between atoms: C_2  and  C_3
REMARK    3  A    between atoms: C_3  and  C_4
REMARK    4  A    between atoms: C_4  and  C_5
REMARK    5  A    between atoms: C_5  and  C_6
REMARK    6  A    between atoms: C_6  and  C_7
REMARK    7  A    between atoms: C_7  and  C_8
REMARK    8  A    between atoms: C_8  and  N_9
REMARK    9  A    between atoms: N_9  and  C_10
REMARK   10  A    between atoms: C_10  and  C_11
REMARK   11  A    between atoms: C_14  and  C_15
REMARK   12  A    between atoms: C_15  and  N_16
REMARK   13  A    between atoms: C_17  and  C_19
REMARK   14  A    between atoms: C_26  and  O_27
REMARK   15  A    between atoms: O_27  and  C_28
REMARK   16  A    between atoms: C_28  and  C_29
REMARK   17  A    between atoms: C_29  and  C_30
REMARK                            x       y       z     vdW  Elec       q    Type
REMARK                         _______ _______ _______ _____ _____    ______ ____
ROOT
ATOM     15  C   UNL     1      50.298   7.394  16.054  0.00  0.00    +0.000 C 
ENDROOT
BRANCH  15  14
ATOM     11  C   UNL     1      47.463   6.292  12.965  0.00  0.00    +0.000 A 
ATOM     12  C   UNL     1      47.409   5.702  14.236  0.00  0.00    +0.000 A 
ATOM     13  C   UNL     1      48.317   6.066  15.235  0.00  0.00    +0.000 A 
ATOM     14  C   UNL     1      49.305   7.025  14.983  0.00  0.00    +0.000 A 
ATOM     32  C   UNL     1      49.376   7.599  13.706  0.00  0.00    +0.000 A 
ATOM     33  C   UNL     1      48.462   7.241  12.710  0.00  0.00    +0.000 A 
BRANCH  11  10
ATOM     10  C   UNL     1      46.476   5.897  11.889  0.00  0.00    +0.000 C 
BRANCH  10   9
ATOM      9  N   UNL     1      45.100   5.994  12.371  0.00  0.00    +0.000 NA
ATOM     34  H   UNL     1      45.088   6.472  13.269  0.00  0.00    +0.000 HD
BRANCH   9   8
ATOM      8  C   UNL     1      44.497   4.673  12.517  0.00  0.00    +0.000 C 
BRANCH   8   7
ATOM      7  C   UNL     1      45.017   3.760  11.407  0.00  0.00    +0.000 C 
BRANCH   7   6
ATOM      6  C   UNL     1      43.949   3.553  10.335  0.00  0.00    +0.000 C 
BRANCH   6   5
ATOM      5  C   UNL     1      44.442   4.019   8.968  0.00  0.00    +0.000 C 
BRANCH   5   4
ATOM      4  C   UNL     1      45.548   3.103   8.450  0.00  0.00    +0.000 C 
BRANCH   4   3
ATOM      3  C   UNL     1      46.449   3.835   7.459  0.00  0.00    +0.000 C 
BRANCH   3   2
ATOM      1  C   UNL     1      47.600   1.739   6.684  0.00  0.00    +0.000 C 
ATOM      2  C   UNL     1      46.783   2.949   6.262  0.00  0.00    +0.000 C 
ENDBRANCH   3   2
ENDBRANCH   4   3
ENDBRANCH   5   4
ENDBRANCH   6   5
ENDBRANCH   7   6
ENDBRANCH   8   7
ENDBRANCH   9   8
ENDBRANCH  10   9
ENDBRANCH  11  10
ENDBRANCH  15  14
BRANCH  15  16
ATOM     16  N   UNL     1      51.085   6.254  16.448  0.00  0.00    +0.000 N 
ATOM     17  C   UNL     1      51.340   5.979  17.768  0.00  0.00    +0.000 C 
ATOM     18  O   UNL     1      50.821   6.618  18.680  0.00  0.00    +0.000 OA
ATOM     35  H   UNL     1      51.631   5.794  15.734  0.00  0.00    +0.000 HD
BRANCH  17  19
ATOM     19  C   UNL     1      52.218   4.831  18.036  0.00  0.00    +0.000 A 
ATOM     20  C   UNL     1      53.501   5.045  18.514  0.00  0.00    +0.000 A 
ATOM     21  S   UNL     1      54.354   3.607  18.839  0.00  0.00    +0.000 S 
ATOM     22  C   UNL     1      53.057   2.656  18.285  0.00  0.00    +0.000 A 
ATOM     23  N   UNL     1      53.158   1.314  18.290  0.00  0.00    +0.000 NA
ATOM     24  C   UNL     1      52.075   0.717  17.794  0.00  0.00    +0.000 A 
ATOM     25  N   UNL     1      50.968   1.303  17.323  0.00  0.00    +0.000 NA
ATOM     26  C   UNL     1      50.906   2.647  17.361  0.00  0.00    +0.000 A 
ATOM     31  C   UNL     1      51.972   3.409  17.860  0.00  0.00    +0.000 A 
BRANCH  26  27
ATOM     27  O   UNL     1      49.805   3.279  16.832  0.00  0.00    +0.000 OA
BRANCH  27  28
ATOM     28  C   UNL     1      48.646   2.462  16.664  0.00  0.00    +0.000 C 
BRANCH  28  29
ATOM     29  C   UNL     1      47.490   3.108  17.415  0.00  0.00    +0.000 C 
ATOM     30  C   UNL     1      47.967   4.248  18.294  0.00  0.00    +0.000 C 
ENDBRANCH  28  29
ENDBRANCH  27  28
ENDBRANCH  26  27
ENDBRANCH  17  19
ENDBRANCH  15  16
TORSDOF 15
ENDMDL
MODEL 5
REMARK VINA RESULT:    -5.969      3.305      4.947
REMARK INTER + INTRA:         -13.308
REMARK INTER:                 -11.469
REMARK INTRA:                  -1.839
REMARK UNBOUND:                -2.104
REMARK  Name = 
REMARK  17 active torsions:
REMARK  status: ('A' for Active; 'I' for Inactive)
REMARK    1  A    between atoms: C_1  and  C_2
REMARK    2  A    between atoms: C_2  and  C_3
REMARK    3  A    between atoms: C_3  and  C_4
REMARK    4  A    between atoms: C_4  and  C_5
REMARK    5  A    between atoms: C_5  and  C_6
REMARK    6  A    between atoms: C_6  and  C_7
REMARK    7  A    between atoms: C_7  and  C_8
REMARK    8  A    between atoms: C_8  and  N_9
REMARK    9  A    between atoms: N_9  and  C_10
REMARK   10  A    between atoms: C_10  and  C_11
REMARK   11  A    between atoms: C_14  and  C_15
REMARK   12  A    between atoms: C_15  and  N_16
REMARK   13  A    between atoms: C_17  and  C_19
REMARK   14  A    between atoms: C_26  and  O_27
REMARK   15  A    between atoms: O_27  and  C_28
REMARK   16  A    between atoms: C_28  and  C_29
REMARK   17  A    between atoms: C_29  and  C_30
REMARK                            x       y       z     vdW  Elec       q    Type
REMARK                         _______ _______ _______ _____ _____    ______ ____
ROOT
ATOM     15  C   UNL     1      47.697   3.457  17.208  0.00  0.00    +0.000 C 
ENDROOT
BRANCH  15  14
ATOM     11  C   UNL     1      47.292   5.691  13.516  0.00  0.00    +0.000 A 
ATOM     12  C   UNL     1      46.774   4.392  13.633  0.00  0.00    +0.000 A 
ATOM     13  C   UNL     1      46.896   3.677  14.828  0.00  0.00    +0.000 A 
ATOM     14  C   UNL     1      47.545   4.242  15.932  0.00  0.00    +0.000 A 
ATOM     32  C   UNL     1      48.083   5.530  15.810  0.00  0.00    +0.000 A 
ATOM     33  C   UNL     1      47.954   6.249  14.617  0.00  0.00    +0.000 A 
BRANCH  11  10
ATOM     10  C   UNL     1      47.154   6.462  12.221  0.00  0.00    +0.000 C 
BRANCH  10   9
ATOM      9  N   UNL     1      45.976   7.326  12.242  0.00  0.00    +0.000 NA
ATOM     34  H   UNL     1      45.738   7.554  13.206  0.00  0.00    +0.000 HD
BRANCH   9   8
ATOM      8  C   UNL     1      44.835   6.679  11.603  0.00  0.00    +0.000 C 
BRANCH   8   7
ATOM      7  C   UNL     1      45.343   5.695  10.549  0.00  0.00    +0.000 C 
BRANCH   7   6
ATOM      6  C   UNL     1      44.295   4.621  10.267  0.00  0.00    +0.000 C 
BRANCH   6   5
ATOM      5  C   UNL     1      44.926   3.393   9.615  0.00  0.00    +0.000 C 
BRANCH   5   4
ATOM      4  C   UNL     1      44.931   3.529   8.095  0.00  0.00    +0.000 C 
BRANCH   4   3
ATOM      3  C   UNL     1      46.339   3.799   7.572  0.00  0.00    +0.000 C 
BRANCH   3   2
ATOM      1  C   UNL     1      47.485   1.679   6.860  0.00  0.00    +0.000 C 
ATOM      2  C   UNL     1      46.676   2.881   6.401  0.00  0.00    +0.000 C 
ENDBRANCH   3   2
ENDBRANCH   4   3
ENDBRANCH   5   4
ENDBRANCH   6   5
ENDBRANCH   7   6
ENDBRANCH   8   7
ENDBRANCH   9   8
ENDBRANCH  10   9
ENDBRANCH  11  10
ENDBRANCH  15  14
BRANCH  15  16
ATOM     16  N   UNL     1      49.087   3.278  17.546  0.00  0.00    +0.000 N 
ATOM     17  C   UNL     1      49.860   2.329  16.927  0.00  0.00    +0.000 C 
ATOM     18  O   UNL     1      49.444   1.664  15.981  0.00  0.00    +0.000 OA
ATOM     35  H   UNL     1      49.419   3.707  18.398  0.00  0.00    +0.000 HD
BRANCH  17  19
ATOM     19  C   UNL     1      51.240   2.196  17.413  0.00  0.00    +0.000 A 
ATOM     20  C   UNL     1      51.777   0.935  17.620  0.00  0.00    +0.000 A 
ATOM     21  S   UNL     1      53.407   0.962  18.112  0.00  0.00    +0.000 S 
ATOM     22  C   UNL     1      53.424   2.663  18.129  0.00  0.00    +0.000 A 
ATOM     23  N   UNL     1      54.544   3.320  18.481  0.00  0.00    +0.000 NA
ATOM     24  C   UNL     1      54.384   4.644  18.479  0.00  0.00    +0.000 A 
ATOM     25  N   UNL     1      53.274   5.327  18.173  0.00  0.00    +0.000 NA
ATOM     26  C   UNL     1      52.187   4.625  17.803  0.00  0.00    +0.000 A 
ATOM     31  C   UNL     1      52.210   3.223  17.758  0.00  0.00    +0.000 A 
BRANCH  26  27
ATOM     27  O   UNL     1      51.017   5.297  17.539  0.00  0.00    +0.000 OA
BRANCH  27  28
ATOM     28  C   UNL     1      50.932   6.620  18.070  0.00  0.00    +0.000 C 
BRANCH  28  29
ATOM     29  C   UNL     1      49.670   6.719  18.915  0.00  0.00    +0.000 C 
ATOM     30  C   UNL     1      49.649   5.666  20.007  0.00  0.00    +0.000 C 
ENDBRANCH  28  29
ENDBRANCH  27  28
ENDBRANCH  26  27
ENDBRANCH  17  19
ENDBRANCH  15  16
TORSDOF 15
ENDMDL
MODEL 6
REMARK VINA RESULT:    -5.765      2.874      8.740
REMARK INTER + INTRA:         -12.925
REMARK INTER:                  -9.528
REMARK INTRA:                  -3.397
REMARK UNBOUND:                -2.104
REMARK  Name = 
REMARK  17 active torsions:
REMARK  status: ('A' for Active; 'I' for Inactive)
REMARK    1  A    between atoms: C_1  and  C_2
REMARK    2  A    between atoms: C_2  and  C_3
REMARK    3  A    between atoms: C_3  and  C_4
REMARK    4  A    between atoms: C_4  and  C_5
REMARK    5  A    between atoms: C_5  and  C_6
REMARK    6  A    between atoms: C_6  and  C_7
REMARK    7  A    between atoms: C_7  and  C_8
REMARK    8  A    between atoms: C_8  and  N_9
REMARK    9  A    between atoms: N_9  and  C_10
REMARK   10  A    between atoms: C_10  and  C_11
REMARK   11  A    between atoms: C_14  and  C_15
REMARK   12  A    between atoms: C_15  and  N_16
REMARK   13  A    between atoms: C_17  and  C_19
REMARK   14  A    between atoms: C_26  and  O_27
REMARK   15  A    between atoms: O_27  and  C_28
REMARK   16  A    between atoms: C_28  and  C_29
REMARK   17  A    between atoms: C_29  and  C_30
REMARK                            x       y       z     vdW  Elec       q    Type
REMARK                         _______ _______ _______ _____ _____    ______ ____
ROOT
ATOM     15  C   UNL     1      47.190   3.422  16.430  0.00  0.00    +0.000 C 
ENDROOT
BRANCH  15  14
ATOM     11  C   UNL     1      50.126   4.732  19.338  0.00  0.00    +0.000 A 
ATOM     12  C   UNL     1      50.471   3.826  18.323  0.00  0.00    +0.000 A 
ATOM     13  C   UNL     1      49.526   3.412  17.380  0.00  0.00    +0.000 A 
ATOM     14  C   UNL     1      48.212   3.891  17.433  0.00  0.00    +0.000 A 
ATOM     32  C   UNL     1      47.859   4.778  18.459  0.00  0.00    +0.000 A 
ATOM     33  C   UNL     1      48.807   5.198  19.398  0.00  0.00    +0.000 A 
BRANCH  11  10
ATOM     10  C   UNL     1      51.154   5.179  20.354  0.00  0.00    +0.000 C 
BRANCH  10   9
ATOM      9  N   UNL     1      52.494   5.216  19.772  0.00  0.00    +0.000 NA
ATOM     34  H   UNL     1      53.188   5.141  20.512  0.00  0.00    +0.000 HD
BRANCH   9   8
ATOM      8  C   UNL     1      52.712   6.452  19.027  0.00  0.00    +0.000 C 
BRANCH   8   7
ATOM      7  C   UNL     1      53.408   6.125  17.706  0.00  0.00    +0.000 C 
BRANCH   7   6
ATOM      6  C   UNL     1      52.505   6.462  16.523  0.00  0.00    +0.000 C 
BRANCH   6   5
ATOM      5  C   UNL     1      51.310   7.303  16.963  0.00  0.00    +0.000 C 
BRANCH   5   4
ATOM      4  C   UNL     1      50.055   6.907  16.190  0.00  0.00    +0.000 C 
BRANCH   4   3
ATOM      3  C   UNL     1      48.890   7.837  16.520  0.00  0.00    +0.000 C 
BRANCH   3   2
ATOM      1  C   UNL     1      47.711   8.688  18.569  0.00  0.00    +0.000 C 
ATOM      2  C   UNL     1      49.057   8.459  17.903  0.00  0.00    +0.000 C 
ENDBRANCH   3   2
ENDBRANCH   4   3
ENDBRANCH   5   4
ENDBRANCH   6   5
ENDBRANCH   7   6
ENDBRANCH   8   7
ENDBRANCH   9   8
ENDBRANCH  10   9
ENDBRANCH  11  10
ENDBRANCH  15  14
BRANCH  15  16
ATOM     16  N   UNL     1      46.764   4.504  15.578  0.00  0.00    +0.000 N 
ATOM     17  C   UNL     1      46.957   4.467  14.220  0.00  0.00    +0.000 C 
ATOM     18  O   UNL     1      47.394   3.471  13.650  0.00  0.00    +0.000 OA
ATOM     35  H   UNL     1      46.528   5.381  16.019  0.00  0.00    +0.000 HD
BRANCH  17  19
ATOM     19  C   UNL     1      46.546   5.663  13.472  0.00  0.00    +0.000 A 
ATOM     20  C   UNL     1      47.398   6.754  13.401  0.00  0.00    +0.000 A 
ATOM     21  S   UNL     1      46.798   8.023  12.436  0.00  0.00    +0.000 S 
ATOM     22  C   UNL     1      45.351   7.179  12.140  0.00  0.00    +0.000 A 
ATOM     23  N   UNL     1      44.393   7.735  11.376  0.00  0.00    +0.000 NA
ATOM     24  C   UNL     1      43.311   6.964  11.270  0.00  0.00    +0.000 A 
ATOM     25  N   UNL     1      43.113   5.762  11.823  0.00  0.00    +0.000 NA
ATOM     26  C   UNL     1      44.110   5.238  12.559  0.00  0.00    +0.000 A 
ATOM     31  C   UNL     1      45.310   5.936  12.756  0.00  0.00    +0.000 A 
BRANCH  26  27
ATOM     27  O   UNL     1      43.913   4.030  13.186  0.00  0.00    +0.000 OA
BRANCH  27  28
ATOM     28  C   UNL     1      43.699   2.914  12.322  0.00  0.00    +0.000 C 
BRANCH  28  29
ATOM     29  C   UNL     1      44.835   2.865  11.310  0.00  0.00    +0.000 C 
ATOM     30  C   UNL     1      44.315   2.652   9.900  0.00  0.00    +0.000 C 
ENDBRANCH  28  29
ENDBRANCH  27  28
ENDBRANCH  26  27
ENDBRANCH  17  19
ENDBRANCH  15  16
TORSDOF 15
ENDMDL
MODEL 7
REMARK VINA RESULT:    -5.752      2.835      3.807
REMARK INTER + INTRA:         -12.901
REMARK INTER:                 -10.262
REMARK INTRA:                  -2.639
REMARK UNBOUND:                -2.104
REMARK  Name = 
REMARK  17 active torsions:
REMARK  status: ('A' for Active; 'I' for Inactive)
REMARK    1  A    between atoms: C_1  and  C_2
REMARK    2  A    between atoms: C_2  and  C_3
REMARK    3  A    between atoms: C_3  and  C_4
REMARK    4  A    between atoms: C_4  and  C_5
REMARK    5  A    between atoms: C_5  and  C_6
REMARK    6  A    between atoms: C_6  and  C_7
REMARK    7  A    between atoms: C_7  and  C_8
REMARK    8  A    between atoms: C_8  and  N_9
REMARK    9  A    between atoms: N_9  and  C_10
REMARK   10  A    between atoms: C_10  and  C_11
REMARK   11  A    between atoms: C_14  and  C_15
REMARK   12  A    between atoms: C_15  and  N_16
REMARK   13  A    between atoms: C_17  and  C_19
REMARK   14  A    between atoms: C_26  and  O_27
REMARK   15  A    between atoms: O_27  and  C_28
REMARK   16  A    between atoms: C_28  and  C_29
REMARK   17  A    between atoms: C_29  and  C_30
REMARK                            x       y       z     vdW  Elec       q    Type
REMARK                         _______ _______ _______ _____ _____    ______ ____
ROOT
ATOM     15  C   UNL     1      48.909   9.532  11.721  0.00  0.00    +0.000 C 
ENDROOT
BRANCH  15  14
ATOM     11  C   UNL     1      45.650   6.811  12.597  0.00  0.00    +0.000 A 
ATOM     12  C   UNL     1      46.854   6.341  12.052  0.00  0.00    +0.000 A 
ATOM     13  C   UNL     1      47.908   7.218  11.780  0.00  0.00    +0.000 A 
ATOM     14  C   UNL     1      47.779   8.588  12.041  0.00  0.00    +0.000 A 
ATOM     32  C   UNL     1      46.570   9.063  12.564  0.00  0.00    +0.000 A 
ATOM     33  C   UNL     1      45.518   8.184  12.844  0.00  0.00    +0.000 A 
BRANCH  11  10
ATOM     10  C   UNL     1      44.514   5.857  12.894  0.00  0.00    +0.000 C 
BRANCH  10   9
ATOM      9  N   UNL     1      43.350   6.144  12.058  0.00  0.00    +0.000 NA
ATOM     34  H   UNL     1      42.542   6.324  12.651  0.00  0.00    +0.000 HD
BRANCH   9   8
ATOM      8  C   UNL     1      43.055   5.030  11.163  0.00  0.00    +0.000 C 
BRANCH   8   7
ATOM      7  C   UNL     1      43.936   3.839  11.538  0.00  0.00    +0.000 C 
BRANCH   7   6
ATOM      6  C   UNL     1      44.783   3.399  10.346  0.00  0.00    +0.000 C 
BRANCH   6   5
ATOM      5  C   UNL     1      44.460   4.226   9.105  0.00  0.00    +0.000 C 
BRANCH   5   4
ATOM      4  C   UNL     1      44.922   3.507   7.840  0.00  0.00    +0.000 C 
BRANCH   4   3
ATOM      3  C   UNL     1      46.387   3.813   7.538  0.00  0.00    +0.000 C 
BRANCH   3   2
ATOM      1  C   UNL     1      46.863   1.346   7.593  0.00  0.00    +0.000 C 
ATOM      2  C   UNL     1      47.058   2.643   6.825  0.00  0.00    +0.000 C 
ENDBRANCH   3   2
ENDBRANCH   4   3
ENDBRANCH   5   4
ENDBRANCH   6   5
ENDBRANCH   7   6
ENDBRANCH   8   7
ENDBRANCH   9   8
ENDBRANCH  10   9
ENDBRANCH  11  10
ENDBRANCH  15  14
BRANCH  15  16
ATOM     16  N   UNL     1      49.985   9.395  12.669  0.00  0.00    +0.000 N 
ATOM     17  C   UNL     1      51.135   8.714  12.356  0.00  0.00    +0.000 C 
ATOM     18  O   UNL     1      51.354   8.288  11.226  0.00  0.00    +0.000 OA
ATOM     35  H   UNL     1      49.787   9.612  13.635  0.00  0.00    +0.000 HD
BRANCH  17  19
ATOM     19  C   UNL     1      52.125   8.581  13.434  0.00  0.00    +0.000 A 
ATOM     20  C   UNL     1      53.404   9.085  13.257  0.00  0.00    +0.000 A 
ATOM     21  S   UNL     1      54.398   8.912  14.629  0.00  0.00    +0.000 S 
ATOM     22  C   UNL     1      53.169   8.098  15.478  0.00  0.00    +0.000 A 
ATOM     23  N   UNL     1      53.392   7.665  16.732  0.00  0.00    +0.000 NA
ATOM     24  C   UNL     1      52.345   7.017  17.244  0.00  0.00    +0.000 A 
ATOM     25  N   UNL     1      51.169   6.779  16.652  0.00  0.00    +0.000 NA
ATOM     26  C   UNL     1      50.987   7.252  15.406  0.00  0.00    +0.000 A 
ATOM     31  C   UNL     1      52.002   7.956  14.742  0.00  0.00    +0.000 A 
BRANCH  26  27
ATOM     27  O   UNL     1      49.810   6.974  14.752  0.00  0.00    +0.000 OA
BRANCH  27  28
ATOM     28  C   UNL     1      48.616   7.226  15.495  0.00  0.00    +0.000 C 
BRANCH  28  29
ATOM     29  C   UNL     1      48.466   8.732  15.665  0.00  0.00    +0.000 C 
ATOM     30  C   UNL     1      48.136   9.098  17.100  0.00  0.00    +0.000 C 
ENDBRANCH  28  29
ENDBRANCH  27  28
ENDBRANCH  26  27
ENDBRANCH  17  19
ENDBRANCH  15  16
TORSDOF 15
ENDMDL
MODEL 8
REMARK VINA RESULT:    -5.709      3.534      8.820
REMARK INTER + INTRA:         -12.819
REMARK INTER:                  -9.662
REMARK INTRA:                  -3.158
REMARK UNBOUND:                -2.104
REMARK  Name = 
REMARK  17 active torsions:
REMARK  status: ('A' for Active; 'I' for Inactive)
REMARK    1  A    between atoms: C_1  and  C_2
REMARK    2  A    between atoms: C_2  and  C_3
REMARK    3  A    between atoms: C_3  and  C_4
REMARK    4  A    between atoms: C_4  and  C_5
REMARK    5  A    between atoms: C_5  and  C_6
REMARK    6  A    between atoms: C_6  and  C_7
REMARK    7  A    between atoms: C_7  and  C_8
REMARK    8  A    between atoms: C_8  and  N_9
REMARK    9  A    between atoms: N_9  and  C_10
REMARK   10  A    between atoms: C_10  and  C_11
REMARK   11  A    between atoms: C_14  and  C_15
REMARK   12  A    between atoms: C_15  and  N_16
REMARK   13  A    between atoms: C_17  and  C_19
REMARK   14  A    between atoms: C_26  and  O_27
REMARK   15  A    between atoms: O_27  and  C_28
REMARK   16  A    between atoms: C_28  and  C_29
REMARK   17  A    between atoms: C_29  and  C_30
REMARK                            x       y       z     vdW  Elec       q    Type
REMARK                         _______ _______ _______ _____ _____    ______ ____
ROOT
ATOM     15  C   UNL     1      47.476   3.927  15.959  0.00  0.00    +0.000 C 
ENDROOT
BRANCH  15  14
ATOM     11  C   UNL     1      48.822   6.719  18.990  0.00  0.00    +0.000 A 
ATOM     12  C   UNL     1      48.012   5.623  19.328  0.00  0.00    +0.000 A 
ATOM     13  C   UNL     1      47.588   4.718  18.351  0.00  0.00    +0.000 A 
ATOM     14  C   UNL     1      47.958   4.890  17.012  0.00  0.00    +0.000 A 
ATOM     32  C   UNL     1      48.748   5.996  16.669  0.00  0.00    +0.000 A 
ATOM     33  C   UNL     1      49.179   6.898  17.647  0.00  0.00    +0.000 A 
BRANCH  11  10
ATOM     10  C   UNL     1      49.281   7.694  20.052  0.00  0.00    +0.000 C 
BRANCH  10   9
ATOM      9  N   UNL     1      50.692   8.033  19.884  0.00  0.00    +0.000 NA
ATOM     34  H   UNL     1      50.916   8.077  18.892  0.00  0.00    +0.000 HD
BRANCH   9   8
ATOM      8  C   UNL     1      51.553   7.048  20.531  0.00  0.00    +0.000 C 
BRANCH   8   7
ATOM      7  C   UNL     1      52.522   6.473  19.498  0.00  0.00    +0.000 C 
BRANCH   7   6
ATOM      6  C   UNL     1      52.634   4.958  19.649  0.00  0.00    +0.000 C 
BRANCH   6   5
ATOM      5  C   UNL     1      51.384   4.257  19.125  0.00  0.00    +0.000 C 
BRANCH   5   4
ATOM      4  C   UNL     1      51.602   3.755  17.700  0.00  0.00    +0.000 C 
BRANCH   4   3
ATOM      3  C   UNL     1      50.746   2.525  17.414  0.00  0.00    +0.000 C 
BRANCH   3   2
ATOM      1  C   UNL     1      53.048   1.539  17.625  0.00  0.00    +0.000 C 
ATOM      2  C   UNL     1      51.559   1.242  17.561  0.00  0.00    +0.000 C 
ENDBRANCH   3   2
ENDBRANCH   4   3
ENDBRANCH   5   4
ENDBRANCH   6   5
ENDBRANCH   7   6
ENDBRANCH   8   7
ENDBRANCH   9   8
ENDBRANCH  10   9
ENDBRANCH  11  10
ENDBRANCH  15  14
BRANCH  15  16
ATOM     16  N   UNL     1      46.567   4.569  15.043  0.00  0.00    +0.000 N 
ATOM     17  C   UNL     1      46.318   4.050  13.798  0.00  0.00    +0.000 C 
ATOM     18  O   UNL     1      46.762   2.962  13.443  0.00  0.00    +0.000 OA
ATOM     35  H   UNL     1      46.294   5.519  15.246  0.00  0.00    +0.000 HD
BRANCH  17  19
ATOM     19  C   UNL     1      45.430   4.839  12.931  0.00  0.00    +0.000 A 
ATOM     20  C   UNL     1      44.365   4.220  12.295  0.00  0.00    +0.000 A 
ATOM     21  S   UNL     1      43.398   5.292  11.392  0.00  0.00    +0.000 S 
ATOM     22  C   UNL     1      44.413   6.604  11.770  0.00  0.00    +0.000 A 
ATOM     23  N   UNL     1      44.137   7.828  11.286  0.00  0.00    +0.000 NA
ATOM     24  C   UNL     1      45.045   8.737  11.642  0.00  0.00    +0.000 A 
ATOM     25  N   UNL     1      46.135   8.544  12.394  0.00  0.00    +0.000 NA
ATOM     26  C   UNL     1      46.355   7.307  12.874  0.00  0.00    +0.000 A 
ATOM     31  C   UNL     1      45.481   6.250  12.582  0.00  0.00    +0.000 A 
BRANCH  26  27
ATOM     27  O   UNL     1      47.496   7.066  13.602  0.00  0.00    +0.000 OA
BRANCH  27  28
ATOM     28  C   UNL     1      48.640   6.674  12.843  0.00  0.00    +0.000 C 
BRANCH  28  29
ATOM     29  C   UNL     1      49.704   7.755  12.983  0.00  0.00    +0.000 C 
ATOM     30  C   UNL     1      49.721   8.675  11.777  0.00  0.00    +0.000 C 
ENDBRANCH  28  29
ENDBRANCH  27  28
ENDBRANCH  26  27
ENDBRANCH  17  19
ENDBRANCH  15  16
TORSDOF 15
ENDMDL
MODEL 9
REMARK VINA RESULT:    -5.675      1.680      3.151
REMARK INTER + INTRA:         -12.756
REMARK INTER:                 -11.011
REMARK INTRA:                  -1.746
REMARK UNBOUND:                -2.104
REMARK  Name = 
REMARK  17 active torsions:
REMARK  status: ('A' for Active; 'I' for Inactive)
REMARK    1  A    between atoms: C_1  and  C_2
REMARK    2  A    between atoms: C_2  and  C_3
REMARK    3  A    between atoms: C_3  and  C_4
REMARK    4  A    between atoms: C_4  and  C_5
REMARK    5  A    between atoms: C_5  and  C_6
REMARK    6  A    between atoms: C_6  and  C_7
REMARK    7  A    between atoms: C_7  and  C_8
REMARK    8  A    between atoms: C_8  and  N_9
REMARK    9  A    between atoms: N_9  and  C_10
REMARK   10  A    between atoms: C_10  and  C_11
REMARK   11  A    between atoms: C_14  and  C_15
REMARK   12  A    between atoms: C_15  and  N_16
REMARK   13  A    between atoms: C_17  and  C_19
REMARK   14  A    between atoms: C_26  and  O_27
REMARK   15  A    between atoms: O_27  and  C_28
REMARK   16  A    between atoms: C_28  and  C_29
REMARK   17  A    between atoms: C_29  and  C_30
REMARK                            x       y       z     vdW  Elec       q    Type
REMARK                         _______ _______ _______ _____ _____    ______ ____
ROOT
ATOM     15  C   UNL     1      48.546   6.568  14.261  0.00  0.00    +0.000 C 
ENDROOT
BRANCH  15  14
ATOM     11  C   UNL     1      44.982   5.209  12.201  0.00  0.00    +0.000 A 
ATOM     12  C   UNL     1      45.539   4.460  13.248  0.00  0.00    +0.000 A 
ATOM     13  C   UNL     1      46.682   4.904  13.918  0.00  0.00    +0.000 A 
ATOM     14  C   UNL     1      47.299   6.106  13.553  0.00  0.00    +0.000 A 
ATOM     32  C   UNL     1      46.758   6.845  12.493  0.00  0.00    +0.000 A 
ATOM     33  C   UNL     1      45.609   6.405  11.827  0.00  0.00    +0.000 A 
BRANCH  11  10
ATOM     10  C   UNL     1      43.742   4.726  11.481  0.00  0.00    +0.000 C 
BRANCH  10   9
ATOM      9  N   UNL     1      43.795   3.285  11.245  0.00  0.00    +0.000 NA
ATOM     34  H   UNL     1      44.192   2.822  12.060  0.00  0.00    +0.000 HD
BRANCH   9   8
ATOM      8  C   UNL     1      44.599   2.971  10.069  0.00  0.00    +0.000 C 
BRANCH   8   7
ATOM      7  C   UNL     1      44.505   4.128   9.074  0.00  0.00    +0.000 C 
BRANCH   7   6
ATOM      6  C   UNL     1      45.726   4.152   8.159  0.00  0.00    +0.000 C 
BRANCH   6   5
ATOM      5  C   UNL     1      45.576   3.156   7.012  0.00  0.00    +0.000 C 
BRANCH   5   4
ATOM      4  C   UNL     1      46.910   2.947   6.299  0.00  0.00    +0.000 C 
BRANCH   4   3
ATOM      3  C   UNL     1      47.691   1.793   6.923  0.00  0.00    +0.000 C 
BRANCH   3   2
ATOM      1  C   UNL     1      46.613  -0.440   7.331  0.00  0.00    +0.000 C 
ATOM      2  C   UNL     1      46.807   0.972   7.858  0.00  0.00    +0.000 C 
ENDBRANCH   3   2
ENDBRANCH   4   3
ENDBRANCH   5   4
ENDBRANCH   6   5
ENDBRANCH   7   6
ENDBRANCH   8   7
ENDBRANCH   9   8
ENDBRANCH  10   9
ENDBRANCH  11  10
ENDBRANCH  15  14
BRANCH  15  16
ATOM     16  N   UNL     1      48.277   6.864  15.646  0.00  0.00    +0.000 N 
ATOM     17  C   UNL     1      48.818   6.113  16.659  0.00  0.00    +0.000 C 
ATOM     18  O   UNL     1      49.642   5.228  16.446  0.00  0.00    +0.000 OA
ATOM     35  H   UNL     1      47.511   7.489  15.849  0.00  0.00    +0.000 HD
BRANCH  17  19
ATOM     19  C   UNL     1      48.408   6.471  18.024  0.00  0.00    +0.000 A 
ATOM     20  C   UNL     1      47.791   5.524  18.826  0.00  0.00    +0.000 A 
ATOM     21  S   UNL     1      47.450   6.084  20.398  0.00  0.00    +0.000 S 
ATOM     22  C   UNL     1      48.056   7.630  20.032  0.00  0.00    +0.000 A 
ATOM     23  N   UNL     1      48.041   8.597  20.968  0.00  0.00    +0.000 NA
ATOM     24  C   UNL     1      48.516   9.757  20.515  0.00  0.00    +0.000 A 
ATOM     25  N   UNL     1      48.978  10.021  19.287  0.00  0.00    +0.000 NA
ATOM     26  C   UNL     1      48.994   9.015  18.393  0.00  0.00    +0.000 A 
ATOM     31  C   UNL     1      48.526   7.737  18.731  0.00  0.00    +0.000 A 
BRANCH  26  27
ATOM     27  O   UNL     1      49.409   9.271  17.107  0.00  0.00    +0.000 OA
BRANCH  27  28
ATOM     28  C   UNL     1      48.751  10.357  16.452  0.00  0.00    +0.000 C 
BRANCH  28  29
ATOM     29  C   UNL     1      49.578  10.757  15.237  0.00  0.00    +0.000 C 
ATOM     30  C   UNL     1      48.975  10.219  13.953  0.00  0.00    +0.000 C 
ENDBRANCH  28  29
ENDBRANCH  27  28
ENDBRANCH  26  27
ENDBRANCH  17  19
ENDBRANCH  15  16
TORSDOF 15
ENDMDL
