MODEL 1
REMARK VINA RESULT:    -7.883      0.000      0.000
REMARK INTER + INTRA:         -10.423
REMARK INTER:                  -9.726
REMARK INTRA:                  -0.697
REMARK UNBOUND:                -0.697
REMARK  Name = 
REMARK  6 active torsions:
REMARK  status: ('A' for Active; 'I' for Inactive)
REMARK    1  A    between atoms: C_1  and  C_2
REMARK    2  A    between atoms: C_2  and  C_3
REMARK    3  A    between atoms: C_2  and  C_4
REMARK    4  A    between atoms: C_2  and  C_15
REMARK    5  A    between atoms: C_4  and  N_5
REMARK    6  A    between atoms: C_9  and  C_10
REMARK                            x       y       z     vdW  Elec       q    Type
REMARK                         _______ _______ _______ _____ _____    ______ ____
ROOT
ATOM      5  N   UNL     1      44.007   2.939  10.218  0.00  0.00    +0.000 N 
ATOM      6  C   UNL     1      44.945   2.815   9.177  0.00  0.00    +0.000 A 
ATOM      7  C   UNL     1      45.367   1.541   8.811  0.00  0.00    +0.000 A 
ATOM      8  C   UNL     1      46.291   1.388   7.771  0.00  0.00    +0.000 A 
ATOM      9  C   UNL     1      46.781   2.518   7.110  0.00  0.00    +0.000 A 
ATOM     13  C   UNL     1      46.328   3.745   7.559  0.00  0.00    +0.000 A 
ATOM     14  N   UNL     1      45.439   3.915   8.568  0.00  0.00    +0.000 NA
ATOM     21  H   UNL     1      43.192   2.371   9.996  0.00  0.00    +0.000 HD
ENDROOT
BRANCH   9  10
ATOM     10  C   UNL     1      47.729   2.351   5.987  0.00  0.00    +0.000 C 
ATOM     11  N   UNL     1      47.662   3.214   4.928  0.00  0.00    +0.000 N 
ATOM     12  O   UNL     1      48.561   1.449   5.987  0.00  0.00    +0.000 OA
ATOM     22  H   UNL     1      47.016   3.977   4.814  0.00  0.00    +0.000 HD
ATOM     23  H   UNL     1      48.323   3.049   4.173  0.00  0.00    +0.000 HD
ENDBRANCH   9  10
BRANCH   5   4
ATOM      4  C   UNL     1      43.632   4.327  10.509  0.00  0.00    +0.000 C 
BRANCH   4   2
ATOM      1  C   UNL     1      42.601   5.580  12.444  0.00  0.00    +0.000 C 
ATOM      2  C   UNL     1      43.790   4.685  12.018  0.00  0.00    +0.000 C 
ATOM      3  C   UNL     1      43.658   3.364  12.820  0.00  0.00    +0.000 C 
BRANCH   2  15
ATOM     15  C   UNL     1      45.161   5.323  12.330  0.00  0.00    +0.000 A 
ATOM     16  C   UNL     1      45.874   5.021  13.507  0.00  0.00    +0.000 A 
ATOM     17  C   UNL     1      47.150   5.543  13.742  0.00  0.00    +0.000 A 
ATOM     18  C   UNL     1      47.740   6.388  12.813  0.00  0.00    +0.000 A 
ATOM     19  C   UNL     1      47.046   6.729  11.657  0.00  0.00    +0.000 A 
ATOM     20  C   UNL     1      45.769   6.206  11.420  0.00  0.00    +0.000 A 
ENDBRANCH   2  15
ENDBRANCH   4   2
ENDBRANCH   5   4
TORSDOF 4
ENDMDL
MODEL 2
REMARK VINA RESULT:    -7.742      1.524      2.054
REMARK INTER + INTRA:         -10.249
REMARK INTER:                  -9.874
REMARK INTRA:                  -0.375
REMARK UNBOUND:                -0.697
REMARK  Name = 
REMARK  6 active torsions:
REMARK  status: ('A' for Active; 'I' for Inactive)
REMARK    1  A    between atoms: C_1  and  C_2
REMARK    2  A    between atoms: C_2  and  C_3
REMARK    3  A    between atoms: C_2  and  C_4
REMARK    4  A    between atoms: C_2  and  C_15
REMARK    5  A    between atoms: C_4  and  N_5
REMARK    6  A    between atoms: C_9  and  C_10
REMARK                            x       y       z     vdW  Elec       q    Type
REMARK                         _______ _______ _______ _____ _____    ______ ____
ROOT
ATOM      5  N   UNL     1      44.317   5.150   9.683  0.00  0.00    +0.000 N 
ATOM      6  C   UNL     1      44.995   4.088   9.060  0.00  0.00    +0.000 A 
ATOM      7  C   UNL     1      45.866   4.377   8.013  0.00  0.00    +0.000 A 
ATOM      8  C   UNL     1      46.562   3.340   7.384  0.00  0.00    +0.000 A 
ATOM      9  C   UNL     1      46.376   2.022   7.811  0.00  0.00    +0.000 A 
ATOM     13  C   UNL     1      45.471   1.824   8.837  0.00  0.00    +0.000 A 
ATOM     14  N   UNL     1      44.782   2.815   9.457  0.00  0.00    +0.000 NA
ATOM     21  H   UNL     1      44.999   5.836  10.000  0.00  0.00    +0.000 HD
ENDROOT
BRANCH   9  10
ATOM     10  C   UNL     1      47.142   0.933   7.167  0.00  0.00    +0.000 C 
ATOM     11  N   UNL     1      46.878  -0.362   7.521  0.00  0.00    +0.000 N 
ATOM     12  O   UNL     1      48.011   1.173   6.335  0.00  0.00    +0.000 OA
ATOM     22  H   UNL     1      46.203  -0.675   8.197  0.00  0.00    +0.000 HD
ATOM     23  H   UNL     1      47.442  -1.075   7.064  0.00  0.00    +0.000 HD
ENDBRANCH   9  10
BRANCH   5   4
ATOM      4  C   UNL     1      43.435   4.724  10.775  0.00  0.00    +0.000 C 
BRANCH   4   2
ATOM      1  C   UNL     1      42.942   5.169  13.212  0.00  0.00    +0.000 C 
ATOM      2  C   UNL     1      44.073   4.945  12.180  0.00  0.00    +0.000 C 
ATOM      3  C   UNL     1      44.779   3.623  12.578  0.00  0.00    +0.000 C 
BRANCH   2  15
ATOM     15  C   UNL     1      45.115   6.085  12.178  0.00  0.00    +0.000 A 
ATOM     16  C   UNL     1      44.737   7.442  12.195  0.00  0.00    +0.000 A 
ATOM     17  C   UNL     1      45.688   8.465  12.273  0.00  0.00    +0.000 A 
ATOM     18  C   UNL     1      47.040   8.157  12.326  0.00  0.00    +0.000 A 
ATOM     19  C   UNL     1      47.444   6.826  12.278  0.00  0.00    +0.000 A 
ATOM     20  C   UNL     1      46.493   5.803  12.201  0.00  0.00    +0.000 A 
ENDBRANCH   2  15
ENDBRANCH   4   2
ENDBRANCH   5   4
TORSDOF 4
ENDMDL
MODEL 3
REMARK VINA RESULT:    -6.715      4.227      6.353
REMARK INTER + INTRA:          -8.982
REMARK INTER:                  -8.512
REMARK INTRA:                  -0.469
REMARK UNBOUND:                -0.697
REMARK  Name = 
REMARK  6 active torsions:
REMARK  status: ('A' for Active; 'I' for Inactive)
REMARK    1  A    between atoms: C_1  and  C_2
REMARK    2  A    between atoms: C_2  and  C_3
REMARK    3  A    between atoms: C_2  and  C_4
REMARK    4  A    between atoms: C_2  and  C_15
REMARK    5  A    between atoms: C_4  and  N_5
REMARK    6  A    between atoms: C_9  and  C_10
REMARK                            x       y       z     vdW  Elec       q    Type
REMARK                         _______ _______ _______ _____ _____    ______ ____
ROOT
ATOM      5  N   UNL     1      47.189   5.449  14.765  0.00  0.00    +0.000 N 
ATOM      6  C   UNL     1      46.457   5.002  13.651  0.00  0.00    +0.000 A 
ATOM      7  C   UNL     1      46.168   5.910  12.637  0.00  0.00    +0.000 A 
ATOM      8  C   UNL     1      45.451   5.488  11.512  0.00  0.00    +0.000 A 
ATOM      9  C   UNL     1      45.031   4.159  11.417  0.00  0.00    +0.000 A 
ATOM     13  C   UNL     1      45.337   3.334  12.484  0.00  0.00    +0.000 A 
ATOM     14  N   UNL     1      46.025   3.724  13.586  0.00  0.00    +0.000 NA
ATOM     21  H   UNL     1      48.057   5.870  14.441  0.00  0.00    +0.000 HD
ENDROOT
BRANCH   9  10
ATOM     10  C   UNL     1      44.305   3.709  10.210  0.00  0.00    +0.000 C 
ATOM     11  N   UNL     1      44.173   4.570   9.155  0.00  0.00    +0.000 N 
ATOM     12  O   UNL     1      43.814   2.586  10.147  0.00  0.00    +0.000 OA
ATOM     22  H   UNL     1      44.520   5.512   9.101  0.00  0.00    +0.000 HD
ATOM     23  H   UNL     1      43.652   4.220   8.355  0.00  0.00    +0.000 HD
ENDBRANCH   9  10
BRANCH   5   4
ATOM      4  C   UNL     1      47.439   4.402  15.763  0.00  0.00    +0.000 C 
BRANCH   4   2
ATOM      1  C   UNL     1      48.752   6.362  16.665  0.00  0.00    +0.000 C 
ATOM      2  C   UNL     1      48.311   4.906  16.953  0.00  0.00    +0.000 C 
ATOM      3  C   UNL     1      47.395   4.962  18.203  0.00  0.00    +0.000 C 
BRANCH   2  15
ATOM     15  C   UNL     1      49.501   3.967  17.248  0.00  0.00    +0.000 A 
ATOM     16  C   UNL     1      49.427   2.578  17.030  0.00  0.00    +0.000 A 
ATOM     17  C   UNL     1      50.535   1.748  17.226  0.00  0.00    +0.000 A 
ATOM     18  C   UNL     1      51.742   2.284  17.654  0.00  0.00    +0.000 A 
ATOM     19  C   UNL     1      51.835   3.649  17.908  0.00  0.00    +0.000 A 
ATOM     20  C   UNL     1      50.726   4.480  17.711  0.00  0.00    +0.000 A 
ENDBRANCH   2  15
ENDBRANCH   4   2
ENDBRANCH   5   4
TORSDOF 4
ENDMDL
MODEL 4
REMARK VINA RESULT:    -6.713      4.639      7.712
REMARK INTER + INTRA:          -8.980
REMARK INTER:                  -8.497
REMARK INTRA:                  -0.483
REMARK UNBOUND:                -0.697
REMARK  Name = 
REMARK  6 active torsions:
REMARK  status: ('A' for Active; 'I' for Inactive)
REMARK    1  A    between atoms: C_1  and  C_2
REMARK    2  A    between atoms: C_2  and  C_3
REMARK    3  A    between atoms: C_2  and  C_4
REMARK    4  A    between atoms: C_2  and  C_15
REMARK    5  A    between atoms: C_4  and  N_5
REMARK    6  A    between atoms: C_9  and  C_10
REMARK                            x       y       z     vdW  Elec       q    Type
REMARK                         _______ _______ _______ _____ _____    ______ ____
ROOT
ATOM      5  N   UNL     1      46.536   5.472  13.721  0.00  0.00    +0.000 N 
ATOM      6  C   UNL     1      47.182   5.090  14.910  0.00  0.00    +0.000 A 
ATOM      7  C   UNL     1      48.171   5.922  15.425  0.00  0.00    +0.000 A 
ATOM      8  C   UNL     1      48.821   5.572  16.614  0.00  0.00    +0.000 A 
ATOM      9  C   UNL     1      48.472   4.390  17.271  0.00  0.00    +0.000 A 
ATOM     13  C   UNL     1      47.499   3.610  16.673  0.00  0.00    +0.000 A 
ATOM     14  N   UNL     1      46.861   3.929  15.519  0.00  0.00    +0.000 NA
ATOM     21  H   UNL     1      46.153   6.408  13.839  0.00  0.00    +0.000 HD
ENDROOT
BRANCH   9  10
ATOM     10  C   UNL     1      49.136   4.041  18.546  0.00  0.00    +0.000 C 
ATOM     11  N   UNL     1      48.447   3.310  19.476  0.00  0.00    +0.000 N 
ATOM     12  O   UNL     1      50.283   4.405  18.785  0.00  0.00    +0.000 OA
ATOM     22  H   UNL     1      47.503   2.972  19.395  0.00  0.00    +0.000 HD
ATOM     23  H   UNL     1      48.939   3.110  20.343  0.00  0.00    +0.000 HD
ENDBRANCH   9  10
BRANCH   5   4
ATOM      4  C   UNL     1      45.508   4.522  13.280  0.00  0.00    +0.000 C 
BRANCH   4   2
ATOM      1  C   UNL     1      43.113   5.078  12.699  0.00  0.00    +0.000 C 
ATOM      2  C   UNL     1      44.573   5.120  12.185  0.00  0.00    +0.000 C 
ATOM      3  C   UNL     1      44.944   6.617  12.030  0.00  0.00    +0.000 C 
BRANCH   2  15
ATOM     15  C   UNL     1      44.745   4.420  10.819  0.00  0.00    +0.000 A 
ATOM     16  C   UNL     1      45.379   5.052   9.732  0.00  0.00    +0.000 A 
ATOM     17  C   UNL     1      45.601   4.381   8.525  0.00  0.00    +0.000 A 
ATOM     18  C   UNL     1      45.185   3.065   8.371  0.00  0.00    +0.000 A 
ATOM     19  C   UNL     1      44.528   2.427   9.418  0.00  0.00    +0.000 A 
ATOM     20  C   UNL     1      44.307   3.097  10.626  0.00  0.00    +0.000 A 
ENDBRANCH   2  15
ENDBRANCH   4   2
ENDBRANCH   5   4
TORSDOF 4
ENDMDL
MODEL 5
REMARK VINA RESULT:    -6.593      3.585      6.256
REMARK INTER + INTRA:          -8.831
REMARK INTER:                  -8.150
REMARK INTRA:                  -0.682
REMARK UNBOUND:                -0.697
REMARK  Name = 
REMARK  6 active torsions:
REMARK  status: ('A' for Active; 'I' for Inactive)
REMARK    1  A    between atoms: C_1  and  C_2
REMARK    2  A    between atoms: C_2  and  C_3
REMARK    3  A    between atoms: C_2  and  C_4
REMARK    4  A    between atoms: C_2  and  C_15
REMARK    5  A    between atoms: C_4  and  N_5
REMARK    6  A    between atoms: C_9  and  C_10
REMARK                            x       y       z     vdW  Elec       q    Type
REMARK                         _______ _______ _______ _____ _____    ______ ____
ROOT
ATOM      5  N   UNL     1      44.796   6.030  12.779  0.00  0.00    +0.000 N 
ATOM      6  C   UNL     1      45.849   6.928  12.531  0.00  0.00    +0.000 A 
ATOM      7  C   UNL     1      45.663   8.272  12.841  0.00  0.00    +0.000 A 
ATOM      8  C   UNL     1      46.700   9.185  12.615  0.00  0.00    +0.000 A 
ATOM      9  C   UNL     1      47.910   8.739  12.078  0.00  0.00    +0.000 A 
ATOM     13  C   UNL     1      47.996   7.393  11.774  0.00  0.00    +0.000 A 
ATOM     14  N   UNL     1      47.002   6.493  11.980  0.00  0.00    +0.000 NA
ATOM     21  H   UNL     1      44.518   6.110  13.755  0.00  0.00    +0.000 HD
ENDROOT
BRANCH   9  10
ATOM     10  C   UNL     1      49.016   9.700  11.875  0.00  0.00    +0.000 C 
ATOM     11  N   UNL     1      48.858  10.710  10.965  0.00  0.00    +0.000 N 
ATOM     12  O   UNL     1      50.068   9.599  12.497  0.00  0.00    +0.000 OA
ATOM     22  H   UNL     1      48.050  10.882  10.391  0.00  0.00    +0.000 HD
ATOM     23  H   UNL     1      49.651  11.336  10.849  0.00  0.00    +0.000 HD
ENDBRANCH   9  10
BRANCH   5   4
ATOM      4  C   UNL     1      45.110   4.643  12.420  0.00  0.00    +0.000 C 
BRANCH   4   2
ATOM      1  C   UNL     1      43.391   2.840  11.997  0.00  0.00    +0.000 C 
ATOM      2  C   UNL     1      44.115   4.057  11.372  0.00  0.00    +0.000 C 
ATOM      3  C   UNL     1      43.029   5.133  11.116  0.00  0.00    +0.000 C 
BRANCH   2  15
ATOM     15  C   UNL     1      44.806   3.718  10.032  0.00  0.00    +0.000 A 
ATOM     16  C   UNL     1      45.350   4.716   9.200  0.00  0.00    +0.000 A 
ATOM     17  C   UNL     1      46.043   4.392   8.029  0.00  0.00    +0.000 A 
ATOM     18  C   UNL     1      46.200   3.065   7.655  0.00  0.00    +0.000 A 
ATOM     19  C   UNL     1      45.645   2.060   8.441  0.00  0.00    +0.000 A 
ATOM     20  C   UNL     1      44.953   2.383   9.614  0.00  0.00    +0.000 A 
ENDBRANCH   2  15
ENDBRANCH   4   2
ENDBRANCH   5   4
TORSDOF 4
ENDMDL
MODEL 6
REMARK VINA RESULT:    -6.480      4.079      7.088
REMARK INTER + INTRA:          -8.692
REMARK INTER:                  -8.212
REMARK INTRA:                  -0.480
REMARK UNBOUND:                -0.697
REMARK  Name = 
REMARK  6 active torsions:
REMARK  status: ('A' for Active; 'I' for Inactive)
REMARK    1  A    between atoms: C_1  and  C_2
REMARK    2  A    between atoms: C_2  and  C_3
REMARK    3  A    between atoms: C_2  and  C_4
REMARK    4  A    between atoms: C_2  and  C_15
REMARK    5  A    between atoms: C_4  and  N_5
REMARK    6  A    between atoms: C_9  and  C_10
REMARK                            x       y       z     vdW  Elec       q    Type
REMARK                         _______ _______ _______ _____ _____    ______ ____
ROOT
ATOM      5  N   UNL     1      45.594   4.222  13.487  0.00  0.00    +0.000 N 
ATOM      6  C   UNL     1      46.628   4.801  14.243  0.00  0.00    +0.000 A 
ATOM      7  C   UNL     1      46.985   4.204  15.448  0.00  0.00    +0.000 A 
ATOM      8  C   UNL     1      48.019   4.754  16.214  0.00  0.00    +0.000 A 
ATOM      9  C   UNL     1      48.682   5.898  15.763  0.00  0.00    +0.000 A 
ATOM     13  C   UNL     1      48.242   6.440  14.570  0.00  0.00    +0.000 A 
ATOM     14  N   UNL     1      47.238   5.927  13.815  0.00  0.00    +0.000 NA
ATOM     21  H   UNL     1      45.818   3.243  13.318  0.00  0.00    +0.000 HD
ENDROOT
BRANCH   9  10
ATOM     10  C   UNL     1      49.798   6.455  16.558  0.00  0.00    +0.000 C 
ATOM     11  N   UNL     1      49.525   7.055  17.757  0.00  0.00    +0.000 N 
ATOM     12  O   UNL     1      50.955   6.396  16.155  0.00  0.00    +0.000 OA
ATOM     22  H   UNL     1      48.619   7.172  18.178  0.00  0.00    +0.000 HD
ATOM     23  H   UNL     1      50.323   7.437  18.258  0.00  0.00    +0.000 HD
ENDBRANCH   9  10
BRANCH   5   4
ATOM      4  C   UNL     1      45.311   4.933  12.235  0.00  0.00    +0.000 C 
BRANCH   4   2
ATOM      1  C   UNL     1      43.619   3.059  12.183  0.00  0.00    +0.000 C 
ATOM      2  C   UNL     1      44.266   4.190  11.348  0.00  0.00    +0.000 C 
ATOM      3  C   UNL     1      43.136   5.202  11.025  0.00  0.00    +0.000 C 
BRANCH   2  15
ATOM     15  C   UNL     1      44.875   3.683  10.023  0.00  0.00    +0.000 A 
ATOM     16  C   UNL     1      45.364   4.566   9.040  0.00  0.00    +0.000 A 
ATOM     17  C   UNL     1      45.985   4.095   7.879  0.00  0.00    +0.000 A 
ATOM     18  C   UNL     1      46.124   2.730   7.666  0.00  0.00    +0.000 A 
ATOM     19  C   UNL     1      45.621   1.834   8.605  0.00  0.00    +0.000 A 
ATOM     20  C   UNL     1      45.001   2.305   9.768  0.00  0.00    +0.000 A 
ENDBRANCH   2  15
ENDBRANCH   4   2
ENDBRANCH   5   4
TORSDOF 4
ENDMDL
MODEL 7
REMARK VINA RESULT:    -5.697      5.166      8.155
REMARK INTER + INTRA:          -7.726
REMARK INTER:                  -7.301
REMARK INTRA:                  -0.426
REMARK UNBOUND:                -0.697
REMARK  Name = 
REMARK  6 active torsions:
REMARK  status: ('A' for Active; 'I' for Inactive)
REMARK    1  A    between atoms: C_1  and  C_2
REMARK    2  A    between atoms: C_2  and  C_3
REMARK    3  A    between atoms: C_2  and  C_4
REMARK    4  A    between atoms: C_2  and  C_15
REMARK    5  A    between atoms: C_4  and  N_5
REMARK    6  A    between atoms: C_9  and  C_10
REMARK                            x       y       z     vdW  Elec       q    Type
REMARK                         _______ _______ _______ _____ _____    ______ ____
ROOT
ATOM      5  N   UNL     1      46.958   4.838  14.224  0.00  0.00    +0.000 N 
ATOM      6  C   UNL     1      47.525   4.777  15.509  0.00  0.00    +0.000 A 
ATOM      7  C   UNL     1      47.003   3.866  16.423  0.00  0.00    +0.000 A 
ATOM      8  C   UNL     1      47.556   3.777  17.705  0.00  0.00    +0.000 A 
ATOM      9  C   UNL     1      48.626   4.605  18.056  0.00  0.00    +0.000 A 
ATOM     13  C   UNL     1      49.061   5.499  17.096  0.00  0.00    +0.000 A 
ATOM     14  N   UNL     1      48.536   5.605  15.850  0.00  0.00    +0.000 NA
ATOM     21  H   UNL     1      46.977   3.907  13.811  0.00  0.00    +0.000 HD
ENDROOT
BRANCH   9  10
ATOM     10  C   UNL     1      49.232   4.482  19.400  0.00  0.00    +0.000 C 
ATOM     11  N   UNL     1      48.565   3.779  20.367  0.00  0.00    +0.000 N 
ATOM     12  O   UNL     1      50.309   5.007  19.661  0.00  0.00    +0.000 OA
ATOM     22  H   UNL     1      47.675   3.322  20.271  0.00  0.00    +0.000 HD
ATOM     23  H   UNL     1      49.013   3.737  21.279  0.00  0.00    +0.000 HD
ENDBRANCH   9  10
BRANCH   5   4
ATOM      4  C   UNL     1      47.595   5.827  13.347  0.00  0.00    +0.000 C 
BRANCH   4   2
ATOM      1  C   UNL     1      46.216   7.940  13.223  0.00  0.00    +0.000 C 
ATOM      2  C   UNL     1      46.561   6.621  12.491  0.00  0.00    +0.000 C 
ATOM      3  C   UNL     1      47.267   7.020  11.170  0.00  0.00    +0.000 C 
BRANCH   2  15
ATOM     15  C   UNL     1      45.311   5.779  12.153  0.00  0.00    +0.000 A 
ATOM     16  C   UNL     1      44.144   5.827  12.940  0.00  0.00    +0.000 A 
ATOM     17  C   UNL     1      42.990   5.122  12.580  0.00  0.00    +0.000 A 
ATOM     18  C   UNL     1      42.979   4.344  11.431  0.00  0.00    +0.000 A 
ATOM     19  C   UNL     1      44.128   4.252  10.652  0.00  0.00    +0.000 A 
ATOM     20  C   UNL     1      45.282   4.958  11.011  0.00  0.00    +0.000 A 
ENDBRANCH   2  15
ENDBRANCH   4   2
ENDBRANCH   5   4
TORSDOF 4
ENDMDL
MODEL 8
REMARK VINA RESULT:    -5.575      3.481      5.695
REMARK INTER + INTRA:          -7.575
REMARK INTER:                  -6.936
REMARK INTRA:                  -0.639
REMARK UNBOUND:                -0.697
REMARK  Name = 
REMARK  6 active torsions:
REMARK  status: ('A' for Active; 'I' for Inactive)
REMARK    1  A    between atoms: C_1  and  C_2
REMARK    2  A    between atoms: C_2  and  C_3
REMARK    3  A    between atoms: C_2  and  C_4
REMARK    4  A    between atoms: C_2  and  C_15
REMARK    5  A    between atoms: C_4  and  N_5
REMARK    6  A    between atoms: C_9  and  C_10
REMARK                            x       y       z     vdW  Elec       q    Type
REMARK                         _______ _______ _______ _____ _____    ______ ____
ROOT
ATOM      5  N   UNL     1      47.129   6.440  14.100  0.00  0.00    +0.000 N 
ATOM      6  C   UNL     1      46.431   5.789  13.067  0.00  0.00    +0.000 A 
ATOM      7  C   UNL     1      45.953   4.503  13.297  0.00  0.00    +0.000 A 
ATOM      8  C   UNL     1      45.244   3.837  12.290  0.00  0.00    +0.000 A 
ATOM      9  C   UNL     1      45.025   4.469  11.064  0.00  0.00    +0.000 A 
ATOM     13  C   UNL     1      45.560   5.736  10.914  0.00  0.00    +0.000 A 
ATOM     14  N   UNL     1      46.254   6.396  11.874  0.00  0.00    +0.000 NA
ATOM     21  H   UNL     1      46.550   6.447  14.936  0.00  0.00    +0.000 HD
ENDROOT
BRANCH   9  10
ATOM     10  C   UNL     1      44.244   3.777  10.016  0.00  0.00    +0.000 C 
ATOM     11  N   UNL     1      44.101   4.372   8.792  0.00  0.00    +0.000 N 
ATOM     12  O   UNL     1      43.718   2.689  10.231  0.00  0.00    +0.000 OA
ATOM     22  H   UNL     1      44.473   5.262   8.510  0.00  0.00    +0.000 HD
ATOM     23  H   UNL     1      43.542   3.865   8.111  0.00  0.00    +0.000 HD
ENDBRANCH   9  10
BRANCH   5   4
ATOM      4  C   UNL     1      47.577   7.792  13.745  0.00  0.00    +0.000 C 
BRANCH   4   2
ATOM      1  C   UNL     1      48.894   9.431  15.143  0.00  0.00    +0.000 C 
ATOM      2  C   UNL     1      48.988   8.124  14.320  0.00  0.00    +0.000 C 
ATOM      3  C   UNL     1      49.354   6.997  15.320  0.00  0.00    +0.000 C 
BRANCH   2  15
ATOM     15  C   UNL     1      50.070   8.186  13.221  0.00  0.00    +0.000 A 
ATOM     16  C   UNL     1      51.344   8.738  13.458  0.00  0.00    +0.000 A 
ATOM     17  C   UNL     1      52.343   8.717  12.479  0.00  0.00    +0.000 A 
ATOM     18  C   UNL     1      52.091   8.153  11.236  0.00  0.00    +0.000 A 
ATOM     19  C   UNL     1      50.831   7.630  10.963  0.00  0.00    +0.000 A 
ATOM     20  C   UNL     1      49.831   7.649  11.942  0.00  0.00    +0.000 A 
ENDBRANCH   2  15
ENDBRANCH   4   2
ENDBRANCH   5   4
TORSDOF 4
ENDMDL
MODEL 9
REMARK VINA RESULT:    -5.571      4.655      6.983
REMARK INTER + INTRA:          -7.571
REMARK INTER:                  -7.071
REMARK INTRA:                  -0.500
REMARK UNBOUND:                -0.697
REMARK  Name = 
REMARK  6 active torsions:
REMARK  status: ('A' for Active; 'I' for Inactive)
REMARK    1  A    between atoms: C_1  and  C_2
REMARK    2  A    between atoms: C_2  and  C_3
REMARK    3  A    between atoms: C_2  and  C_4
REMARK    4  A    between atoms: C_2  and  C_15
REMARK    5  A    between atoms: C_4  and  N_5
REMARK    6  A    between atoms: C_9  and  C_10
REMARK                            x       y       z     vdW  Elec       q    Type
REMARK                         _______ _______ _______ _____ _____    ______ ____
ROOT
ATOM      5  N   UNL     1      47.806   5.757  15.213  0.00  0.00    +0.000 N 
ATOM      6  C   UNL     1      47.049   5.463  14.066  0.00  0.00    +0.000 A 
ATOM      7  C   UNL     1      47.098   6.347  12.992  0.00  0.00    +0.000 A 
ATOM      8  C   UNL     1      46.364   6.072  11.833  0.00  0.00    +0.000 A 
ATOM      9  C   UNL     1      45.587   4.912  11.766  0.00  0.00    +0.000 A 
ATOM     13  C   UNL     1      45.575   4.106  12.889  0.00  0.00    +0.000 A 
ATOM     14  N   UNL     1      46.275   4.357  14.023  0.00  0.00    +0.000 NA
ATOM     21  H   UNL     1      48.778   5.894  14.942  0.00  0.00    +0.000 HD
ENDROOT
BRANCH   9  10
ATOM     10  C   UNL     1      44.841   4.607  10.526  0.00  0.00    +0.000 C 
ATOM     11  N   UNL     1      45.297   5.106   9.336  0.00  0.00    +0.000 N 
ATOM     12  O   UNL     1      43.820   3.926  10.550  0.00  0.00    +0.000 OA
ATOM     22  H   UNL     1      46.109   5.683   9.198  0.00  0.00    +0.000 HD
ATOM     23  H   UNL     1      44.741   4.883   8.514  0.00  0.00    +0.000 HD
ENDBRANCH   9  10
BRANCH   5   4
ATOM      4  C   UNL     1      47.681   4.750  16.274  0.00  0.00    +0.000 C 
BRANCH   4   2
ATOM      1  C   UNL     1      49.467   3.357  17.393  0.00  0.00    +0.000 C 
ATOM      2  C   UNL     1      48.878   4.783  17.273  0.00  0.00    +0.000 C 
ATOM      3  C   UNL     1      49.983   5.666  16.639  0.00  0.00    +0.000 C 
BRANCH   2  15
ATOM     15  C   UNL     1      48.484   5.385  18.640  0.00  0.00    +0.000 A 
ATOM     16  C   UNL     1      47.928   6.673  18.757  0.00  0.00    +0.000 A 
ATOM     17  C   UNL     1      47.501   7.177  19.990  0.00  0.00    +0.000 A 
ATOM     18  C   UNL     1      47.630   6.409  21.139  0.00  0.00    +0.000 A 
ATOM     19  C   UNL     1      48.206   5.145  21.059  0.00  0.00    +0.000 A 
ATOM     20  C   UNL     1      48.631   4.640  19.825  0.00  0.00    +0.000 A 
ENDBRANCH   2  15
ENDBRANCH   4   2
ENDBRANCH   5   4
TORSDOF 4
ENDMDL
