MODEL 1
REMARK VINA RESULT:    -8.580      0.000      0.000
REMARK INTER + INTRA:         -12.118
REMARK INTER:                 -11.339
REMARK INTRA:                  -0.779
REMARK UNBOUND:                -0.779
REMARK  Name = 
REMARK  8 active torsions:
REMARK  status: ('A' for Active; 'I' for Inactive)
REMARK    1  A    between atoms: C_1  and  C_2
REMARK    2  A    between atoms: C_2  and  C_3
REMARK    3  A    between atoms: C_2  and  C_4
REMARK    4  A    between atoms: C_2  and  C_15
REMARK    5  A    between atoms: C_4  and  N_5
REMARK    6  A    between atoms: C_9  and  C_10
REMARK    7  A    between atoms: C_19  and  C_20
REMARK    8  A    between atoms: C_20  and  N_21
REMARK                            x       y       z     vdW  Elec       q    Type
REMARK                         _______ _______ _______ _____ _____    ______ ____
ROOT
ATOM      4  C   UNL     1      43.378   4.359  10.894  0.00  0.00    +0.000 C 
ENDROOT
BRANCH   4   5
ATOM      5  N   UNL     1      43.854   4.724   9.569  0.00  0.00    +0.000 N 
ATOM      6  C   UNL     1      44.841   3.982   8.948  0.00  0.00    +0.000 A 
ATOM      7  C   UNL     1      45.009   2.614   9.133  0.00  0.00    +0.000 A 
ATOM      8  C   UNL     1      45.988   1.932   8.410  0.00  0.00    +0.000 A 
ATOM      9  C   UNL     1      46.771   2.621   7.487  0.00  0.00    +0.000 A 
ATOM     13  C   UNL     1      46.535   3.979   7.359  0.00  0.00    +0.000 A 
ATOM     14  N   UNL     1      45.602   4.664   8.070  0.00  0.00    +0.000 NA
ATOM     23  H   UNL     1      44.069   5.711   9.429  0.00  0.00    +0.000 HD
BRANCH   9  10
ATOM     10  C   UNL     1      47.781   1.873   6.693  0.00  0.00    +0.000 C 
ATOM     11  N   UNL     1      48.442   2.512   5.686  0.00  0.00    +0.000 N 
ATOM     12  O   UNL     1      48.019   0.690   6.933  0.00  0.00    +0.000 OA
ATOM     24  H   UNL     1      48.304   3.467   5.388  0.00  0.00    +0.000 HD
ATOM     25  H   UNL     1      49.107   1.953   5.160  0.00  0.00    +0.000 HD
ENDBRANCH   9  10
ENDBRANCH   4   5
BRANCH   4   2
ATOM      1  C   UNL     1      43.032   6.821  11.351  0.00  0.00    +0.000 C 
ATOM      2  C   UNL     1      43.591   5.500  11.941  0.00  0.00    +0.000 C 
ATOM      3  C   UNL     1      42.722   5.155  13.176  0.00  0.00    +0.000 C 
BRANCH   2  15
ATOM     15  C   UNL     1      45.068   5.614  12.367  0.00  0.00    +0.000 A 
ATOM     16  C   UNL     1      45.956   6.442  11.659  0.00  0.00    +0.000 A 
ATOM     17  C   UNL     1      47.280   6.599  12.072  0.00  0.00    +0.000 A 
ATOM     18  C   UNL     1      47.748   5.938  13.207  0.00  0.00    +0.000 A 
ATOM     19  C   UNL     1      46.906   5.086  13.926  0.00  0.00    +0.000 A 
ATOM     22  C   UNL     1      45.578   4.935  13.491  0.00  0.00    +0.000 A 
BRANCH  19  20
ATOM     20  C   UNL     1      47.330   4.419  15.213  0.00  0.00    +0.000 C 
BRANCH  20  21
ATOM     21  N   UNL     1      47.702   3.018  15.059  0.00  0.00    +0.000 NA
ATOM     26  H   UNL     1      48.370   2.778  15.791  0.00  0.00    +0.000 HD
ATOM     27  H   UNL     1      48.195   2.906  14.175  0.00  0.00    +0.000 HD
ENDBRANCH  20  21
ENDBRANCH  19  20
ENDBRANCH   2  15
ENDBRANCH   4   2
TORSDOF 6
ENDMDL
MODEL 2
REMARK VINA RESULT:    -8.079      1.685      2.416
REMARK INTER + INTRA:         -11.455
REMARK INTER:                 -10.728
REMARK INTRA:                  -0.728
REMARK UNBOUND:                -0.779
REMARK  Name = 
REMARK  8 active torsions:
REMARK  status: ('A' for Active; 'I' for Inactive)
REMARK    1  A    between atoms: C_1  and  C_2
REMARK    2  A    between atoms: C_2  and  C_3
REMARK    3  A    between atoms: C_2  and  C_4
REMARK    4  A    between atoms: C_2  and  C_15
REMARK    5  A    between atoms: C_4  and  N_5
REMARK    6  A    between atoms: C_9  and  C_10
REMARK    7  A    between atoms: C_19  and  C_20
REMARK    8  A    between atoms: C_20  and  N_21
REMARK                            x       y       z     vdW  Elec       q    Type
REMARK                         _______ _______ _______ _____ _____    ______ ____
ROOT
ATOM      4  C   UNL     1      43.652   3.865  11.152  0.00  0.00    +0.000 C 
ENDROOT
BRANCH   4   5
ATOM      5  N   UNL     1      43.954   4.402   9.833  0.00  0.00    +0.000 N 
ATOM      6  C   UNL     1      44.931   3.822   9.046  0.00  0.00    +0.000 A 
ATOM      7  C   UNL     1      45.234   2.465   9.068  0.00  0.00    +0.000 A 
ATOM      8  C   UNL     1      46.187   1.954   8.187  0.00  0.00    +0.000 A 
ATOM      9  C   UNL     1      46.808   2.801   7.272  0.00  0.00    +0.000 A 
ATOM     13  C   UNL     1      46.444   4.136   7.312  0.00  0.00    +0.000 A 
ATOM     14  N   UNL     1      45.534   4.655   8.177  0.00  0.00    +0.000 NA
ATOM     23  H   UNL     1      44.068   5.413   9.780  0.00  0.00    +0.000 HD
BRANCH   9  10
ATOM     10  C   UNL     1      47.790   2.234   6.311  0.00  0.00    +0.000 C 
ATOM     11  N   UNL     1      48.087   2.929   5.176  0.00  0.00    +0.000 N 
ATOM     12  O   UNL     1      48.328   1.149   6.528  0.00  0.00    +0.000 OA
ATOM     24  H   UNL     1      47.686   3.810   4.888  0.00  0.00    +0.000 HD
ATOM     25  H   UNL     1      48.749   2.491   4.542  0.00  0.00    +0.000 HD
ENDBRANCH   9  10
ENDBRANCH   4   5
BRANCH   4   2
ATOM      1  C   UNL     1      42.279   5.891  11.785  0.00  0.00    +0.000 C 
ATOM      2  C   UNL     1      43.460   4.987  12.223  0.00  0.00    +0.000 C 
ATOM      3  C   UNL     1      43.031   4.293  13.540  0.00  0.00    +0.000 C 
BRANCH   2  15
ATOM     15  C   UNL     1      44.762   5.778  12.459  0.00  0.00    +0.000 A 
ATOM     16  C   UNL     1      45.975   5.108  12.694  0.00  0.00    +0.000 A 
ATOM     17  C   UNL     1      47.170   5.813  12.848  0.00  0.00    +0.000 A 
ATOM     18  C   UNL     1      47.184   7.205  12.765  0.00  0.00    +0.000 A 
ATOM     19  C   UNL     1      45.998   7.912  12.557  0.00  0.00    +0.000 A 
ATOM     22  C   UNL     1      44.803   7.185  12.411  0.00  0.00    +0.000 A 
BRANCH  19  20
ATOM     20  C   UNL     1      45.966   9.410  12.365  0.00  0.00    +0.000 C 
BRANCH  20  21
ATOM     21  N   UNL     1      44.640   9.998  12.517  0.00  0.00    +0.000 NA
ATOM     26  H   UNL     1      44.069   9.718  11.720  0.00  0.00    +0.000 HD
ATOM     27  H   UNL     1      44.725  11.011  12.466  0.00  0.00    +0.000 HD
ENDBRANCH  20  21
ENDBRANCH  19  20
ENDBRANCH   2  15
ENDBRANCH   4   2
TORSDOF 6
ENDMDL
MODEL 3
REMARK VINA RESULT:    -8.039      1.409      1.911
REMARK INTER + INTRA:         -11.402
REMARK INTER:                 -10.939
REMARK INTRA:                  -0.463
REMARK UNBOUND:                -0.779
REMARK  Name = 
REMARK  8 active torsions:
REMARK  status: ('A' for Active; 'I' for Inactive)
REMARK    1  A    between atoms: C_1  and  C_2
REMARK    2  A    between atoms: C_2  and  C_3
REMARK    3  A    between atoms: C_2  and  C_4
REMARK    4  A    between atoms: C_2  and  C_15
REMARK    5  A    between atoms: C_4  and  N_5
REMARK    6  A    between atoms: C_9  and  C_10
REMARK    7  A    between atoms: C_19  and  C_20
REMARK    8  A    between atoms: C_20  and  N_21
REMARK                            x       y       z     vdW  Elec       q    Type
REMARK                         _______ _______ _______ _____ _____    ______ ____
ROOT
ATOM      4  C   UNL     1      43.288   4.471  11.003  0.00  0.00    +0.000 C 
ENDROOT
BRANCH   4   5
ATOM      5  N   UNL     1      43.933   4.935   9.783  0.00  0.00    +0.000 N 
ATOM      6  C   UNL     1      44.825   4.124   9.109  0.00  0.00    +0.000 A 
ATOM      7  C   UNL     1      44.736   2.736   9.080  0.00  0.00    +0.000 A 
ATOM      8  C   UNL     1      45.640   2.000   8.314  0.00  0.00    +0.000 A 
ATOM      9  C   UNL     1      46.608   2.661   7.561  0.00  0.00    +0.000 A 
ATOM     13  C   UNL     1      46.623   4.043   7.640  0.00  0.00    +0.000 A 
ATOM     14  N   UNL     1      45.765   4.775   8.398  0.00  0.00    +0.000 NA
ATOM     23  H   UNL     1      44.327   5.874   9.818  0.00  0.00    +0.000 HD
BRANCH   9  10
ATOM     10  C   UNL     1      47.536   1.864   6.716  0.00  0.00    +0.000 C 
ATOM     11  N   UNL     1      48.642   2.468   6.193  0.00  0.00    +0.000 N 
ATOM     12  O   UNL     1      47.314   0.677   6.484  0.00  0.00    +0.000 OA
ATOM     24  H   UNL     1      48.904   3.438   6.297  0.00  0.00    +0.000 HD
ATOM     25  H   UNL     1      49.235   1.887   5.607  0.00  0.00    +0.000 HD
ENDBRANCH   9  10
ENDBRANCH   4   5
BRANCH   4   2
ATOM      1  C   UNL     1      43.266   4.727  13.518  0.00  0.00    +0.000 C 
ATOM      2  C   UNL     1      44.182   4.680  12.268  0.00  0.00    +0.000 C 
ATOM      3  C   UNL     1      45.073   3.422  12.410  0.00  0.00    +0.000 C 
BRANCH   2  15
ATOM     15  C   UNL     1      45.075   5.930  12.134  0.00  0.00    +0.000 A 
ATOM     16  C   UNL     1      44.505   7.201  11.946  0.00  0.00    +0.000 A 
ATOM     17  C   UNL     1      45.301   8.347  11.885  0.00  0.00    +0.000 A 
ATOM     18  C   UNL     1      46.686   8.251  12.016  0.00  0.00    +0.000 A 
ATOM     19  C   UNL     1      47.295   7.006  12.180  0.00  0.00    +0.000 A 
ATOM     22  C   UNL     1      46.478   5.862  12.233  0.00  0.00    +0.000 A 
BRANCH  19  20
ATOM     20  C   UNL     1      48.779   6.850  12.421  0.00  0.00    +0.000 C 
BRANCH  20  21
ATOM     21  N   UNL     1      49.118   6.452  13.782  0.00  0.00    +0.000 NA
ATOM     26  H   UNL     1      48.687   5.549  13.972  0.00  0.00    +0.000 HD
ATOM     27  H   UNL     1      48.695   7.113  14.431  0.00  0.00    +0.000 HD
ENDBRANCH  20  21
ENDBRANCH  19  20
ENDBRANCH   2  15
ENDBRANCH   4   2
TORSDOF 6
ENDMDL
MODEL 4
REMARK VINA RESULT:    -6.839      3.565      6.389
REMARK INTER + INTRA:          -9.817
REMARK INTER:                  -8.931
REMARK INTRA:                  -0.886
REMARK UNBOUND:                -0.779
REMARK  Name = 
REMARK  8 active torsions:
REMARK  status: ('A' for Active; 'I' for Inactive)
REMARK    1  A    between atoms: C_1  and  C_2
REMARK    2  A    between atoms: C_2  and  C_3
REMARK    3  A    between atoms: C_2  and  C_4
REMARK    4  A    between atoms: C_2  and  C_15
REMARK    5  A    between atoms: C_4  and  N_5
REMARK    6  A    between atoms: C_9  and  C_10
REMARK    7  A    between atoms: C_19  and  C_20
REMARK    8  A    between atoms: C_20  and  N_21
REMARK                            x       y       z     vdW  Elec       q    Type
REMARK                         _______ _______ _______ _____ _____    ______ ____
ROOT
ATOM      4  C   UNL     1      45.075   4.596  12.361  0.00  0.00    +0.000 C 
ENDROOT
BRANCH   4   5
ATOM      5  N   UNL     1      44.919   6.033  12.530  0.00  0.00    +0.000 N 
ATOM      6  C   UNL     1      46.018   6.870  12.476  0.00  0.00    +0.000 A 
ATOM      7  C   UNL     1      47.139   6.621  11.693  0.00  0.00    +0.000 A 
ATOM      8  C   UNL     1      48.173   7.557  11.645  0.00  0.00    +0.000 A 
ATOM      9  C   UNL     1      48.062   8.747  12.360  0.00  0.00    +0.000 A 
ATOM     13  C   UNL     1      46.910   8.919  13.109  0.00  0.00    +0.000 A 
ATOM     14  N   UNL     1      45.904   8.009  13.185  0.00  0.00    +0.000 NA
ATOM     23  H   UNL     1      44.338   6.329  13.314  0.00  0.00    +0.000 HD
BRANCH   9  10
ATOM     10  C   UNL     1      49.152   9.753  12.265  0.00  0.00    +0.000 C 
ATOM     11  N   UNL     1      50.089   9.626  11.282  0.00  0.00    +0.000 N 
ATOM     12  O   UNL     1      49.216  10.688  13.061  0.00  0.00    +0.000 OA
ATOM     24  H   UNL     1      50.146   8.885  10.598  0.00  0.00    +0.000 HD
ATOM     25  H   UNL     1      50.825  10.327  11.270  0.00  0.00    +0.000 HD
ENDBRANCH   9  10
ENDBRANCH   4   5
BRANCH   4   2
ATOM      1  C   UNL     1      43.442   2.746  11.815  0.00  0.00    +0.000 C 
ATOM      2  C   UNL     1      44.130   4.019  11.258  0.00  0.00    +0.000 C 
ATOM      3  C   UNL     1      43.014   5.066  11.019  0.00  0.00    +0.000 C 
BRANCH   2  15
ATOM     15  C   UNL     1      44.885   3.761   9.939  0.00  0.00    +0.000 A 
ATOM     16  C   UNL     1      45.350   4.833   9.158  0.00  0.00    +0.000 A 
ATOM     17  C   UNL     1      46.088   4.611   7.994  0.00  0.00    +0.000 A 
ATOM     18  C   UNL     1      46.384   3.312   7.584  0.00  0.00    +0.000 A 
ATOM     19  C   UNL     1      45.921   2.217   8.317  0.00  0.00    +0.000 A 
ATOM     22  C   UNL     1      45.174   2.460   9.483  0.00  0.00    +0.000 A 
BRANCH  19  20
ATOM     20  C   UNL     1      46.290   0.793   7.974  0.00  0.00    +0.000 C 
BRANCH  20  21
ATOM     21  N   UNL     1      47.208   0.674   6.847  0.00  0.00    +0.000 NA
ATOM     26  H   UNL     1      48.051   0.199   7.166  0.00  0.00    +0.000 HD
ATOM     27  H   UNL     1      47.496   1.608   6.562  0.00  0.00    +0.000 HD
ENDBRANCH  20  21
ENDBRANCH  19  20
ENDBRANCH   2  15
ENDBRANCH   4   2
TORSDOF 6
ENDMDL
MODEL 5
REMARK VINA RESULT:    -6.723      3.358      7.416
REMARK INTER + INTRA:          -9.664
REMARK INTER:                  -9.051
REMARK INTRA:                  -0.613
REMARK UNBOUND:                -0.779
REMARK  Name = 
REMARK  8 active torsions:
REMARK  status: ('A' for Active; 'I' for Inactive)
REMARK    1  A    between atoms: C_1  and  C_2
REMARK    2  A    between atoms: C_2  and  C_3
REMARK    3  A    between atoms: C_2  and  C_4
REMARK    4  A    between atoms: C_2  and  C_15
REMARK    5  A    between atoms: C_4  and  N_5
REMARK    6  A    between atoms: C_9  and  C_10
REMARK    7  A    between atoms: C_19  and  C_20
REMARK    8  A    between atoms: C_20  and  N_21
REMARK                            x       y       z     vdW  Elec       q    Type
REMARK                         _______ _______ _______ _____ _____    ______ ____
ROOT
ATOM      4  C   UNL     1      46.132   4.898  12.894  0.00  0.00    +0.000 C 
ENDROOT
BRANCH   4   5
ATOM      5  N   UNL     1      46.393   3.720  13.708  0.00  0.00    +0.000 N 
ATOM      6  C   UNL     1      47.130   3.821  14.872  0.00  0.00    +0.000 A 
ATOM      7  C   UNL     1      47.139   4.949  15.685  0.00  0.00    +0.000 A 
ATOM      8  C   UNL     1      47.857   4.936  16.881  0.00  0.00    +0.000 A 
ATOM      9  C   UNL     1      48.539   3.783  17.266  0.00  0.00    +0.000 A 
ATOM     13  C   UNL     1      48.474   2.703  16.403  0.00  0.00    +0.000 A 
ATOM     14  N   UNL     1      47.797   2.705  15.224  0.00  0.00    +0.000 NA
ATOM     23  H   UNL     1      46.713   2.893  13.204  0.00  0.00    +0.000 HD
BRANCH   9  10
ATOM     10  C   UNL     1      49.264   3.771  18.563  0.00  0.00    +0.000 C 
ATOM     11  N   UNL     1      48.582   3.464  19.703  0.00  0.00    +0.000 N 
ATOM     12  O   UNL     1      50.464   4.038  18.616  0.00  0.00    +0.000 OA
ATOM     24  H   UNL     1      47.596   3.257  19.777  0.00  0.00    +0.000 HD
ATOM     25  H   UNL     1      49.117   3.488  20.566  0.00  0.00    +0.000 HD
ENDBRANCH   9  10
ENDBRANCH   4   5
BRANCH   4   2
ATOM      1  C   UNL     1      43.881   3.759  12.740  0.00  0.00    +0.000 C 
ATOM      2  C   UNL     1      44.837   4.752  12.030  0.00  0.00    +0.000 C 
ATOM      3  C   UNL     1      44.132   6.131  12.027  0.00  0.00    +0.000 C 
BRANCH   2  15
ATOM     15  C   UNL     1      45.162   4.337  10.582  0.00  0.00    +0.000 A 
ATOM     16  C   UNL     1      45.656   5.276   9.661  0.00  0.00    +0.000 A 
ATOM     17  C   UNL     1      46.011   4.898   8.365  0.00  0.00    +0.000 A 
ATOM     18  C   UNL     1      45.887   3.570   7.959  0.00  0.00    +0.000 A 
ATOM     19  C   UNL     1      45.377   2.608   8.834  0.00  0.00    +0.000 A 
ATOM     22  C   UNL     1      45.019   3.009  10.133  0.00  0.00    +0.000 A 
BRANCH  19  20
ATOM     20  C   UNL     1      45.308   1.141   8.481  0.00  0.00    +0.000 C 
BRANCH  20  21
ATOM     21  N   UNL     1      46.555   0.601   7.950  0.00  0.00    +0.000 NA
ATOM     26  H   UNL     1      46.511  -0.416   7.996  0.00  0.00    +0.000 HD
ATOM     27  H   UNL     1      47.319   0.882   8.562  0.00  0.00    +0.000 HD
ENDBRANCH  20  21
ENDBRANCH  19  20
ENDBRANCH   2  15
ENDBRANCH   4   2
TORSDOF 6
ENDMDL
MODEL 6
REMARK VINA RESULT:    -6.720      3.605      6.300
REMARK INTER + INTRA:          -9.660
REMARK INTER:                  -9.087
REMARK INTRA:                  -0.572
REMARK UNBOUND:                -0.779
REMARK  Name = 
REMARK  8 active torsions:
REMARK  status: ('A' for Active; 'I' for Inactive)
REMARK    1  A    between atoms: C_1  and  C_2
REMARK    2  A    between atoms: C_2  and  C_3
REMARK    3  A    between atoms: C_2  and  C_4
REMARK    4  A    between atoms: C_2  and  C_15
REMARK    5  A    between atoms: C_4  and  N_5
REMARK    6  A    between atoms: C_9  and  C_10
REMARK    7  A    between atoms: C_19  and  C_20
REMARK    8  A    between atoms: C_20  and  N_21
REMARK                            x       y       z     vdW  Elec       q    Type
REMARK                         _______ _______ _______ _____ _____    ______ ____
ROOT
ATOM      4  C   UNL     1      47.562   4.875  16.000  0.00  0.00    +0.000 C 
ENDROOT
BRANCH   4   5
ATOM      5  N   UNL     1      47.282   3.866  14.990  0.00  0.00    +0.000 N 
ATOM      6  C   UNL     1      46.605   4.199  13.832  0.00  0.00    +0.000 A 
ATOM      7  C   UNL     1      46.689   5.445  13.222  0.00  0.00    +0.000 A 
ATOM      8  C   UNL     1      46.026   5.671  12.015  0.00  0.00    +0.000 A 
ATOM      9  C   UNL     1      45.309   4.639  11.416  0.00  0.00    +0.000 A 
ATOM     13  C   UNL     1      45.282   3.428  12.086  0.00  0.00    +0.000 A 
ATOM     14  N   UNL     1      45.902   3.196  13.272  0.00  0.00    +0.000 NA
ATOM     23  H   UNL     1      46.900   2.986  15.335  0.00  0.00    +0.000 HD
BRANCH   9  10
ATOM     10  C   UNL     1      44.644   4.883  10.109  0.00  0.00    +0.000 C 
ATOM     11  N   UNL     1      45.410   5.161   9.015  0.00  0.00    +0.000 N 
ATOM     12  O   UNL     1      43.419   4.840  10.008  0.00  0.00    +0.000 OA
ATOM     24  H   UNL     1      46.417   5.247   8.992  0.00  0.00    +0.000 HD
ATOM     25  H   UNL     1      44.909   5.339   8.150  0.00  0.00    +0.000 HD
ENDBRANCH   9  10
ENDBRANCH   4   5
BRANCH   4   2
ATOM      1  C   UNL     1      47.374   5.103  18.510  0.00  0.00    +0.000 C 
ATOM      2  C   UNL     1      47.984   4.250  17.369  0.00  0.00    +0.000 C 
ATOM      3  C   UNL     1      47.327   2.850  17.452  0.00  0.00    +0.000 C 
BRANCH   2  15
ATOM     15  C   UNL     1      49.515   4.107  17.482  0.00  0.00    +0.000 A 
ATOM     16  C   UNL     1      50.321   5.225  17.756  0.00  0.00    +0.000 A 
ATOM     17  C   UNL     1      51.701   5.097  17.921  0.00  0.00    +0.000 A 
ATOM     18  C   UNL     1      52.310   3.847  17.822  0.00  0.00    +0.000 A 
ATOM     19  C   UNL     1      51.550   2.712  17.526  0.00  0.00    +0.000 A 
ATOM     22  C   UNL     1      50.162   2.862  17.358  0.00  0.00    +0.000 A 
BRANCH  19  20
ATOM     20  C   UNL     1      52.140   1.321  17.500  0.00  0.00    +0.000 C 
BRANCH  20  21
ATOM     21  N   UNL     1      51.318   0.318  18.167  0.00  0.00    +0.000 NA
ATOM     26  H   UNL     1      50.503   0.130  17.586  0.00  0.00    +0.000 HD
ATOM     27  H   UNL     1      50.965   0.711  19.037  0.00  0.00    +0.000 HD
ENDBRANCH  20  21
ENDBRANCH  19  20
ENDBRANCH   2  15
ENDBRANCH   4   2
TORSDOF 6
ENDMDL
MODEL 7
REMARK VINA RESULT:    -6.702      3.337      7.536
REMARK INTER + INTRA:          -9.635
REMARK INTER:                  -9.064
REMARK INTRA:                  -0.571
REMARK UNBOUND:                -0.779
REMARK  Name = 
REMARK  8 active torsions:
REMARK  status: ('A' for Active; 'I' for Inactive)
REMARK    1  A    between atoms: C_1  and  C_2
REMARK    2  A    between atoms: C_2  and  C_3
REMARK    3  A    between atoms: C_2  and  C_4
REMARK    4  A    between atoms: C_2  and  C_15
REMARK    5  A    between atoms: C_4  and  N_5
REMARK    6  A    between atoms: C_9  and  C_10
REMARK    7  A    between atoms: C_19  and  C_20
REMARK    8  A    between atoms: C_20  and  N_21
REMARK                            x       y       z     vdW  Elec       q    Type
REMARK                         _______ _______ _______ _____ _____    ______ ____
ROOT
ATOM      4  C   UNL     1      45.698   5.610  13.227  0.00  0.00    +0.000 C 
ENDROOT
BRANCH   4   5
ATOM      5  N   UNL     1      47.051   5.874  13.694  0.00  0.00    +0.000 N 
ATOM      6  C   UNL     1      47.488   5.370  14.904  0.00  0.00    +0.000 A 
ATOM      7  C   UNL     1      47.046   4.167  15.444  0.00  0.00    +0.000 A 
ATOM      8  C   UNL     1      47.594   3.700  16.638  0.00  0.00    +0.000 A 
ATOM      9  C   UNL     1      48.600   4.429  17.268  0.00  0.00    +0.000 A 
ATOM     13  C   UNL     1      48.987   5.611  16.662  0.00  0.00    +0.000 A 
ATOM     14  N   UNL     1      48.449   6.092  15.511  0.00  0.00    +0.000 NA
ATOM     23  H   UNL     1      47.364   6.843  13.626  0.00  0.00    +0.000 HD
BRANCH   9  10
ATOM     10  C   UNL     1      49.205   3.896  18.518  0.00  0.00    +0.000 C 
ATOM     11  N   UNL     1      48.404   3.278  19.432  0.00  0.00    +0.000 N 
ATOM     12  O   UNL     1      50.410   4.012  18.733  0.00  0.00    +0.000 OA
ATOM     24  H   UNL     1      47.403   3.154  19.369  0.00  0.00    +0.000 HD
ATOM     25  H   UNL     1      48.860   2.949  20.278  0.00  0.00    +0.000 HD
ENDBRANCH   9  10
ENDBRANCH   4   5
BRANCH   4   2
ATOM      1  C   UNL     1      44.413   7.104  11.645  0.00  0.00    +0.000 C 
ATOM      2  C   UNL     1      45.498   5.999  11.727  0.00  0.00    +0.000 C 
ATOM      3  C   UNL     1      46.824   6.633  11.239  0.00  0.00    +0.000 C 
BRANCH   2  15
ATOM     15  C   UNL     1      45.166   4.769  10.858  0.00  0.00    +0.000 A 
ATOM     16  C   UNL     1      44.369   3.728  11.365  0.00  0.00    +0.000 A 
ATOM     17  C   UNL     1      44.012   2.639  10.568  0.00  0.00    +0.000 A 
ATOM     18  C   UNL     1      44.437   2.567   9.242  0.00  0.00    +0.000 A 
ATOM     19  C   UNL     1      45.250   3.567   8.705  0.00  0.00    +0.000 A 
ATOM     22  C   UNL     1      45.605   4.653   9.525  0.00  0.00    +0.000 A 
BRANCH  19  20
ATOM     20  C   UNL     1      45.662   3.590   7.251  0.00  0.00    +0.000 C 
BRANCH  20  21
ATOM     21  N   UNL     1      47.006   4.108   7.025  0.00  0.00    +0.000 NA
ATOM     26  H   UNL     1      47.167   4.160   6.020  0.00  0.00    +0.000 HD
ATOM     27  H   UNL     1      47.680   3.437   7.389  0.00  0.00    +0.000 HD
ENDBRANCH  20  21
ENDBRANCH  19  20
ENDBRANCH   2  15
ENDBRANCH   4   2
TORSDOF 6
ENDMDL
MODEL 8
REMARK VINA RESULT:    -6.439      3.804      7.044
REMARK INTER + INTRA:          -9.289
REMARK INTER:                  -8.590
REMARK INTRA:                  -0.699
REMARK UNBOUND:                -0.779
REMARK  Name = 
REMARK  8 active torsions:
REMARK  status: ('A' for Active; 'I' for Inactive)
REMARK    1  A    between atoms: C_1  and  C_2
REMARK    2  A    between atoms: C_2  and  C_3
REMARK    3  A    between atoms: C_2  and  C_4
REMARK    4  A    between atoms: C_2  and  C_15
REMARK    5  A    between atoms: C_4  and  N_5
REMARK    6  A    between atoms: C_9  and  C_10
REMARK    7  A    between atoms: C_19  and  C_20
REMARK    8  A    between atoms: C_20  and  N_21
REMARK                            x       y       z     vdW  Elec       q    Type
REMARK                         _______ _______ _______ _____ _____    ______ ____
ROOT
ATOM      4  C   UNL     1      45.961   6.366  13.254  0.00  0.00    +0.000 C 
ENDROOT
BRANCH   4   5
ATOM      5  N   UNL     1      47.286   6.433  13.853  0.00  0.00    +0.000 N 
ATOM      6  C   UNL     1      47.628   5.598  14.898  0.00  0.00    +0.000 A 
ATOM      7  C   UNL     1      47.121   4.313  15.057  0.00  0.00    +0.000 A 
ATOM      8  C   UNL     1      47.577   3.512  16.104  0.00  0.00    +0.000 A 
ATOM      9  C   UNL     1      48.557   3.995  16.967  0.00  0.00    +0.000 A 
ATOM     13  C   UNL     1      49.013   5.281  16.736  0.00  0.00    +0.000 A 
ATOM     14  N   UNL     1      48.566   6.083  15.735  0.00  0.00    +0.000 NA
ATOM     23  H   UNL     1      47.627   7.369  14.073  0.00  0.00    +0.000 HD
BRANCH   9  10
ATOM     10  C   UNL     1      49.063   3.113  18.052  0.00  0.00    +0.000 C 
ATOM     11  N   UNL     1      48.464   3.156  19.277  0.00  0.00    +0.000 N 
ATOM     12  O   UNL     1      50.013   2.356  17.857  0.00  0.00    +0.000 OA
ATOM     24  H   UNL     1      47.700   3.756  19.552  0.00  0.00    +0.000 HD
ATOM     25  H   UNL     1      48.858   2.549  19.990  0.00  0.00    +0.000 HD
ENDBRANCH   9  10
ENDBRANCH   4   5
BRANCH   4   2
ATOM      1  C   UNL     1      45.168   8.046  11.540  0.00  0.00    +0.000 C 
ATOM      2  C   UNL     1      45.972   6.735  11.735  0.00  0.00    +0.000 C 
ATOM      3  C   UNL     1      47.440   7.045  11.352  0.00  0.00    +0.000 C 
BRANCH   2  15
ATOM     15  C   UNL     1      45.447   5.576  10.864  0.00  0.00    +0.000 A 
ATOM     16  C   UNL     1      45.791   5.489   9.505  0.00  0.00    +0.000 A 
ATOM     17  C   UNL     1      45.371   4.412   8.722  0.00  0.00    +0.000 A 
ATOM     18  C   UNL     1      44.601   3.392   9.280  0.00  0.00    +0.000 A 
ATOM     19  C   UNL     1      44.215   3.452  10.621  0.00  0.00    +0.000 A 
ATOM     22  C   UNL     1      44.643   4.547  11.392  0.00  0.00    +0.000 A 
BRANCH  19  20
ATOM     20  C   UNL     1      43.462   2.333  11.303  0.00  0.00    +0.000 C 
BRANCH  20  21
ATOM     21  N   UNL     1      43.500   2.396  12.759  0.00  0.00    +0.000 NA
ATOM     26  H   UNL     1      44.049   3.209  13.033  0.00  0.00    +0.000 HD
ATOM     27  H   UNL     1      44.001   1.581  13.108  0.00  0.00    +0.000 HD
ENDBRANCH  20  21
ENDBRANCH  19  20
ENDBRANCH   2  15
ENDBRANCH   4   2
TORSDOF 6
ENDMDL
MODEL 9
REMARK VINA RESULT:    -6.302      3.876      6.073
REMARK INTER + INTRA:          -9.107
REMARK INTER:                  -8.191
REMARK INTRA:                  -0.916
REMARK UNBOUND:                -0.779
REMARK  Name = 
REMARK  8 active torsions:
REMARK  status: ('A' for Active; 'I' for Inactive)
REMARK    1  A    between atoms: C_1  and  C_2
REMARK    2  A    between atoms: C_2  and  C_3
REMARK    3  A    between atoms: C_2  and  C_4
REMARK    4  A    between atoms: C_2  and  C_15
REMARK    5  A    between atoms: C_4  and  N_5
REMARK    6  A    between atoms: C_9  and  C_10
REMARK    7  A    between atoms: C_19  and  C_20
REMARK    8  A    between atoms: C_20  and  N_21
REMARK                            x       y       z     vdW  Elec       q    Type
REMARK                         _______ _______ _______ _____ _____    ______ ____
ROOT
ATOM      4  C   UNL     1      48.868   7.027  14.044  0.00  0.00    +0.000 C 
ENDROOT
BRANCH   4   5
ATOM      5  N   UNL     1      47.465   7.307  13.776  0.00  0.00    +0.000 N 
ATOM      6  C   UNL     1      46.635   6.320  13.281  0.00  0.00    +0.000 A 
ATOM      7  C   UNL     1      46.783   4.969  13.573  0.00  0.00    +0.000 A 
ATOM      8  C   UNL     1      45.854   4.048  13.087  0.00  0.00    +0.000 A 
ATOM      9  C   UNL     1      44.769   4.493  12.335  0.00  0.00    +0.000 A 
ATOM     13  C   UNL     1      44.692   5.854  12.096  0.00  0.00    +0.000 A 
ATOM     14  N   UNL     1      45.598   6.762  12.543  0.00  0.00    +0.000 NA
ATOM     23  H   UNL     1      47.274   8.166  13.262  0.00  0.00    +0.000 HD
BRANCH   9  10
ATOM     10  C   UNL     1      43.764   3.505  11.860  0.00  0.00    +0.000 C 
ATOM     11  N   UNL     1      43.730   2.266  12.429  0.00  0.00    +0.000 N 
ATOM     12  O   UNL     1      42.974   3.793  10.964  0.00  0.00    +0.000 OA
ATOM     24  H   UNL     1      44.348   1.918  13.149  0.00  0.00    +0.000 HD
ATOM     25  H   UNL     1      43.039   1.621  12.057  0.00  0.00    +0.000 HD
ENDBRANCH   9  10
ENDBRANCH   4   5
BRANCH   4   2
ATOM      1  C   UNL     1      50.906   7.774  15.340  0.00  0.00    +0.000 C 
ATOM      2  C   UNL     1      49.360   7.669  15.382  0.00  0.00    +0.000 C 
ATOM      3  C   UNL     1      48.812   9.117  15.422  0.00  0.00    +0.000 C 
BRANCH   2  15
ATOM     15  C   UNL     1      48.847   6.890  16.610  0.00  0.00    +0.000 A 
ATOM     16  C   UNL     1      48.449   7.569  17.774  0.00  0.00    +0.000 A 
ATOM     17  C   UNL     1      47.926   6.878  18.869  0.00  0.00    +0.000 A 
ATOM     18  C   UNL     1      47.782   5.492  18.825  0.00  0.00    +0.000 A 
ATOM     19  C   UNL     1      48.189   4.775  17.697  0.00  0.00    +0.000 A 
ATOM     22  C   UNL     1      48.719   5.488  16.607  0.00  0.00    +0.000 A 
BRANCH  19  20
ATOM     20  C   UNL     1      47.971   3.287  17.557  0.00  0.00    +0.000 C 
BRANCH  20  21
ATOM     21  N   UNL     1      46.581   2.875  17.709  0.00  0.00    +0.000 NA
ATOM     26  H   UNL     1      45.999   3.711  17.750  0.00  0.00    +0.000 HD
ATOM     27  H   UNL     1      46.475   2.408  18.607  0.00  0.00    +0.000 HD
ENDBRANCH  20  21
ENDBRANCH  19  20
ENDBRANCH   2  15
ENDBRANCH   4   2
TORSDOF 6
ENDMDL
