MODEL 1
REMARK VINA RESULT:    -8.570      0.000      0.000
REMARK INTER + INTRA:         -11.554
REMARK INTER:                 -11.075
REMARK INTRA:                  -0.479
REMARK UNBOUND:                -0.479
REMARK  Name = 
REMARK  5 active torsions:
REMARK  status: ('A' for Active; 'I' for Inactive)
REMARK    1  A    between atoms: C_2  and  C_4
REMARK    2  A    between atoms: N_8  and  C_9
REMARK    3  A    between atoms: C_9  and  C_10
REMARK    4  A    between atoms: C_14  and  N_15
REMARK    5  A    between atoms: C_19  and  C_20
REMARK                            x       y       z     vdW  Elec       q    Type
REMARK                         _______ _______ _______ _____ _____    ______ ____
ROOT
ATOM     10  C   UNL     1      44.479   5.968  11.380  0.00  0.00    +0.000 A 
ATOM     11  C   UNL     1      44.358   7.361  11.430  0.00  0.00    +0.000 A 
ATOM     12  C   UNL     1      45.245   8.104  12.201  0.00  0.00    +0.000 A 
ATOM     13  C   UNL     1      46.246   7.459  12.934  0.00  0.00    +0.000 A 
ATOM     14  C   UNL     1      46.406   6.064  12.909  0.00  0.00    +0.000 A 
ATOM     25  C   UNL     1      45.527   5.346  12.085  0.00  0.00    +0.000 A 
ENDROOT
BRANCH  14  15
ATOM     15  N   UNL     1      47.375   5.446  13.678  0.00  0.00    +0.000 N 
ATOM     16  C   UNL     1      47.169   4.139  14.313  0.00  0.00    +0.000 C 
ATOM     17  C   UNL     1      47.195   4.269  15.847  0.00  0.00    +0.000 C 
ATOM     18  N   UNL     1      48.417   4.914  16.362  0.00  0.00    +0.000 NA
ATOM     19  C   UNL     1      48.591   6.265  15.717  0.00  0.00    +0.000 C 
ATOM     24  C   UNL     1      48.543   6.211  14.164  0.00  0.00    +0.000 C 
ATOM     31  H   UNL     1      49.226   4.340  16.116  0.00  0.00    +0.000 HD
BRANCH  19  20
ATOM     20  C   UNL     1      49.875   7.028  16.141  0.00  0.00    +0.000 C 
ATOM     21  F   UNL     1      50.847   6.947  15.200  0.00  0.00    +0.000 F 
ATOM     22  F   UNL     1      49.649   8.346  16.349  0.00  0.00    +0.000 F 
ATOM     23  F   UNL     1      50.386   6.524  17.289  0.00  0.00    +0.000 F 
ENDBRANCH  19  20
ENDBRANCH  14  15
BRANCH  10   9
ATOM      9  C   UNL     1      43.438   5.131  10.682  0.00  0.00    +0.000 C 
BRANCH   9   8
ATOM      4  C   UNL     1      46.558   2.662   7.479  0.00  0.00    +0.000 A 
ATOM      5  C   UNL     1      46.243   4.008   7.611  0.00  0.00    +0.000 A 
ATOM      6  C   UNL     1      45.342   4.399   8.603  0.00  0.00    +0.000 A 
ATOM      7  C   UNL     1      44.757   3.451   9.440  0.00  0.00    +0.000 A 
ATOM      8  N   UNL     1      43.865   3.780  10.434  0.00  0.00    +0.000 N 
ATOM     26  N   UNL     1      45.050   2.141   9.311  0.00  0.00    +0.000 NA
ATOM     27  C   UNL     1      45.933   1.774   8.339  0.00  0.00    +0.000 A 
ATOM     30  H   UNL     1      43.456   3.004  10.933  0.00  0.00    +0.000 HD
BRANCH   4   2
ATOM      1  N   UNL     1      47.768   2.987   5.395  0.00  0.00    +0.000 N 
ATOM      2  C   UNL     1      47.489   2.158   6.447  0.00  0.00    +0.000 C 
ATOM      3  O   UNL     1      48.011   1.055   6.539  0.00  0.00    +0.000 OA
ATOM     28  H   UNL     1      48.470   2.666   4.739  0.00  0.00    +0.000 HD
ATOM     29  H   UNL     1      47.552   3.973   5.399  0.00  0.00    +0.000 HD
ENDBRANCH   4   2
ENDBRANCH   9   8
ENDBRANCH  10   9
TORSDOF 5
ENDMDL
MODEL 2
REMARK VINA RESULT:    -8.302      4.471      7.810
REMARK INTER + INTRA:         -11.207
REMARK INTER:                 -10.641
REMARK INTRA:                  -0.566
REMARK UNBOUND:                -0.479
REMARK  Name = 
REMARK  5 active torsions:
REMARK  status: ('A' for Active; 'I' for Inactive)
REMARK    1  A    between atoms: C_2  and  C_4
REMARK    2  A    between atoms: N_8  and  C_9
REMARK    3  A    between atoms: C_9  and  C_10
REMARK    4  A    between atoms: C_14  and  N_15
REMARK    5  A    between atoms: C_19  and  C_20
REMARK                            x       y       z     vdW  Elec       q    Type
REMARK                         _______ _______ _______ _____ _____    ______ ____
ROOT
ATOM     10  C   UNL     1      46.837   7.296  12.241  0.00  0.00    +0.000 A 
ATOM     11  C   UNL     1      46.275   8.575  12.183  0.00  0.00    +0.000 A 
ATOM     12  C   UNL     1      44.958   8.733  11.766  0.00  0.00    +0.000 A 
ATOM     13  C   UNL     1      44.202   7.617  11.393  0.00  0.00    +0.000 A 
ATOM     14  C   UNL     1      44.725   6.316  11.441  0.00  0.00    +0.000 A 
ATOM     25  C   UNL     1      46.040   6.182  11.910  0.00  0.00    +0.000 A 
ENDROOT
BRANCH  14  15
ATOM     15  N   UNL     1      43.972   5.232  11.024  0.00  0.00    +0.000 N 
ATOM     16  C   UNL     1      42.971   4.586  11.881  0.00  0.00    +0.000 C 
ATOM     17  C   UNL     1      43.383   3.137  12.203  0.00  0.00    +0.000 C 
ATOM     18  N   UNL     1      43.649   2.323  11.003  0.00  0.00    +0.000 NA
ATOM     19  C   UNL     1      44.700   2.992  10.155  0.00  0.00    +0.000 C 
ATOM     24  C   UNL     1      44.361   4.472   9.818  0.00  0.00    +0.000 C 
ATOM     31  H   UNL     1      42.793   2.254  10.449  0.00  0.00    +0.000 HD
BRANCH  19  20
ATOM     20  C   UNL     1      45.035   2.253   8.831  0.00  0.00    +0.000 C 
ATOM     21  F   UNL     1      44.567   2.918   7.747  0.00  0.00    +0.000 F 
ATOM     22  F   UNL     1      46.367   2.102   8.645  0.00  0.00    +0.000 F 
ATOM     23  F   UNL     1      44.487   1.015   8.810  0.00  0.00    +0.000 F 
ENDBRANCH  19  20
ENDBRANCH  14  15
BRANCH  10   9
ATOM      9  C   UNL     1      48.303   7.113  12.534  0.00  0.00    +0.000 C 
BRANCH   9   8
ATOM      4  C   UNL     1      47.771   4.268  16.744  0.00  0.00    +0.000 A 
ATOM      5  C   UNL     1      47.414   4.040  15.421  0.00  0.00    +0.000 A 
ATOM      6  C   UNL     1      47.698   5.017  14.466  0.00  0.00    +0.000 A 
ATOM      7  C   UNL     1      48.317   6.209  14.834  0.00  0.00    +0.000 A 
ATOM      8  N   UNL     1      48.621   7.204  13.935  0.00  0.00    +0.000 N 
ATOM     26  N   UNL     1      48.657   6.441  16.118  0.00  0.00    +0.000 NA
ATOM     27  C   UNL     1      48.377   5.478  17.042  0.00  0.00    +0.000 A 
ATOM     30  H   UNL     1      49.008   8.049  14.328  0.00  0.00    +0.000 HD
BRANCH   4   2
ATOM      1  N   UNL     1      48.340   3.299  18.901  0.00  0.00    +0.000 N 
ATOM      2  C   UNL     1      47.496   3.296  17.824  0.00  0.00    +0.000 C 
ATOM      3  O   UNL     1      46.539   2.536  17.772  0.00  0.00    +0.000 OA
ATOM     28  H   UNL     1      48.093   2.689  19.671  0.00  0.00    +0.000 HD
ATOM     29  H   UNL     1      48.987   4.050  19.092  0.00  0.00    +0.000 HD
ENDBRANCH   4   2
ENDBRANCH   9   8
ENDBRANCH  10   9
TORSDOF 5
ENDMDL
MODEL 3
REMARK VINA RESULT:    -8.178      2.261      3.432
REMARK INTER + INTRA:         -11.047
REMARK INTER:                 -10.220
REMARK INTRA:                  -0.827
REMARK UNBOUND:                -0.479
REMARK  Name = 
REMARK  5 active torsions:
REMARK  status: ('A' for Active; 'I' for Inactive)
REMARK    1  A    between atoms: C_2  and  C_4
REMARK    2  A    between atoms: N_8  and  C_9
REMARK    3  A    between atoms: C_9  and  C_10
REMARK    4  A    between atoms: C_14  and  N_15
REMARK    5  A    between atoms: C_19  and  C_20
REMARK                            x       y       z     vdW  Elec       q    Type
REMARK                         _______ _______ _______ _____ _____    ______ ____
ROOT
ATOM     10  C   UNL     1      44.598   4.924  12.026  0.00  0.00    +0.000 A 
ATOM     11  C   UNL     1      44.932   3.841  12.844  0.00  0.00    +0.000 A 
ATOM     12  C   UNL     1      45.949   3.972  13.783  0.00  0.00    +0.000 A 
ATOM     13  C   UNL     1      46.644   5.180  13.899  0.00  0.00    +0.000 A 
ATOM     14  C   UNL     1      46.338   6.293  13.102  0.00  0.00    +0.000 A 
ATOM     25  C   UNL     1      45.277   6.147  12.197  0.00  0.00    +0.000 A 
ENDROOT
BRANCH  14  15
ATOM     15  N   UNL     1      47.070   7.463  13.205  0.00  0.00    +0.000 N 
ATOM     16  C   UNL     1      46.442   8.789  13.264  0.00  0.00    +0.000 C 
ATOM     17  C   UNL     1      46.817   9.624  12.026  0.00  0.00    +0.000 C 
ATOM     18  N   UNL     1      48.272   9.743  11.816  0.00  0.00    +0.000 NA
ATOM     19  C   UNL     1      48.888   8.371  11.730  0.00  0.00    +0.000 C 
ATOM     24  C   UNL     1      48.523   7.461  12.937  0.00  0.00    +0.000 C 
ATOM     31  H   UNL     1      48.686  10.226  12.616  0.00  0.00    +0.000 HD
BRANCH  19  20
ATOM     20  C   UNL     1      50.432   8.361  11.558  0.00  0.00    +0.000 C 
ATOM     21  F   UNL     1      50.895   9.539  11.074  0.00  0.00    +0.000 F 
ATOM     22  F   UNL     1      51.082   8.141  12.725  0.00  0.00    +0.000 F 
ATOM     23  F   UNL     1      50.821   7.392  10.696  0.00  0.00    +0.000 F 
ENDBRANCH  19  20
ENDBRANCH  14  15
BRANCH  10   9
ATOM      9  C   UNL     1      43.613   4.761  10.897  0.00  0.00    +0.000 C 
BRANCH   9   8
ATOM      4  C   UNL     1      46.464   2.201   7.519  0.00  0.00    +0.000 A 
ATOM      5  C   UNL     1      45.961   1.845   8.764  0.00  0.00    +0.000 A 
ATOM      6  C   UNL     1      45.191   2.769   9.472  0.00  0.00    +0.000 A 
ATOM      7  C   UNL     1      44.943   4.035   8.945  0.00  0.00    +0.000 A 
ATOM      8  N   UNL     1      44.191   4.983   9.599  0.00  0.00    +0.000 N 
ATOM     26  N   UNL     1      45.437   4.391   7.742  0.00  0.00    +0.000 NA
ATOM     27  C   UNL     1      46.186   3.478   7.060  0.00  0.00    +0.000 A 
ATOM     30  H   UNL     1      44.134   5.886   9.150  0.00  0.00    +0.000 HD
BRANCH   4   2
ATOM      1  N   UNL     1      48.275   1.860   5.932  0.00  0.00    +0.000 N 
ATOM      2  C   UNL     1      47.301   1.292   6.707  0.00  0.00    +0.000 C 
ATOM      3  O   UNL     1      47.150   0.078   6.744  0.00  0.00    +0.000 OA
ATOM     28  H   UNL     1      48.896   1.224   5.446  0.00  0.00    +0.000 HD
ATOM     29  H   UNL     1      48.585   2.814   6.049  0.00  0.00    +0.000 HD
ENDBRANCH   4   2
ENDBRANCH   9   8
ENDBRANCH  10   9
TORSDOF 5
ENDMDL
MODEL 4
REMARK VINA RESULT:    -8.113      4.804      8.382
REMARK INTER + INTRA:         -10.963
REMARK INTER:                 -10.129
REMARK INTRA:                  -0.835
REMARK UNBOUND:                -0.479
REMARK  Name = 
REMARK  5 active torsions:
REMARK  status: ('A' for Active; 'I' for Inactive)
REMARK    1  A    between atoms: C_2  and  C_4
REMARK    2  A    between atoms: N_8  and  C_9
REMARK    3  A    between atoms: C_9  and  C_10
REMARK    4  A    between atoms: C_14  and  N_15
REMARK    5  A    between atoms: C_19  and  C_20
REMARK                            x       y       z     vdW  Elec       q    Type
REMARK                         _______ _______ _______ _____ _____    ______ ____
ROOT
ATOM     10  C   UNL     1      47.047   6.986  12.537  0.00  0.00    +0.000 A 
ATOM     11  C   UNL     1      46.594   8.305  12.437  0.00  0.00    +0.000 A 
ATOM     12  C   UNL     1      45.327   8.564  11.927  0.00  0.00    +0.000 A 
ATOM     13  C   UNL     1      44.513   7.509  11.503  0.00  0.00    +0.000 A 
ATOM     14  C   UNL     1      44.926   6.170  11.589  0.00  0.00    +0.000 A 
ATOM     25  C   UNL     1      46.189   5.937  12.152  0.00  0.00    +0.000 A 
ENDROOT
BRANCH  14  15
ATOM     15  N   UNL     1      44.121   5.147  11.121  0.00  0.00    +0.000 N 
ATOM     16  C   UNL     1      43.075   4.523  11.941  0.00  0.00    +0.000 C 
ATOM     17  C   UNL     1      43.405   3.042  12.209  0.00  0.00    +0.000 C 
ATOM     18  N   UNL     1      43.642   2.262  10.981  0.00  0.00    +0.000 NA
ATOM     19  C   UNL     1      44.738   2.906  10.172  0.00  0.00    +0.000 C 
ATOM     24  C   UNL     1      44.485   4.414   9.891  0.00  0.00    +0.000 C 
ATOM     31  H   UNL     1      42.791   2.262  10.415  0.00  0.00    +0.000 HD
BRANCH  19  20
ATOM     20  C   UNL     1      45.051   2.202   8.823  0.00  0.00    +0.000 C 
ATOM     21  F   UNL     1      44.583   2.906   7.764  0.00  0.00    +0.000 F 
ATOM     22  F   UNL     1      46.379   2.038   8.620  0.00  0.00    +0.000 F 
ATOM     23  F   UNL     1      44.484   0.974   8.770  0.00  0.00    +0.000 F 
ENDBRANCH  19  20
ENDBRANCH  14  15
BRANCH  10   9
ATOM      9  C   UNL     1      48.469   6.690  12.936  0.00  0.00    +0.000 C 
BRANCH   9   8
ATOM      4  C   UNL     1      48.421   5.324  17.858  0.00  0.00    +0.000 A 
ATOM      5  C   UNL     1      48.032   4.651  16.706  0.00  0.00    +0.000 A 
ATOM      6  C   UNL     1      48.171   5.287  15.472  0.00  0.00    +0.000 A 
ATOM      7  C   UNL     1      48.677   6.582  15.396  0.00  0.00    +0.000 A 
ATOM      8  N   UNL     1      48.836   7.256  14.207  0.00  0.00    +0.000 N 
ATOM     26  N   UNL     1      49.046   7.246  16.510  0.00  0.00    +0.000 NA
ATOM     27  C   UNL     1      48.908   6.612  17.710  0.00  0.00    +0.000 A 
ATOM     30  H   UNL     1      49.150   8.212  14.281  0.00  0.00    +0.000 HD
BRANCH   4   2
ATOM      1  N   UNL     1      48.374   3.371  19.306  0.00  0.00    +0.000 N 
ATOM      2  C   UNL     1      48.295   4.733  19.207  0.00  0.00    +0.000 C 
ATOM      3  O   UNL     1      48.153   5.432  20.201  0.00  0.00    +0.000 OA
ATOM     28  H   UNL     1      48.371   2.983  20.242  0.00  0.00    +0.000 HD
ATOM     29  H   UNL     1      48.720   2.784  18.561  0.00  0.00    +0.000 HD
ENDBRANCH   4   2
ENDBRANCH   9   8
ENDBRANCH  10   9
TORSDOF 5
ENDMDL
MODEL 5
REMARK VINA RESULT:    -8.073      4.945      8.524
REMARK INTER + INTRA:         -10.912
REMARK INTER:                 -10.188
REMARK INTRA:                  -0.724
REMARK UNBOUND:                -0.479
REMARK  Name = 
REMARK  5 active torsions:
REMARK  status: ('A' for Active; 'I' for Inactive)
REMARK    1  A    between atoms: C_2  and  C_4
REMARK    2  A    between atoms: N_8  and  C_9
REMARK    3  A    between atoms: C_9  and  C_10
REMARK    4  A    between atoms: C_14  and  N_15
REMARK    5  A    between atoms: C_19  and  C_20
REMARK                            x       y       z     vdW  Elec       q    Type
REMARK                         _______ _______ _______ _____ _____    ______ ____
ROOT
ATOM     10  C   UNL     1      47.095   5.113  14.907  0.00  0.00    +0.000 A 
ATOM     11  C   UNL     1      48.014   6.070  14.463  0.00  0.00    +0.000 A 
ATOM     12  C   UNL     1      47.898   6.596  13.181  0.00  0.00    +0.000 A 
ATOM     13  C   UNL     1      46.875   6.159  12.333  0.00  0.00    +0.000 A 
ATOM     14  C   UNL     1      45.930   5.204  12.740  0.00  0.00    +0.000 A 
ATOM     25  C   UNL     1      46.043   4.727  14.054  0.00  0.00    +0.000 A 
ENDROOT
BRANCH  14  15
ATOM     15  N   UNL     1      44.954   4.754  11.868  0.00  0.00    +0.000 N 
ATOM     16  C   UNL     1      43.629   4.315  12.320  0.00  0.00    +0.000 C 
ATOM     17  C   UNL     1      43.425   2.816  12.031  0.00  0.00    +0.000 C 
ATOM     18  N   UNL     1      43.642   2.455  10.619  0.00  0.00    +0.000 NA
ATOM     19  C   UNL     1      45.019   2.891  10.187  0.00  0.00    +0.000 C 
ATOM     24  C   UNL     1      45.304   4.390  10.479  0.00  0.00    +0.000 C 
ATOM     31  H   UNL     1      42.959   2.947  10.039  0.00  0.00    +0.000 HD
BRANCH  19  20
ATOM     20  C   UNL     1      45.353   2.609   8.697  0.00  0.00    +0.000 C 
ATOM     21  F   UNL     1      46.137   3.577   8.162  0.00  0.00    +0.000 F 
ATOM     22  F   UNL     1      46.013   1.440   8.526  0.00  0.00    +0.000 F 
ATOM     23  F   UNL     1      44.227   2.545   7.947  0.00  0.00    +0.000 F 
ENDBRANCH  19  20
ENDBRANCH  14  15
BRANCH  10   9
ATOM      9  C   UNL     1      47.291   4.414  16.227  0.00  0.00    +0.000 C 
BRANCH   9   8
ATOM      4  C   UNL     1      51.726   2.358  17.712  0.00  0.00    +0.000 A 
ATOM      5  C   UNL     1      51.177   3.619  17.911  0.00  0.00    +0.000 A 
ATOM      6  C   UNL     1      49.916   3.899  17.382  0.00  0.00    +0.000 A 
ATOM      7  C   UNL     1      49.224   2.935  16.653  0.00  0.00    +0.000 A 
ATOM      8  N   UNL     1      47.980   3.156  16.111  0.00  0.00    +0.000 N 
ATOM     26  N   UNL     1      49.755   1.712  16.447  0.00  0.00    +0.000 NA
ATOM     27  C   UNL     1      50.987   1.451  16.971  0.00  0.00    +0.000 A 
ATOM     30  H   UNL     1      47.605   2.407  15.547  0.00  0.00    +0.000 HD
BRANCH   4   2
ATOM      1  N   UNL     1      53.425   2.469  19.448  0.00  0.00    +0.000 N 
ATOM      2  C   UNL     1      53.061   1.980  18.223  0.00  0.00    +0.000 C 
ATOM      3  O   UNL     1      53.801   1.239  17.591  0.00  0.00    +0.000 OA
ATOM     28  H   UNL     1      54.305   2.136  19.824  0.00  0.00    +0.000 HD
ATOM     29  H   UNL     1      52.769   2.880  20.094  0.00  0.00    +0.000 HD
ENDBRANCH   4   2
ENDBRANCH   9   8
ENDBRANCH  10   9
TORSDOF 5
ENDMDL
MODEL 6
REMARK VINA RESULT:    -8.061      4.814      8.655
REMARK INTER + INTRA:         -10.896
REMARK INTER:                 -10.232
REMARK INTRA:                  -0.664
REMARK UNBOUND:                -0.479
REMARK  Name = 
REMARK  5 active torsions:
REMARK  status: ('A' for Active; 'I' for Inactive)
REMARK    1  A    between atoms: C_2  and  C_4
REMARK    2  A    between atoms: N_8  and  C_9
REMARK    3  A    between atoms: C_9  and  C_10
REMARK    4  A    between atoms: C_14  and  N_15
REMARK    5  A    between atoms: C_19  and  C_20
REMARK                            x       y       z     vdW  Elec       q    Type
REMARK                         _______ _______ _______ _____ _____    ______ ____
ROOT
ATOM     10  C   UNL     1      46.616   6.791  13.251  0.00  0.00    +0.000 A 
ATOM     11  C   UNL     1      46.384   8.127  12.911  0.00  0.00    +0.000 A 
ATOM     12  C   UNL     1      45.391   8.444  11.991  0.00  0.00    +0.000 A 
ATOM     13  C   UNL     1      44.635   7.428  11.397  0.00  0.00    +0.000 A 
ATOM     14  C   UNL     1      44.832   6.074  11.713  0.00  0.00    +0.000 A 
ATOM     25  C   UNL     1      45.807   5.788  12.679  0.00  0.00    +0.000 A 
ENDROOT
BRANCH  14  15
ATOM     15  N   UNL     1      44.102   5.084  11.079  0.00  0.00    +0.000 N 
ATOM     16  C   UNL     1      43.007   4.362  11.737  0.00  0.00    +0.000 C 
ATOM     17  C   UNL     1      43.355   2.870  11.893  0.00  0.00    +0.000 C 
ATOM     18  N   UNL     1      43.723   2.217  10.623  0.00  0.00    +0.000 NA
ATOM     19  C   UNL     1      44.867   2.960   9.981  0.00  0.00    +0.000 C 
ATOM     24  C   UNL     1      44.595   4.482   9.823  0.00  0.00    +0.000 C 
ATOM     31  H   UNL     1      42.926   2.254   9.985  0.00  0.00    +0.000 HD
BRANCH  19  20
ATOM     20  C   UNL     1      45.319   2.397   8.606  0.00  0.00    +0.000 C 
ATOM     21  F   UNL     1      46.592   2.751   8.307  0.00  0.00    +0.000 F 
ATOM     22  F   UNL     1      45.274   1.045   8.560  0.00  0.00    +0.000 F 
ATOM     23  F   UNL     1      44.529   2.856   7.607  0.00  0.00    +0.000 F 
ENDBRANCH  19  20
ENDBRANCH  14  15
BRANCH  10   9
ATOM      9  C   UNL     1      47.786   6.410  14.120  0.00  0.00    +0.000 C 
BRANCH   9   8
ATOM      4  C   UNL     1      48.766   4.803  18.869  0.00  0.00    +0.000 A 
ATOM      5  C   UNL     1      49.064   5.990  18.213  0.00  0.00    +0.000 A 
ATOM      6  C   UNL     1      48.655   6.154  16.889  0.00  0.00    +0.000 A 
ATOM      7  C   UNL     1      47.970   5.136  16.230  0.00  0.00    +0.000 A 
ATOM      8  N   UNL     1      47.543   5.243  14.927  0.00  0.00    +0.000 N 
ATOM     26  N   UNL     1      47.687   3.976  16.856  0.00  0.00    +0.000 NA
ATOM     27  C   UNL     1      48.090   3.830  18.150  0.00  0.00    +0.000 A 
ATOM     30  H   UNL     1      47.116   4.418  14.534  0.00  0.00    +0.000 HD
BRANCH   4   2
ATOM      1  N   UNL     1      50.511   4.595  20.550  0.00  0.00    +0.000 N 
ATOM      2  C   UNL     1      49.174   4.538  20.265  0.00  0.00    +0.000 C 
ATOM      3  O   UNL     1      48.351   4.302  21.139  0.00  0.00    +0.000 OA
ATOM     28  H   UNL     1      50.771   4.496  21.524  0.00  0.00    +0.000 HD
ATOM     29  H   UNL     1      51.189   5.010  19.928  0.00  0.00    +0.000 HD
ENDBRANCH   4   2
ENDBRANCH   9   8
ENDBRANCH  10   9
TORSDOF 5
ENDMDL
MODEL 7
REMARK VINA RESULT:    -7.830      1.680      2.582
REMARK INTER + INTRA:         -10.598
REMARK INTER:                  -9.762
REMARK INTRA:                  -0.836
REMARK UNBOUND:                -0.479
REMARK  Name = 
REMARK  5 active torsions:
REMARK  status: ('A' for Active; 'I' for Inactive)
REMARK    1  A    between atoms: C_2  and  C_4
REMARK    2  A    between atoms: N_8  and  C_9
REMARK    3  A    between atoms: C_9  and  C_10
REMARK    4  A    between atoms: C_14  and  N_15
REMARK    5  A    between atoms: C_19  and  C_20
REMARK                            x       y       z     vdW  Elec       q    Type
REMARK                         _______ _______ _______ _____ _____    ______ ____
ROOT
ATOM     10  C   UNL     1      45.066   5.274  12.186  0.00  0.00    +0.000 A 
ATOM     11  C   UNL     1      45.126   4.190  13.067  0.00  0.00    +0.000 A 
ATOM     12  C   UNL     1      46.089   4.167  14.070  0.00  0.00    +0.000 A 
ATOM     13  C   UNL     1      47.003   5.219  14.188  0.00  0.00    +0.000 A 
ATOM     14  C   UNL     1      46.976   6.328  13.328  0.00  0.00    +0.000 A 
ATOM     25  C   UNL     1      45.964   6.346  12.356  0.00  0.00    +0.000 A 
ENDROOT
BRANCH  14  15
ATOM     15  N   UNL     1      47.919   7.334  13.436  0.00  0.00    +0.000 N 
ATOM     16  C   UNL     1      48.451   8.051  12.271  0.00  0.00    +0.000 C 
ATOM     17  C   UNL     1      49.957   7.775  12.103  0.00  0.00    +0.000 C 
ATOM     18  N   UNL     1      50.748   8.078  13.310  0.00  0.00    +0.000 NA
ATOM     19  C   UNL     1      50.200   7.310  14.485  0.00  0.00    +0.000 C 
ATOM     24  C   UNL     1      48.674   7.518  14.693  0.00  0.00    +0.000 C 
ATOM     31  H   UNL     1      50.667   9.075  13.520  0.00  0.00    +0.000 HD
BRANCH  19  20
ATOM     20  C   UNL     1      50.921   7.582  15.833  0.00  0.00    +0.000 C 
ATOM     21  F   UNL     1      51.363   8.860  15.922  0.00  0.00    +0.000 F 
ATOM     22  F   UNL     1      50.115   7.378  16.901  0.00  0.00    +0.000 F 
ATOM     23  F   UNL     1      51.996   6.774  15.985  0.00  0.00    +0.000 F 
ENDBRANCH  19  20
ENDBRANCH  14  15
BRANCH  10   9
ATOM      9  C   UNL     1      44.140   5.248  10.997  0.00  0.00    +0.000 C 
BRANCH   9   8
ATOM      4  C   UNL     1      46.568   2.319   7.588  0.00  0.00    +0.000 A 
ATOM      5  C   UNL     1      45.936   2.015   8.786  0.00  0.00    +0.000 A 
ATOM      6  C   UNL     1      45.340   3.044   9.518  0.00  0.00    +0.000 A 
ATOM      7  C   UNL     1      45.391   4.358   9.060  0.00  0.00    +0.000 A 
ATOM      8  N   UNL     1      44.821   5.410   9.739  0.00  0.00    +0.000 N 
ATOM     26  N   UNL     1      46.013   4.663   7.903  0.00  0.00    +0.000 NA
ATOM     27  C   UNL     1      46.589   3.648   7.197  0.00  0.00    +0.000 A 
ATOM     30  H   UNL     1      44.979   6.326   9.346  0.00  0.00    +0.000 HD
BRANCH   4   2
ATOM      1  N   UNL     1      48.218   1.725   5.903  0.00  0.00    +0.000 N 
ATOM      2  C   UNL     1      47.238   1.296   6.757  0.00  0.00    +0.000 C 
ATOM      3  O   UNL     1      46.949   0.111   6.844  0.00  0.00    +0.000 OA
ATOM     28  H   UNL     1      48.727   1.007   5.401  0.00  0.00    +0.000 HD
ATOM     29  H   UNL     1      48.644   2.638   5.967  0.00  0.00    +0.000 HD
ENDBRANCH   4   2
ENDBRANCH   9   8
ENDBRANCH  10   9
TORSDOF 5
ENDMDL
MODEL 8
REMARK VINA RESULT:    -7.465      1.629      2.067
REMARK INTER + INTRA:         -10.126
REMARK INTER:                  -9.777
REMARK INTRA:                  -0.349
REMARK UNBOUND:                -0.479
REMARK  Name = 
REMARK  5 active torsions:
REMARK  status: ('A' for Active; 'I' for Inactive)
REMARK    1  A    between atoms: C_2  and  C_4
REMARK    2  A    between atoms: N_8  and  C_9
REMARK    3  A    between atoms: C_9  and  C_10
REMARK    4  A    between atoms: C_14  and  N_15
REMARK    5  A    between atoms: C_19  and  C_20
REMARK                            x       y       z     vdW  Elec       q    Type
REMARK                         _______ _______ _______ _____ _____    ______ ____
ROOT
ATOM     10  C   UNL     1      44.348   6.339  11.131  0.00  0.00    +0.000 A 
ATOM     11  C   UNL     1      43.997   7.691  11.193  0.00  0.00    +0.000 A 
ATOM     12  C   UNL     1      44.881   8.611  11.746  0.00  0.00    +0.000 A 
ATOM     13  C   UNL     1      46.113   8.182  12.252  0.00  0.00    +0.000 A 
ATOM     14  C   UNL     1      46.507   6.835  12.206  0.00  0.00    +0.000 A 
ATOM     25  C   UNL     1      45.615   5.939  11.599  0.00  0.00    +0.000 A 
ENDROOT
BRANCH  14  15
ATOM     15  N   UNL     1      47.711   6.429  12.753  0.00  0.00    +0.000 N 
ATOM     16  C   UNL     1      47.794   5.646  13.992  0.00  0.00    +0.000 C 
ATOM     17  C   UNL     1      48.498   6.453  15.099  0.00  0.00    +0.000 C 
ATOM     18  N   UNL     1      49.827   6.954  14.707  0.00  0.00    +0.000 NA
ATOM     19  C   UNL     1      49.711   7.777  13.449  0.00  0.00    +0.000 C 
ATOM     24  C   UNL     1      48.980   7.032  12.297  0.00  0.00    +0.000 C 
ATOM     31  H   UNL     1      50.438   6.159  14.508  0.00  0.00    +0.000 HD
BRANCH  19  20
ATOM     20  C   UNL     1      51.058   8.324  12.903  0.00  0.00    +0.000 C 
ATOM     21  F   UNL     1      52.085   8.081  13.753  0.00  0.00    +0.000 F 
ATOM     22  F   UNL     1      51.400   7.768  11.717  0.00  0.00    +0.000 F 
ATOM     23  F   UNL     1      51.001   9.664  12.715  0.00  0.00    +0.000 F 
ENDBRANCH  19  20
ENDBRANCH  14  15
BRANCH  10   9
ATOM      9  C   UNL     1      43.348   5.305  10.684  0.00  0.00    +0.000 C 
BRANCH   9   8
ATOM      4  C   UNL     1      46.383   2.500   7.680  0.00  0.00    +0.000 A 
ATOM      5  C   UNL     1      45.947   3.816   7.587  0.00  0.00    +0.000 A 
ATOM      6  C   UNL     1      45.111   4.324   8.581  0.00  0.00    +0.000 A 
ATOM      7  C   UNL     1      44.706   3.521   9.645  0.00  0.00    +0.000 A 
ATOM      8  N   UNL     1      43.884   3.969  10.652  0.00  0.00    +0.000 N 
ATOM     26  N   UNL     1      45.116   2.239   9.736  0.00  0.00    +0.000 NA
ATOM     27  C   UNL     1      45.935   1.756   8.759  0.00  0.00    +0.000 A 
ATOM     30  H   UNL     1      43.605   3.279  11.333  0.00  0.00    +0.000 HD
BRANCH   4   2
ATOM      1  N   UNL     1      48.348   2.590   6.251  0.00  0.00    +0.000 N 
ATOM      2  C   UNL     1      47.258   1.875   6.665  0.00  0.00    +0.000 C 
ATOM      3  O   UNL     1      47.033   0.754   6.230  0.00  0.00    +0.000 OA
ATOM     28  H   UNL     1      48.985   2.119   5.619  0.00  0.00    +0.000 HD
ATOM     29  H   UNL     1      48.696   3.399   6.744  0.00  0.00    +0.000 HD
ENDBRANCH   4   2
ENDBRANCH   9   8
ENDBRANCH  10   9
TORSDOF 5
ENDMDL
MODEL 9
REMARK VINA RESULT:    -7.308      3.295      4.690
REMARK INTER + INTRA:          -9.923
REMARK INTER:                  -9.010
REMARK INTRA:                  -0.913
REMARK UNBOUND:                -0.479
REMARK  Name = 
REMARK  5 active torsions:
REMARK  status: ('A' for Active; 'I' for Inactive)
REMARK    1  A    between atoms: C_2  and  C_4
REMARK    2  A    between atoms: N_8  and  C_9
REMARK    3  A    between atoms: C_9  and  C_10
REMARK    4  A    between atoms: C_14  and  N_15
REMARK    5  A    between atoms: C_19  and  C_20
REMARK                            x       y       z     vdW  Elec       q    Type
REMARK                         _______ _______ _______ _____ _____    ______ ____
ROOT
ATOM     10  C   UNL     1      47.863   8.188  13.070  0.00  0.00    +0.000 A 
ATOM     11  C   UNL     1      48.986   8.561  12.326  0.00  0.00    +0.000 A 
ATOM     12  C   UNL     1      50.260   8.358  12.847  0.00  0.00    +0.000 A 
ATOM     13  C   UNL     1      50.415   7.797  14.119  0.00  0.00    +0.000 A 
ATOM     14  C   UNL     1      49.315   7.405  14.898  0.00  0.00    +0.000 A 
ATOM     25  C   UNL     1      48.046   7.577  14.327  0.00  0.00    +0.000 A 
ENDROOT
BRANCH  14  15
ATOM     15  N   UNL     1      49.493   6.894  16.171  0.00  0.00    +0.000 N 
ATOM     16  C   UNL     1      50.785   6.930  16.867  0.00  0.00    +0.000 C 
ATOM     17  C   UNL     1      51.316   5.503  17.103  0.00  0.00    +0.000 C 
ATOM     18  N   UNL     1      50.363   4.633  17.815  0.00  0.00    +0.000 NA
ATOM     19  C   UNL     1      49.055   4.590  17.067  0.00  0.00    +0.000 C 
ATOM     24  C   UNL     1      48.477   6.001  16.766  0.00  0.00    +0.000 C 
ATOM     31  H   UNL     1      50.183   5.022  18.742  0.00  0.00    +0.000 HD
BRANCH  19  20
ATOM     20  C   UNL     1      47.945   3.740  17.745  0.00  0.00    +0.000 C 
ATOM     21  F   UNL     1      47.654   2.626  17.031  0.00  0.00    +0.000 F 
ATOM     22  F   UNL     1      48.297   3.323  18.984  0.00  0.00    +0.000 F 
ATOM     23  F   UNL     1      46.798   4.447  17.872  0.00  0.00    +0.000 F 
ENDBRANCH  19  20
ENDBRANCH  14  15
BRANCH  10   9
ATOM      9  C   UNL     1      46.476   8.541  12.598  0.00  0.00    +0.000 C 
BRANCH   9   8
ATOM      4  C   UNL     1      44.297   4.043  11.541  0.00  0.00    +0.000 A 
ATOM      5  C   UNL     1      45.308   4.754  10.907  0.00  0.00    +0.000 A 
ATOM      6  C   UNL     1      45.710   5.980  11.439  0.00  0.00    +0.000 A 
ATOM      7  C   UNL     1      45.097   6.491  12.581  0.00  0.00    +0.000 A 
ATOM      8  N   UNL     1      45.453   7.692  13.148  0.00  0.00    +0.000 N 
ATOM     26  N   UNL     1      44.107   5.811  13.196  0.00  0.00    +0.000 NA
ATOM     27  C   UNL     1      43.726   4.614  12.667  0.00  0.00    +0.000 A 
ATOM     30  H   UNL     1      44.895   7.990  13.934  0.00  0.00    +0.000 HD
BRANCH   4   2
ATOM      1  N   UNL     1      44.433   2.208   9.952  0.00  0.00    +0.000 N 
ATOM      2  C   UNL     1      43.799   2.745  11.039  0.00  0.00    +0.000 C 
ATOM      3  O   UNL     1      42.874   2.159  11.585  0.00  0.00    +0.000 OA
ATOM     28  H   UNL     1      44.138   1.281   9.668  0.00  0.00    +0.000 HD
ATOM     29  H   UNL     1      45.330   2.532   9.621  0.00  0.00    +0.000 HD
ENDBRANCH   4   2
ENDBRANCH   9   8
ENDBRANCH  10   9
TORSDOF 5
ENDMDL
