MODEL 1
REMARK VINA RESULT:    -8.687      0.000      0.000
REMARK INTER + INTRA:         -12.560
REMARK INTER:                 -11.733
REMARK INTRA:                  -0.826
REMARK UNBOUND:                -0.826
REMARK  Name = 
REMARK  8 active torsions:
REMARK  status: ('A' for Active; 'I' for Inactive)
REMARK    1  A    between atoms: C_1  and  C_2
REMARK    2  A    between atoms: C_2  and  C_3
REMARK    3  A    between atoms: C_2  and  C_4
REMARK    4  A    between atoms: C_2  and  C_15
REMARK    5  A    between atoms: C_4  and  N_5
REMARK    6  A    between atoms: C_9  and  C_10
REMARK    7  A    between atoms: C_19  and  N_20
REMARK    8  A    between atoms: N_20  and  C_21
REMARK                            x       y       z     vdW  Elec       q    Type
REMARK                         _______ _______ _______ _____ _____    ______ ____
ROOT
ATOM      1  C   UNL     1      43.225   6.712  11.382  0.00  0.00    +0.000 C 
ATOM      2  C   UNL     1      43.642   5.371  12.035  0.00  0.00    +0.000 C 
ATOM      3  C   UNL     1      42.615   5.093  13.161  0.00  0.00    +0.000 C 
ENDROOT
BRANCH   2  15
ATOM     15  C   UNL     1      45.089   5.444  12.586  0.00  0.00    +0.000 A 
ATOM     16  C   UNL     1      46.049   6.295  12.013  0.00  0.00    +0.000 A 
ATOM     17  C   UNL     1      47.361   6.337  12.492  0.00  0.00    +0.000 A 
ATOM     18  C   UNL     1      47.758   5.501  13.535  0.00  0.00    +0.000 A 
ATOM     19  C   UNL     1      46.847   4.624  14.114  0.00  0.00    +0.000 A 
ATOM     25  C   UNL     1      45.521   4.616  13.643  0.00  0.00    +0.000 A 
BRANCH  19  20
ATOM     20  N   UNL     1      47.185   3.748  15.168  0.00  0.00    +0.000 N 
ATOM     29  H   UNL     1      46.398   3.130  15.368  0.00  0.00    +0.000 HD
BRANCH  20  21
ATOM     21  C   UNL     1      47.939   4.101  16.346  0.00  0.00    +0.000 C 
ATOM     22  C   UNL     1      48.375   2.862  17.156  0.00  0.00    +0.000 C 
ATOM     23  N   UNL     1      47.876   3.497  18.390  0.00  0.00    +0.000 NA
ATOM     24  C   UNL     1      47.118   4.478  17.589  0.00  0.00    +0.000 C 
ATOM     30  H   UNL     1      48.615   3.915  18.954  0.00  0.00    +0.000 HD
ENDBRANCH  20  21
ENDBRANCH  19  20
ENDBRANCH   2  15
BRANCH   2   4
ATOM      4  C   UNL     1      43.595   4.219  10.982  0.00  0.00    +0.000 C 
BRANCH   4   5
ATOM      5  N   UNL     1      43.974   4.667   9.644  0.00  0.00    +0.000 N 
ATOM      6  C   UNL     1      44.936   3.984   8.922  0.00  0.00    +0.000 A 
ATOM      7  C   UNL     1      45.109   2.604   8.984  0.00  0.00    +0.000 A 
ATOM      8  C   UNL     1      46.065   1.993   8.171  0.00  0.00    +0.000 A 
ATOM      9  C   UNL     1      46.823   2.760   7.288  0.00  0.00    +0.000 A 
ATOM     13  C   UNL     1      46.581   4.124   7.287  0.00  0.00    +0.000 A 
ATOM     14  N   UNL     1      45.666   4.743   8.085  0.00  0.00    +0.000 NA
ATOM     26  H   UNL     1      44.174   5.658   9.533  0.00  0.00    +0.000 HD
BRANCH   9  10
ATOM     10  C   UNL     1      47.818   2.085   6.421  0.00  0.00    +0.000 C 
ATOM     11  N   UNL     1      48.196   2.677   5.250  0.00  0.00    +0.000 N 
ATOM     12  O   UNL     1      48.300   1.002   6.738  0.00  0.00    +0.000 OA
ATOM     27  H   UNL     1      47.847   3.547   4.880  0.00  0.00    +0.000 HD
ATOM     28  H   UNL     1      48.868   2.167   4.687  0.00  0.00    +0.000 HD
ENDBRANCH   9  10
ENDBRANCH   4   5
ENDBRANCH   2   4
TORSDOF 6
ENDMDL
MODEL 2
REMARK VINA RESULT:    -8.206      3.080      4.790
REMARK INTER + INTRA:         -11.911
REMARK INTER:                 -11.237
REMARK INTRA:                  -0.674
REMARK UNBOUND:                -0.826
REMARK  Name = 
REMARK  8 active torsions:
REMARK  status: ('A' for Active; 'I' for Inactive)
REMARK    1  A    between atoms: C_1  and  C_2
REMARK    2  A    between atoms: C_2  and  C_3
REMARK    3  A    between atoms: C_2  and  C_4
REMARK    4  A    between atoms: C_2  and  C_15
REMARK    5  A    between atoms: C_4  and  N_5
REMARK    6  A    between atoms: C_9  and  C_10
REMARK    7  A    between atoms: C_19  and  N_20
REMARK    8  A    between atoms: N_20  and  C_21
REMARK                            x       y       z     vdW  Elec       q    Type
REMARK                         _______ _______ _______ _____ _____    ______ ____
ROOT
ATOM      1  C   UNL     1      43.405   4.597  13.539  0.00  0.00    +0.000 C 
ATOM      2  C   UNL     1      44.260   4.631  12.248  0.00  0.00    +0.000 C 
ATOM      3  C   UNL     1      45.183   3.388  12.298  0.00  0.00    +0.000 C 
ENDROOT
BRANCH   2  15
ATOM     15  C   UNL     1      45.076   5.946  12.154  0.00  0.00    +0.000 A 
ATOM     16  C   UNL     1      46.464   5.934  11.934  0.00  0.00    +0.000 A 
ATOM     17  C   UNL     1      47.201   7.119  11.880  0.00  0.00    +0.000 A 
ATOM     18  C   UNL     1      46.575   8.349  12.080  0.00  0.00    +0.000 A 
ATOM     19  C   UNL     1      45.207   8.405  12.326  0.00  0.00    +0.000 A 
ATOM     25  C   UNL     1      44.473   7.206  12.346  0.00  0.00    +0.000 A 
BRANCH  19  20
ATOM     20  N   UNL     1      44.514   9.616  12.543  0.00  0.00    +0.000 N 
ATOM     29  H   UNL     1      43.730   9.455  13.176  0.00  0.00    +0.000 HD
BRANCH  20  21
ATOM     21  C   UNL     1      44.235  10.616  11.543  0.00  0.00    +0.000 C 
ATOM     22  C   UNL     1      42.806  11.186  11.665  0.00  0.00    +0.000 C 
ATOM     23  N   UNL     1      42.603  10.982  10.219  0.00  0.00    +0.000 NA
ATOM     24  C   UNL     1      43.782  10.094  10.170  0.00  0.00    +0.000 C 
ATOM     30  H   UNL     1      42.714  11.837   9.673  0.00  0.00    +0.000 HD
ENDBRANCH  20  21
ENDBRANCH  19  20
ENDBRANCH   2  15
BRANCH   2   4
ATOM      4  C   UNL     1      43.341   4.554  10.988  0.00  0.00    +0.000 C 
BRANCH   4   5
ATOM      5  N   UNL     1      44.007   5.027   9.777  0.00  0.00    +0.000 N 
ATOM      6  C   UNL     1      44.864   4.196   9.078  0.00  0.00    +0.000 A 
ATOM      7  C   UNL     1      44.681   2.820   8.965  0.00  0.00    +0.000 A 
ATOM      8  C   UNL     1      45.563   2.071   8.186  0.00  0.00    +0.000 A 
ATOM      9  C   UNL     1      46.606   2.701   7.510  0.00  0.00    +0.000 A 
ATOM     13  C   UNL     1      46.711   4.073   7.673  0.00  0.00    +0.000 A 
ATOM     14  N   UNL     1      45.872   4.821   8.443  0.00  0.00    +0.000 NA
ATOM     26  H   UNL     1      44.460   5.937   9.829  0.00  0.00    +0.000 HD
BRANCH   9  10
ATOM     10  C   UNL     1      47.518   1.884   6.673  0.00  0.00    +0.000 C 
ATOM     11  N   UNL     1      48.616   2.471   6.111  0.00  0.00    +0.000 N 
ATOM     12  O   UNL     1      47.296   0.694   6.475  0.00  0.00    +0.000 OA
ATOM     27  H   UNL     1      48.879   3.441   6.185  0.00  0.00    +0.000 HD
ATOM     28  H   UNL     1      49.198   1.872   5.537  0.00  0.00    +0.000 HD
ENDBRANCH   9  10
ENDBRANCH   4   5
ENDBRANCH   2   4
TORSDOF 6
ENDMDL
MODEL 3
REMARK VINA RESULT:    -7.957      2.353      3.321
REMARK INTER + INTRA:         -11.574
REMARK INTER:                 -10.850
REMARK INTRA:                  -0.724
REMARK UNBOUND:                -0.826
REMARK  Name = 
REMARK  8 active torsions:
REMARK  status: ('A' for Active; 'I' for Inactive)
REMARK    1  A    between atoms: C_1  and  C_2
REMARK    2  A    between atoms: C_2  and  C_3
REMARK    3  A    between atoms: C_2  and  C_4
REMARK    4  A    between atoms: C_2  and  C_15
REMARK    5  A    between atoms: C_4  and  N_5
REMARK    6  A    between atoms: C_9  and  C_10
REMARK    7  A    between atoms: C_19  and  N_20
REMARK    8  A    between atoms: N_20  and  C_21
REMARK                            x       y       z     vdW  Elec       q    Type
REMARK                         _______ _______ _______ _____ _____    ______ ____
ROOT
ATOM      1  C   UNL     1      43.073   6.822  11.402  0.00  0.00    +0.000 C 
ATOM      2  C   UNL     1      43.573   5.497  12.030  0.00  0.00    +0.000 C 
ATOM      3  C   UNL     1      42.690   5.241  13.277  0.00  0.00    +0.000 C 
ENDROOT
BRANCH   2  15
ATOM     15  C   UNL     1      45.075   5.587  12.400  0.00  0.00    +0.000 A 
ATOM     16  C   UNL     1      45.622   4.812  13.437  0.00  0.00    +0.000 A 
ATOM     17  C   UNL     1      46.970   4.917  13.788  0.00  0.00    +0.000 A 
ATOM     18  C   UNL     1      47.801   5.828  13.136  0.00  0.00    +0.000 A 
ATOM     19  C   UNL     1      47.294   6.634  12.121  0.00  0.00    +0.000 A 
ATOM     25  C   UNL     1      45.943   6.494  11.757  0.00  0.00    +0.000 A 
BRANCH  19  20
ATOM     20  N   UNL     1      48.078   7.580  11.426  0.00  0.00    +0.000 N 
ATOM     29  H   UNL     1      48.853   7.108  10.961  0.00  0.00    +0.000 HD
BRANCH  20  21
ATOM     21  C   UNL     1      48.421   8.898  11.898  0.00  0.00    +0.000 C 
ATOM     22  C   UNL     1      48.637   8.935  13.426  0.00  0.00    +0.000 C 
ATOM     23  N   UNL     1      47.760  10.117  13.518  0.00  0.00    +0.000 NA
ATOM     24  C   UNL     1      47.246   9.852  12.160  0.00  0.00    +0.000 C 
ATOM     30  H   UNL     1      48.274  10.994  13.596  0.00  0.00    +0.000 HD
ENDBRANCH  20  21
ENDBRANCH  19  20
ENDBRANCH   2  15
BRANCH   2   4
ATOM      4  C   UNL     1      43.406   4.322  11.015  0.00  0.00    +0.000 C 
BRANCH   4   5
ATOM      5  N   UNL     1      43.831   4.681   9.664  0.00  0.00    +0.000 N 
ATOM      6  C   UNL     1      44.795   3.936   9.011  0.00  0.00    +0.000 A 
ATOM      7  C   UNL     1      44.933   2.558   9.157  0.00  0.00    +0.000 A 
ATOM      8  C   UNL     1      45.895   1.880   8.407  0.00  0.00    +0.000 A 
ATOM      9  C   UNL     1      46.695   2.577   7.504  0.00  0.00    +0.000 A 
ATOM     13  C   UNL     1      46.486   3.944   7.417  0.00  0.00    +0.000 A 
ATOM     14  N   UNL     1      45.565   4.628   8.152  0.00  0.00    +0.000 NA
ATOM     26  H   UNL     1      44.057   5.660   9.502  0.00  0.00    +0.000 HD
BRANCH   9  10
ATOM     10  C   UNL     1      47.696   1.830   6.705  0.00  0.00    +0.000 C 
ATOM     11  N   UNL     1      48.711   2.512   6.097  0.00  0.00    +0.000 N 
ATOM     12  O   UNL     1      47.621   0.612   6.579  0.00  0.00    +0.000 OA
ATOM     27  H   UNL     1      48.853   3.510   6.111  0.00  0.00    +0.000 HD
ATOM     28  H   UNL     1      49.360   1.956   5.551  0.00  0.00    +0.000 HD
ENDBRANCH   9  10
ENDBRANCH   4   5
ENDBRANCH   2   4
TORSDOF 6
ENDMDL
MODEL 4
REMARK VINA RESULT:    -7.874      2.984      8.348
REMARK INTER + INTRA:         -11.462
REMARK INTER:                 -10.850
REMARK INTRA:                  -0.612
REMARK UNBOUND:                -0.826
REMARK  Name = 
REMARK  8 active torsions:
REMARK  status: ('A' for Active; 'I' for Inactive)
REMARK    1  A    between atoms: C_1  and  C_2
REMARK    2  A    between atoms: C_2  and  C_3
REMARK    3  A    between atoms: C_2  and  C_4
REMARK    4  A    between atoms: C_2  and  C_15
REMARK    5  A    between atoms: C_4  and  N_5
REMARK    6  A    between atoms: C_9  and  C_10
REMARK    7  A    between atoms: C_19  and  N_20
REMARK    8  A    between atoms: N_20  and  C_21
REMARK                            x       y       z     vdW  Elec       q    Type
REMARK                         _______ _______ _______ _____ _____    ______ ____
ROOT
ATOM      1  C   UNL     1      44.363   6.892  11.716  0.00  0.00    +0.000 C 
ATOM      2  C   UNL     1      45.528   5.874  11.637  0.00  0.00    +0.000 C 
ATOM      3  C   UNL     1      46.775   6.667  11.173  0.00  0.00    +0.000 C 
ENDROOT
BRANCH   2  15
ATOM     15  C   UNL     1      45.191   4.716  10.663  0.00  0.00    +0.000 A 
ATOM     16  C   UNL     1      44.403   3.624  11.066  0.00  0.00    +0.000 A 
ATOM     17  C   UNL     1      44.126   2.568  10.195  0.00  0.00    +0.000 A 
ATOM     18  C   UNL     1      44.659   2.557   8.907  0.00  0.00    +0.000 A 
ATOM     19  C   UNL     1      45.466   3.604   8.475  0.00  0.00    +0.000 A 
ATOM     25  C   UNL     1      45.710   4.677   9.352  0.00  0.00    +0.000 A 
BRANCH  19  20
ATOM     20  N   UNL     1      46.043   3.652   7.187  0.00  0.00    +0.000 N 
ATOM     29  H   UNL     1      45.555   4.342   6.617  0.00  0.00    +0.000 HD
BRANCH  20  21
ATOM     21  C   UNL     1      46.499   2.514   6.428  0.00  0.00    +0.000 C 
ATOM     22  C   UNL     1      47.681   1.791   7.108  0.00  0.00    +0.000 C 
ATOM     23  N   UNL     1      48.416   1.796   5.829  0.00  0.00    +0.000 NA
ATOM     24  C   UNL     1      47.488   2.809   5.290  0.00  0.00    +0.000 C 
ATOM     30  H   UNL     1      48.374   0.902   5.338  0.00  0.00    +0.000 HD
ENDBRANCH  20  21
ENDBRANCH  19  20
ENDBRANCH   2  15
BRANCH   2   4
ATOM      4  C   UNL     1      45.794   5.246  13.042  0.00  0.00    +0.000 C 
BRANCH   4   5
ATOM      5  N   UNL     1      47.139   5.532  13.538  0.00  0.00    +0.000 N 
ATOM      6  C   UNL     1      47.514   5.141  14.810  0.00  0.00    +0.000 A 
ATOM      7  C   UNL     1      47.065   3.974  15.421  0.00  0.00    +0.000 A 
ATOM      8  C   UNL     1      47.548   3.628  16.684  0.00  0.00    +0.000 A 
ATOM      9  C   UNL     1      48.490   4.437  17.316  0.00  0.00    +0.000 A 
ATOM     13  C   UNL     1      48.888   5.575  16.634  0.00  0.00    +0.000 A 
ATOM     14  N   UNL     1      48.416   5.940  15.408  0.00  0.00    +0.000 NA
ATOM     26  H   UNL     1      47.481   6.481  13.410  0.00  0.00    +0.000 HD
BRANCH   9  10
ATOM     10  C   UNL     1      49.003   4.037  18.649  0.00  0.00    +0.000 C 
ATOM     11  N   UNL     1      48.292   3.143  19.398  0.00  0.00    +0.000 N 
ATOM     12  O   UNL     1      50.050   4.501  19.088  0.00  0.00    +0.000 OA
ATOM     27  H   UNL     1      47.412   2.721  19.149  0.00  0.00    +0.000 HD
ATOM     28  H   UNL     1      48.679   2.914  20.307  0.00  0.00    +0.000 HD
ENDBRANCH   9  10
ENDBRANCH   4   5
ENDBRANCH   2   4
TORSDOF 6
ENDMDL
MODEL 5
REMARK VINA RESULT:    -7.776      1.287      1.655
REMARK INTER + INTRA:         -11.330
REMARK INTER:                 -10.401
REMARK INTRA:                  -0.929
REMARK UNBOUND:                -0.826
REMARK  Name = 
REMARK  8 active torsions:
REMARK  status: ('A' for Active; 'I' for Inactive)
REMARK    1  A    between atoms: C_1  and  C_2
REMARK    2  A    between atoms: C_2  and  C_3
REMARK    3  A    between atoms: C_2  and  C_4
REMARK    4  A    between atoms: C_2  and  C_15
REMARK    5  A    between atoms: C_4  and  N_5
REMARK    6  A    between atoms: C_9  and  C_10
REMARK    7  A    between atoms: C_19  and  N_20
REMARK    8  A    between atoms: N_20  and  C_21
REMARK                            x       y       z     vdW  Elec       q    Type
REMARK                         _______ _______ _______ _____ _____    ______ ____
ROOT
ATOM      1  C   UNL     1      44.283   6.816  11.260  0.00  0.00    +0.000 C 
ATOM      2  C   UNL     1      43.886   5.490  11.955  0.00  0.00    +0.000 C 
ATOM      3  C   UNL     1      42.733   5.834  12.932  0.00  0.00    +0.000 C 
ENDROOT
BRANCH   2  15
ATOM     15  C   UNL     1      45.095   4.863  12.694  0.00  0.00    +0.000 A 
ATOM     16  C   UNL     1      45.439   3.511  12.523  0.00  0.00    +0.000 A 
ATOM     17  C   UNL     1      46.511   2.941  13.213  0.00  0.00    +0.000 A 
ATOM     18  C   UNL     1      47.248   3.699  14.123  0.00  0.00    +0.000 A 
ATOM     19  C   UNL     1      46.924   5.034  14.344  0.00  0.00    +0.000 A 
ATOM     25  C   UNL     1      45.863   5.603  13.617  0.00  0.00    +0.000 A 
BRANCH  19  20
ATOM     20  N   UNL     1      47.625   5.855  15.255  0.00  0.00    +0.000 N 
ATOM     29  H   UNL     1      47.988   6.674  14.769  0.00  0.00    +0.000 HD
BRANCH  20  21
ATOM     21  C   UNL     1      48.493   5.391  16.308  0.00  0.00    +0.000 C 
ATOM     22  C   UNL     1      48.060   5.908  17.696  0.00  0.00    +0.000 C 
ATOM     23  N   UNL     1      49.448   6.325  17.970  0.00  0.00    +0.000 NA
ATOM     24  C   UNL     1      49.777   6.203  16.536  0.00  0.00    +0.000 C 
ATOM     30  H   UNL     1      49.955   5.668  18.563  0.00  0.00    +0.000 HD
ENDBRANCH  20  21
ENDBRANCH  19  20
ENDBRANCH   2  15
BRANCH   2   4
ATOM      4  C   UNL     1      43.389   4.453  10.898  0.00  0.00    +0.000 C 
BRANCH   4   5
ATOM      5  N   UNL     1      43.852   4.763   9.547  0.00  0.00    +0.000 N 
ATOM      6  C   UNL     1      44.813   3.978   8.937  0.00  0.00    +0.000 A 
ATOM      7  C   UNL     1      44.918   2.603   9.127  0.00  0.00    +0.000 A 
ATOM      8  C   UNL     1      45.882   1.883   8.420  0.00  0.00    +0.000 A 
ATOM      9  C   UNL     1      46.717   2.536   7.515  0.00  0.00    +0.000 A 
ATOM     13  C   UNL     1      46.540   3.903   7.383  0.00  0.00    +0.000 A 
ATOM     14  N   UNL     1      45.617   4.628   8.076  0.00  0.00    +0.000 NA
ATOM     26  H   UNL     1      44.103   5.732   9.361  0.00  0.00    +0.000 HD
BRANCH   9  10
ATOM     10  C   UNL     1      47.719   1.744   6.761  0.00  0.00    +0.000 C 
ATOM     11  N   UNL     1      48.561   2.381   5.895  0.00  0.00    +0.000 N 
ATOM     12  O   UNL     1      47.797   0.528   6.901  0.00  0.00    +0.000 OA
ATOM     27  H   UNL     1      48.567   3.366   5.683  0.00  0.00    +0.000 HD
ATOM     28  H   UNL     1      49.216   1.792   5.394  0.00  0.00    +0.000 HD
ENDBRANCH   9  10
ENDBRANCH   4   5
ENDBRANCH   2   4
TORSDOF 6
ENDMDL
MODEL 6
REMARK VINA RESULT:    -7.766      2.461      3.186
REMARK INTER + INTRA:         -11.316
REMARK INTER:                 -11.509
REMARK INTRA:                   0.193
REMARK UNBOUND:                -0.826
REMARK  Name = 
REMARK  8 active torsions:
REMARK  status: ('A' for Active; 'I' for Inactive)
REMARK    1  A    between atoms: C_1  and  C_2
REMARK    2  A    between atoms: C_2  and  C_3
REMARK    3  A    between atoms: C_2  and  C_4
REMARK    4  A    between atoms: C_2  and  C_15
REMARK    5  A    between atoms: C_4  and  N_5
REMARK    6  A    between atoms: C_9  and  C_10
REMARK    7  A    between atoms: C_19  and  N_20
REMARK    8  A    between atoms: N_20  and  C_21
REMARK                            x       y       z     vdW  Elec       q    Type
REMARK                         _______ _______ _______ _____ _____    ______ ____
ROOT
ATOM      1  C   UNL     1      43.352   4.428  13.525  0.00  0.00    +0.000 C 
ATOM      2  C   UNL     1      44.125   4.783  12.230  0.00  0.00    +0.000 C 
ATOM      3  C   UNL     1      45.391   3.890  12.216  0.00  0.00    +0.000 C 
ENDROOT
BRANCH   2  15
ATOM     15  C   UNL     1      44.487   6.289  12.193  0.00  0.00    +0.000 A 
ATOM     16  C   UNL     1      43.868   7.170  11.289  0.00  0.00    +0.000 A 
ATOM     17  C   UNL     1      44.218   8.521  11.236  0.00  0.00    +0.000 A 
ATOM     18  C   UNL     1      45.223   9.023  12.062  0.00  0.00    +0.000 A 
ATOM     19  C   UNL     1      45.881   8.181  12.953  0.00  0.00    +0.000 A 
ATOM     25  C   UNL     1      45.496   6.829  13.017  0.00  0.00    +0.000 A 
BRANCH  19  20
ATOM     20  N   UNL     1      46.911   8.623  13.811  0.00  0.00    +0.000 N 
ATOM     29  H   UNL     1      46.699   9.562  14.148  0.00  0.00    +0.000 HD
BRANCH  20  21
ATOM     21  C   UNL     1      48.322   8.398  13.617  0.00  0.00    +0.000 C 
ATOM     22  C   UNL     1      48.630   7.757  12.247  0.00  0.00    +0.000 C 
ATOM     23  N   UNL     1      49.483   6.755  12.911  0.00  0.00    +0.000 NA
ATOM     24  C   UNL     1      48.892   7.103  14.218  0.00  0.00    +0.000 C 
ATOM     30  H   UNL     1      50.479   6.967  12.844  0.00  0.00    +0.000 HD
ENDBRANCH  20  21
ENDBRANCH  19  20
ENDBRANCH   2  15
BRANCH   2   4
ATOM      4  C   UNL     1      43.248   4.476  10.975  0.00  0.00    +0.000 C 
BRANCH   4   5
ATOM      5  N   UNL     1      43.873   4.920   9.732  0.00  0.00    +0.000 N 
ATOM      6  C   UNL     1      44.776   4.107   9.071  0.00  0.00    +0.000 A 
ATOM      7  C   UNL     1      44.680   2.719   9.037  0.00  0.00    +0.000 A 
ATOM      8  C   UNL     1      45.602   1.984   8.291  0.00  0.00    +0.000 A 
ATOM      9  C   UNL     1      46.597   2.639   7.569  0.00  0.00    +0.000 A 
ATOM     13  C   UNL     1      46.615   4.022   7.653  0.00  0.00    +0.000 A 
ATOM     14  N   UNL     1      45.736   4.758   8.389  0.00  0.00    +0.000 NA
ATOM     26  H   UNL     1      44.267   5.859   9.727  0.00  0.00    +0.000 HD
BRANCH   9  10
ATOM     10  C   UNL     1      47.552   1.836   6.768  0.00  0.00    +0.000 C 
ATOM     11  N   UNL     1      48.702   2.419   6.316  0.00  0.00    +0.000 N 
ATOM     12  O   UNL     1      47.321   0.661   6.502  0.00  0.00    +0.000 OA
ATOM     27  H   UNL     1      48.979   3.378   6.451  0.00  0.00    +0.000 HD
ATOM     28  H   UNL     1      49.313   1.830   5.761  0.00  0.00    +0.000 HD
ENDBRANCH   9  10
ENDBRANCH   4   5
ENDBRANCH   2   4
TORSDOF 6
ENDMDL
MODEL 7
REMARK VINA RESULT:    -7.170      3.147      8.284
REMARK INTER + INTRA:         -10.511
REMARK INTER:                  -9.881
REMARK INTRA:                  -0.629
REMARK UNBOUND:                -0.826
REMARK  Name = 
REMARK  8 active torsions:
REMARK  status: ('A' for Active; 'I' for Inactive)
REMARK    1  A    between atoms: C_1  and  C_2
REMARK    2  A    between atoms: C_2  and  C_3
REMARK    3  A    between atoms: C_2  and  C_4
REMARK    4  A    between atoms: C_2  and  C_15
REMARK    5  A    between atoms: C_4  and  N_5
REMARK    6  A    between atoms: C_9  and  C_10
REMARK    7  A    between atoms: C_19  and  N_20
REMARK    8  A    between atoms: N_20  and  C_21
REMARK                            x       y       z     vdW  Elec       q    Type
REMARK                         _______ _______ _______ _____ _____    ______ ____
ROOT
ATOM      1  C   UNL     1      46.092   7.783  13.152  0.00  0.00    +0.000 C 
ATOM      2  C   UNL     1      46.503   6.500  12.387  0.00  0.00    +0.000 C 
ATOM      3  C   UNL     1      47.267   6.969  11.123  0.00  0.00    +0.000 C 
ENDROOT
BRANCH   2  15
ATOM     15  C   UNL     1      45.262   5.647  12.022  0.00  0.00    +0.000 A 
ATOM     16  C   UNL     1      43.971   6.016  12.436  0.00  0.00    +0.000 A 
ATOM     17  C   UNL     1      42.858   5.229  12.131  0.00  0.00    +0.000 A 
ATOM     18  C   UNL     1      43.010   4.030  11.434  0.00  0.00    +0.000 A 
ATOM     19  C   UNL     1      44.273   3.613  11.029  0.00  0.00    +0.000 A 
ATOM     25  C   UNL     1      45.381   4.432  11.315  0.00  0.00    +0.000 A 
BRANCH  19  20
ATOM     20  N   UNL     1      44.498   2.409  10.327  0.00  0.00    +0.000 N 
ATOM     29  H   UNL     1      45.185   1.844  10.824  0.00  0.00    +0.000 HD
BRANCH  20  21
ATOM     21  C   UNL     1      44.587   2.276   8.894  0.00  0.00    +0.000 C 
ATOM     22  C   UNL     1      45.956   1.726   8.440  0.00  0.00    +0.000 C 
ATOM     23  N   UNL     1      46.054   2.803   7.439  0.00  0.00    +0.000 NA
ATOM     24  C   UNL     1      44.972   3.544   8.117  0.00  0.00    +0.000 C 
ATOM     30  H   UNL     1      45.811   2.499   6.496  0.00  0.00    +0.000 HD
ENDBRANCH  20  21
ENDBRANCH  19  20
ENDBRANCH   2  15
BRANCH   2   4
ATOM      4  C   UNL     1      47.439   5.618  13.272  0.00  0.00    +0.000 C 
BRANCH   4   5
ATOM      5  N   UNL     1      46.740   5.024  14.409  0.00  0.00    +0.000 N 
ATOM      6  C   UNL     1      47.380   4.874  15.626  0.00  0.00    +0.000 A 
ATOM      7  C   UNL     1      48.321   5.775  16.117  0.00  0.00    +0.000 A 
ATOM      8  C   UNL     1      48.868   5.574  17.385  0.00  0.00    +0.000 A 
ATOM      9  C   UNL     1      48.458   4.491  18.159  0.00  0.00    +0.000 A 
ATOM     13  C   UNL     1      47.513   3.649  17.596  0.00  0.00    +0.000 A 
ATOM     14  N   UNL     1      46.979   3.816  16.354  0.00  0.00    +0.000 NA
ATOM     26  H   UNL     1      46.236   4.157  14.234  0.00  0.00    +0.000 HD
BRANCH   9  10
ATOM     10  C   UNL     1      49.041   4.312  19.511  0.00  0.00    +0.000 C 
ATOM     11  N   UNL     1      48.453   3.440  20.383  0.00  0.00    +0.000 N 
ATOM     12  O   UNL     1      50.036   4.939  19.857  0.00  0.00    +0.000 OA
ATOM     27  H   UNL     1      47.622   2.896  20.215  0.00  0.00    +0.000 HD
ATOM     28  H   UNL     1      48.882   3.365  21.298  0.00  0.00    +0.000 HD
ENDBRANCH   9  10
ENDBRANCH   4   5
ENDBRANCH   2   4
TORSDOF 6
ENDMDL
MODEL 8
REMARK VINA RESULT:    -6.961      3.630      7.655
REMARK INTER + INTRA:         -10.229
REMARK INTER:                  -9.570
REMARK INTRA:                  -0.659
REMARK UNBOUND:                -0.826
REMARK  Name = 
REMARK  8 active torsions:
REMARK  status: ('A' for Active; 'I' for Inactive)
REMARK    1  A    between atoms: C_1  and  C_2
REMARK    2  A    between atoms: C_2  and  C_3
REMARK    3  A    between atoms: C_2  and  C_4
REMARK    4  A    between atoms: C_2  and  C_15
REMARK    5  A    between atoms: C_4  and  N_5
REMARK    6  A    between atoms: C_9  and  C_10
REMARK    7  A    between atoms: C_19  and  N_20
REMARK    8  A    between atoms: N_20  and  C_21
REMARK                            x       y       z     vdW  Elec       q    Type
REMARK                         _______ _______ _______ _____ _____    ______ ____
ROOT
ATOM      1  C   UNL     1      44.668   5.253  12.912  0.00  0.00    +0.000 C 
ATOM      2  C   UNL     1      44.432   5.619  11.425  0.00  0.00    +0.000 C 
ATOM      3  C   UNL     1      43.048   6.313  11.358  0.00  0.00    +0.000 C 
ENDROOT
BRANCH   2  15
ATOM     15  C   UNL     1      44.485   4.359  10.525  0.00  0.00    +0.000 A 
ATOM     16  C   UNL     1      44.017   3.114  10.979  0.00  0.00    +0.000 A 
ATOM     17  C   UNL     1      44.094   1.973  10.176  0.00  0.00    +0.000 A 
ATOM     18  C   UNL     1      44.675   2.038   8.910  0.00  0.00    +0.000 A 
ATOM     19  C   UNL     1      45.175   3.245   8.432  0.00  0.00    +0.000 A 
ATOM     25  C   UNL     1      45.062   4.392   9.238  0.00  0.00    +0.000 A 
BRANCH  19  20
ATOM     20  N   UNL     1      45.781   3.378   7.163  0.00  0.00    +0.000 N 
ATOM     29  H   UNL     1      45.167   2.990   6.447  0.00  0.00    +0.000 HD
BRANCH  20  21
ATOM     21  C   UNL     1      47.180   3.183   6.875  0.00  0.00    +0.000 C 
ATOM     22  C   UNL     1      47.437   2.898   5.380  0.00  0.00    +0.000 C 
ATOM     23  N   UNL     1      48.281   1.746   5.747  0.00  0.00    +0.000 NA
ATOM     24  C   UNL     1      47.732   1.769   7.118  0.00  0.00    +0.000 C 
ATOM     30  H   UNL     1      49.279   1.949   5.704  0.00  0.00    +0.000 HD
ENDBRANCH  20  21
ENDBRANCH  19  20
ENDBRANCH   2  15
BRANCH   2   4
ATOM      4  C   UNL     1      45.539   6.602  10.928  0.00  0.00    +0.000 C 
BRANCH   4   5
ATOM      5  N   UNL     1      45.868   7.624  11.919  0.00  0.00    +0.000 N 
ATOM      6  C   UNL     1      47.154   7.730  12.416  0.00  0.00    +0.000 A 
ATOM      7  C   UNL     1      48.295   7.472  11.662  0.00  0.00    +0.000 A 
ATOM      8  C   UNL     1      49.554   7.667  12.231  0.00  0.00    +0.000 A 
ATOM      9  C   UNL     1      49.664   8.136  13.539  0.00  0.00    +0.000 A 
ATOM     13  C   UNL     1      48.479   8.372  14.215  0.00  0.00    +0.000 A 
ATOM     14  N   UNL     1      47.239   8.173  13.684  0.00  0.00    +0.000 NA
ATOM     26  H   UNL     1      45.238   7.711  12.713  0.00  0.00    +0.000 HD
BRANCH   9  10
ATOM     10  C   UNL     1      51.014   8.353  14.114  0.00  0.00    +0.000 C 
ATOM     11  N   UNL     1      51.550   7.406  14.939  0.00  0.00    +0.000 N 
ATOM     12  O   UNL     1      51.651   9.371  13.863  0.00  0.00    +0.000 OA
ATOM     27  H   UNL     1      51.108   6.549  15.232  0.00  0.00    +0.000 HD
ATOM     28  H   UNL     1      52.469   7.610  15.316  0.00  0.00    +0.000 HD
ENDBRANCH   9  10
ENDBRANCH   4   5
ENDBRANCH   2   4
TORSDOF 6
ENDMDL
MODEL 9
REMARK VINA RESULT:    -6.771      3.478      7.758
REMARK INTER + INTRA:          -9.972
REMARK INTER:                  -8.863
REMARK INTRA:                  -1.109
REMARK UNBOUND:                -0.826
REMARK  Name = 
REMARK  8 active torsions:
REMARK  status: ('A' for Active; 'I' for Inactive)
REMARK    1  A    between atoms: C_1  and  C_2
REMARK    2  A    between atoms: C_2  and  C_3
REMARK    3  A    between atoms: C_2  and  C_4
REMARK    4  A    between atoms: C_2  and  C_15
REMARK    5  A    between atoms: C_4  and  N_5
REMARK    6  A    between atoms: C_9  and  C_10
REMARK    7  A    between atoms: C_19  and  N_20
REMARK    8  A    between atoms: N_20  and  C_21
REMARK                            x       y       z     vdW  Elec       q    Type
REMARK                         _______ _______ _______ _____ _____    ______ ____
ROOT
ATOM      1  C   UNL     1      49.146   9.760  11.570  0.00  0.00    +0.000 C 
ATOM      2  C   UNL     1      48.810   8.433  12.295  0.00  0.00    +0.000 C 
ATOM      3  C   UNL     1      49.824   7.381  11.779  0.00  0.00    +0.000 C 
ENDROOT
BRANCH   2  15
ATOM     15  C   UNL     1      47.347   8.001  12.017  0.00  0.00    +0.000 A 
ATOM     16  C   UNL     1      46.281   8.911  12.127  0.00  0.00    +0.000 A 
ATOM     17  C   UNL     1      44.961   8.512  11.905  0.00  0.00    +0.000 A 
ATOM     18  C   UNL     1      44.666   7.183  11.604  0.00  0.00    +0.000 A 
ATOM     19  C   UNL     1      45.689   6.244  11.512  0.00  0.00    +0.000 A 
ATOM     25  C   UNL     1      47.016   6.666  11.706  0.00  0.00    +0.000 A 
BRANCH  19  20
ATOM     20  N   UNL     1      45.458   4.882  11.217  0.00  0.00    +0.000 N 
ATOM     29  H   UNL     1      46.215   4.524  10.634  0.00  0.00    +0.000 HD
BRANCH  20  21
ATOM     21  C   UNL     1      44.179   4.294  10.906  0.00  0.00    +0.000 C 
ATOM     22  C   UNL     1      43.576   3.534  12.105  0.00  0.00    +0.000 C 
ATOM     23  N   UNL     1      43.303   2.377  11.233  0.00  0.00    +0.000 NA
ATOM     24  C   UNL     1      44.213   2.926  10.207  0.00  0.00    +0.000 C 
ATOM     30  H   UNL     1      42.331   2.324  10.928  0.00  0.00    +0.000 HD
ENDBRANCH  20  21
ENDBRANCH  19  20
ENDBRANCH   2  15
BRANCH   2   4
ATOM      4  C   UNL     1      48.967   8.605  13.839  0.00  0.00    +0.000 C 
BRANCH   4   5
ATOM      5  N   UNL     1      49.792   7.559  14.439  0.00  0.00    +0.000 N 
ATOM      6  C   UNL     1      49.225   6.603  15.260  0.00  0.00    +0.000 A 
ATOM      7  C   UNL     1      47.943   6.092  15.076  0.00  0.00    +0.000 A 
ATOM      8  C   UNL     1      47.477   5.082  15.918  0.00  0.00    +0.000 A 
ATOM      9  C   UNL     1      48.301   4.575  16.922  0.00  0.00    +0.000 A 
ATOM     13  C   UNL     1      49.563   5.136  17.031  0.00  0.00    +0.000 A 
ATOM     14  N   UNL     1      50.031   6.135  16.231  0.00  0.00    +0.000 NA
ATOM     26  H   UNL     1      50.654   7.859  14.890  0.00  0.00    +0.000 HD
BRANCH   9  10
ATOM     10  C   UNL     1      47.789   3.488  17.791  0.00  0.00    +0.000 C 
ATOM     11  N   UNL     1      48.429   3.214  18.967  0.00  0.00    +0.000 N 
ATOM     12  O   UNL     1      46.806   2.830  17.467  0.00  0.00    +0.000 OA
ATOM     27  H   UNL     1      49.256   3.670  19.318  0.00  0.00    +0.000 HD
ATOM     28  H   UNL     1      48.047   2.452  19.516  0.00  0.00    +0.000 HD
ENDBRANCH   9  10
ENDBRANCH   4   5
ENDBRANCH   2   4
TORSDOF 6
ENDMDL
