MODEL 1
REMARK VINA RESULT:    -7.293      0.000      0.000
REMARK INTER + INTRA:         -15.259
REMARK INTER:                 -12.409
REMARK INTRA:                  -2.851
REMARK UNBOUND:                -2.851
REMARK  Name = 
REMARK  13 active torsions:
REMARK  status: ('A' for Active; 'I' for Inactive)
REMARK    1  A    between atoms: C_1  and  C_2
REMARK    2  A    between atoms: C_2  and  C_3
REMARK    3  A    between atoms: C_3  and  C_4
REMARK    4  A    between atoms: C_4  and  C_5
REMARK    5  A    between atoms: C_5  and  C_6
REMARK    6  A    between atoms: C_6  and  N_7
REMARK    7  A    between atoms: N_7  and  C_8
REMARK    8  A    between atoms: N_7  and  C_15
REMARK    9  A    between atoms: C_8  and  C_9
REMARK   10  A    between atoms: C_15  and  C_16
REMARK   11  A    between atoms: C_19  and  C_20
REMARK   12  A    between atoms: C_20  and  N_21
REMARK   13  A    between atoms: C_22  and  C_24
REMARK                            x       y       z     vdW  Elec       q    Type
REMARK                         _______ _______ _______ _____ _____    ______ ____
ROOT
ATOM     16  C   UNL     1      45.515   6.842  11.389  0.00  0.00    +0.000 A 
ATOM     17  C   UNL     1      44.993   7.815  12.253  0.00  0.00    +0.000 A 
ATOM     18  C   UNL     1      45.831   8.523  13.117  0.00  0.00    +0.000 A 
ATOM     19  C   UNL     1      47.210   8.274  13.128  0.00  0.00    +0.000 A 
ATOM     34  C   UNL     1      47.733   7.315  12.250  0.00  0.00    +0.000 A 
ATOM     35  C   UNL     1      46.897   6.611  11.386  0.00  0.00    +0.000 A 
ENDROOT
BRANCH  16  15
ATOM     15  C   UNL     1      44.601   5.994  10.529  0.00  0.00    +0.000 C 
BRANCH  15   7
ATOM      7  N   UNL     1      45.032   4.584  10.375  0.00  0.00    +0.000 NA
BRANCH   7   6
ATOM      6  C   UNL     1      44.540   3.802  11.530  0.00  0.00    +0.000 C 
BRANCH   6   5
ATOM      5  C   UNL     1      45.585   3.356  12.556  0.00  0.00    +0.000 C 
BRANCH   5   4
ATOM      4  C   UNL     1      45.725   4.287  13.763  0.00  0.00    +0.000 C 
BRANCH   4   3
ATOM      3  C   UNL     1      47.153   4.189  14.305  0.00  0.00    +0.000 C 
BRANCH   3   2
ATOM      1  C   UNL     1      47.797   3.287  16.549  0.00  0.00    +0.000 C 
ATOM      2  C   UNL     1      47.239   4.487  15.797  0.00  0.00    +0.000 C 
ENDBRANCH   3   2
ENDBRANCH   4   3
ENDBRANCH   5   4
ENDBRANCH   6   5
ENDBRANCH   7   6
BRANCH   7   8
ATOM      8  C   UNL     1      44.529   4.043   9.090  0.00  0.00    +0.000 C 
BRANCH   8   9
ATOM      9  C   UNL     1      45.542   3.177   8.358  0.00  0.00    +0.000 A 
ATOM     10  C   UNL     1      46.343   3.721   7.342  0.00  0.00    +0.000 A 
ATOM     11  C   UNL     1      47.195   2.902   6.597  0.00  0.00    +0.000 A 
ATOM     12  C   UNL     1      47.266   1.537   6.867  0.00  0.00    +0.000 A 
ATOM     13  C   UNL     1      46.504   0.991   7.899  0.00  0.00    +0.000 A 
ATOM     14  C   UNL     1      45.651   1.807   8.645  0.00  0.00    +0.000 A 
ENDBRANCH   8   9
ENDBRANCH   7   8
ENDBRANCH  15   7
ENDBRANCH  16  15
BRANCH  19  20
ATOM     20  C   UNL     1      48.116   8.953  14.122  0.00  0.00    +0.000 C 
BRANCH  20  21
ATOM     21  N   UNL     1      48.267   8.143  15.305  0.00  0.00    +0.000 N 
ATOM     22  C   UNL     1      48.481   8.705  16.536  0.00  0.00    +0.000 C 
ATOM     23  O   UNL     1      48.535   9.922  16.694  0.00  0.00    +0.000 OA
ATOM     36  H   UNL     1      48.458   7.155  15.165  0.00  0.00    +0.000 HD
BRANCH  22  24
ATOM     24  C   UNL     1      48.572   7.780  17.671  0.00  0.00    +0.000 A 
ATOM     25  C   UNL     1      47.794   7.997  18.800  0.00  0.00    +0.000 A 
ATOM     26  S   UNL     1      47.980   6.802  20.001  0.00  0.00    +0.000 S 
ATOM     27  C   UNL     1      49.150   5.982  19.079  0.00  0.00    +0.000 A 
ATOM     28  N   UNL     1      49.753   4.858  19.554  0.00  0.00    +0.000 NA
ATOM     29  C   UNL     1      50.644   4.357  18.768  0.00  0.00    +0.000 A 
ATOM     30  N   UNL     1      50.985   4.873  17.545  0.00  0.00    +0.000 N 
ATOM     31  C   UNL     1      50.383   5.988  17.013  0.00  0.00    +0.000 A 
ATOM     32  O   UNL     1      50.685   6.404  15.896  0.00  0.00    +0.000 OA
ATOM     33  C   UNL     1      49.380   6.598  17.865  0.00  0.00    +0.000 A 
ATOM     37  H   UNL     1      51.686   4.428  16.971  0.00  0.00    +0.000 HD
ENDBRANCH  22  24
ENDBRANCH  20  21
ENDBRANCH  19  20
TORSDOF 12
ENDMDL
MODEL 2
REMARK VINA RESULT:    -7.046      1.152      2.039
REMARK INTER + INTRA:         -14.839
REMARK INTER:                 -11.885
REMARK INTRA:                  -2.954
REMARK UNBOUND:                -2.851
REMARK  Name = 
REMARK  13 active torsions:
REMARK  status: ('A' for Active; 'I' for Inactive)
REMARK    1  A    between atoms: C_1  and  C_2
REMARK    2  A    between atoms: C_2  and  C_3
REMARK    3  A    between atoms: C_3  and  C_4
REMARK    4  A    between atoms: C_4  and  C_5
REMARK    5  A    between atoms: C_5  and  C_6
REMARK    6  A    between atoms: C_6  and  N_7
REMARK    7  A    between atoms: N_7  and  C_8
REMARK    8  A    between atoms: N_7  and  C_15
REMARK    9  A    between atoms: C_8  and  C_9
REMARK   10  A    between atoms: C_15  and  C_16
REMARK   11  A    between atoms: C_19  and  C_20
REMARK   12  A    between atoms: C_20  and  N_21
REMARK   13  A    between atoms: C_22  and  C_24
REMARK                            x       y       z     vdW  Elec       q    Type
REMARK                         _______ _______ _______ _____ _____    ______ ____
ROOT
ATOM     16  C   UNL     1      45.631   6.786  11.398  0.00  0.00    +0.000 A 
ATOM     17  C   UNL     1      45.152   7.686  12.361  0.00  0.00    +0.000 A 
ATOM     18  C   UNL     1      46.033   8.327  13.235  0.00  0.00    +0.000 A 
ATOM     19  C   UNL     1      47.411   8.083  13.158  0.00  0.00    +0.000 A 
ATOM     34  C   UNL     1      47.889   7.198  12.182  0.00  0.00    +0.000 A 
ATOM     35  C   UNL     1      47.011   6.562  11.307  0.00  0.00    +0.000 A 
ENDROOT
BRANCH  16  15
ATOM     15  C   UNL     1      44.675   6.006  10.520  0.00  0.00    +0.000 C 
BRANCH  15   7
ATOM      7  N   UNL     1      45.060   4.591  10.294  0.00  0.00    +0.000 NA
BRANCH   7   6
ATOM      6  C   UNL     1      44.513   3.763  11.390  0.00  0.00    +0.000 C 
BRANCH   6   5
ATOM      5  C   UNL     1      45.508   3.262  12.439  0.00  0.00    +0.000 C 
BRANCH   5   4
ATOM      4  C   UNL     1      45.628   4.155  13.676  0.00  0.00    +0.000 C 
BRANCH   4   3
ATOM      3  C   UNL     1      47.077   4.137  14.166  0.00  0.00    +0.000 C 
BRANCH   3   2
ATOM      1  C   UNL     1      47.604   3.324  16.475  0.00  0.00    +0.000 C 
ATOM      2  C   UNL     1      47.208   4.529  15.634  0.00  0.00    +0.000 C 
ENDBRANCH   3   2
ENDBRANCH   4   3
ENDBRANCH   5   4
ENDBRANCH   6   5
ENDBRANCH   7   6
BRANCH   7   8
ATOM      8  C   UNL     1      44.571   4.144   8.969  0.00  0.00    +0.000 C 
BRANCH   8   9
ATOM      9  C   UNL     1      45.534   3.213   8.249  0.00  0.00    +0.000 A 
ATOM     10  C   UNL     1      45.568   1.845   8.558  0.00  0.00    +0.000 A 
ATOM     11  C   UNL     1      46.525   1.011   7.975  0.00  0.00    +0.000 A 
ATOM     12  C   UNL     1      47.447   1.531   7.069  0.00  0.00    +0.000 A 
ATOM     13  C   UNL     1      47.398   2.880   6.724  0.00  0.00    +0.000 A 
ATOM     14  C   UNL     1      46.443   3.717   7.305  0.00  0.00    +0.000 A 
ENDBRANCH   8   9
ENDBRANCH   7   8
ENDBRANCH  15   7
ENDBRANCH  16  15
BRANCH  19  20
ATOM     20  C   UNL     1      48.365   8.685  14.156  0.00  0.00    +0.000 C 
BRANCH  20  21
ATOM     21  N   UNL     1      48.492   7.833  15.313  0.00  0.00    +0.000 N 
ATOM     22  C   UNL     1      49.711   7.578  15.883  0.00  0.00    +0.000 C 
ATOM     23  O   UNL     1      50.748   8.075  15.452  0.00  0.00    +0.000 OA
ATOM     36  H   UNL     1      47.700   7.238  15.535  0.00  0.00    +0.000 HD
BRANCH  22  24
ATOM     24  C   UNL     1      49.707   6.733  17.083  0.00  0.00    +0.000 A 
ATOM     25  C   UNL     1      50.498   5.593  17.125  0.00  0.00    +0.000 A 
ATOM     26  S   UNL     1      50.419   4.758  18.608  0.00  0.00    +0.000 S 
ATOM     27  C   UNL     1      49.282   5.859  19.229  0.00  0.00    +0.000 A 
ATOM     28  N   UNL     1      48.764   5.701  20.478  0.00  0.00    +0.000 NA
ATOM     29  C   UNL     1      47.888   6.587  20.810  0.00  0.00    +0.000 A 
ATOM     30  N   UNL     1      47.484   7.624  20.008  0.00  0.00    +0.000 N 
ATOM     31  C   UNL     1      48.000   7.839  18.753  0.00  0.00    +0.000 A 
ATOM     32  O   UNL     1      47.644   8.800  18.073  0.00  0.00    +0.000 OA
ATOM     33  C   UNL     1      48.982   6.861  18.327  0.00  0.00    +0.000 A 
ATOM     37  H   UNL     1      46.799   8.291  20.330  0.00  0.00    +0.000 HD
ENDBRANCH  22  24
ENDBRANCH  20  21
ENDBRANCH  19  20
TORSDOF 12
ENDMDL
MODEL 3
REMARK VINA RESULT:    -6.614      1.619      2.148
REMARK INTER + INTRA:         -14.104
REMARK INTER:                 -10.833
REMARK INTRA:                  -3.271
REMARK UNBOUND:                -2.851
REMARK  Name = 
REMARK  13 active torsions:
REMARK  status: ('A' for Active; 'I' for Inactive)
REMARK    1  A    between atoms: C_1  and  C_2
REMARK    2  A    between atoms: C_2  and  C_3
REMARK    3  A    between atoms: C_3  and  C_4
REMARK    4  A    between atoms: C_4  and  C_5
REMARK    5  A    between atoms: C_5  and  C_6
REMARK    6  A    between atoms: C_6  and  N_7
REMARK    7  A    between atoms: N_7  and  C_8
REMARK    8  A    between atoms: N_7  and  C_15
REMARK    9  A    between atoms: C_8  and  C_9
REMARK   10  A    between atoms: C_15  and  C_16
REMARK   11  A    between atoms: C_19  and  C_20
REMARK   12  A    between atoms: C_20  and  N_21
REMARK   13  A    between atoms: C_22  and  C_24
REMARK                            x       y       z     vdW  Elec       q    Type
REMARK                         _______ _______ _______ _____ _____    ______ ____
ROOT
ATOM     16  C   UNL     1      45.671   6.793  11.478  0.00  0.00    +0.000 A 
ATOM     17  C   UNL     1      46.993   6.528  11.097  0.00  0.00    +0.000 A 
ATOM     18  C   UNL     1      48.063   7.022  11.848  0.00  0.00    +0.000 A 
ATOM     19  C   UNL     1      47.826   7.787  12.998  0.00  0.00    +0.000 A 
ATOM     34  C   UNL     1      46.503   8.034  13.389  0.00  0.00    +0.000 A 
ATOM     35  C   UNL     1      45.436   7.538  12.641  0.00  0.00    +0.000 A 
ENDROOT
BRANCH  16  15
ATOM     15  C   UNL     1      44.509   6.354  10.610  0.00  0.00    +0.000 C 
BRANCH  15   7
ATOM      7  N   UNL     1      44.366   4.884  10.469  0.00  0.00    +0.000 NA
BRANCH   7   6
ATOM      6  C   UNL     1      43.223   4.431  11.291  0.00  0.00    +0.000 C 
BRANCH   6   5
ATOM      5  C   UNL     1      43.533   3.441  12.417  0.00  0.00    +0.000 C 
BRANCH   5   4
ATOM      4  C   UNL     1      44.670   3.874  13.345  0.00  0.00    +0.000 C 
BRANCH   4   3
ATOM      3  C   UNL     1      45.991   3.324  12.805  0.00  0.00    +0.000 C 
BRANCH   3   2
ATOM      1  C   UNL     1      46.773   4.694  14.748  0.00  0.00    +0.000 C 
ATOM      2  C   UNL     1      47.186   3.696  13.677  0.00  0.00    +0.000 C 
ENDBRANCH   3   2
ENDBRANCH   4   3
ENDBRANCH   5   4
ENDBRANCH   6   5
ENDBRANCH   7   6
BRANCH   7   8
ATOM      8  C   UNL     1      44.191   4.532   9.041  0.00  0.00    +0.000 C 
BRANCH   8   9
ATOM      9  C   UNL     1      45.218   3.534   8.531  0.00  0.00    +0.000 A 
ATOM     10  C   UNL     1      46.223   3.937   7.639  0.00  0.00    +0.000 A 
ATOM     11  C   UNL     1      47.100   2.999   7.087  0.00  0.00    +0.000 A 
ATOM     12  C   UNL     1      46.990   1.653   7.431  0.00  0.00    +0.000 A 
ATOM     13  C   UNL     1      46.021   1.245   8.345  0.00  0.00    +0.000 A 
ATOM     14  C   UNL     1      45.143   2.181   8.898  0.00  0.00    +0.000 A 
ENDBRANCH   8   9
ENDBRANCH   7   8
ENDBRANCH  15   7
ENDBRANCH  16  15
BRANCH  19  20
ATOM     20  C   UNL     1      48.962   8.413  13.764  0.00  0.00    +0.000 C 
BRANCH  20  21
ATOM     21  N   UNL     1      49.627   7.427  14.580  0.00  0.00    +0.000 N 
ATOM     22  C   UNL     1      49.351   7.298  15.915  0.00  0.00    +0.000 C 
ATOM     23  O   UNL     1      48.515   8.000  16.477  0.00  0.00    +0.000 OA
ATOM     36  H   UNL     1      50.470   7.007  14.200  0.00  0.00    +0.000 HD
BRANCH  22  24
ATOM     24  C   UNL     1      50.057   6.228  16.629  0.00  0.00    +0.000 A 
ATOM     25  C   UNL     1      49.332   5.280  17.339  0.00  0.00    +0.000 A 
ATOM     26  S   UNL     1      50.301   4.079  18.063  0.00  0.00    +0.000 S 
ATOM     27  C   UNL     1      51.727   4.814  17.502  0.00  0.00    +0.000 A 
ATOM     28  N   UNL     1      52.948   4.292  17.801  0.00  0.00    +0.000 NA
ATOM     29  C   UNL     1      53.945   4.968  17.341  0.00  0.00    +0.000 A 
ATOM     30  N   UNL     1      53.835   6.117  16.601  0.00  0.00    +0.000 N 
ATOM     31  C   UNL     1      52.624   6.664  16.251  0.00  0.00    +0.000 A 
ATOM     32  O   UNL     1      52.559   7.675  15.555  0.00  0.00    +0.000 OA
ATOM     33  C   UNL     1      51.469   5.947  16.756  0.00  0.00    +0.000 A 
ATOM     37  H   UNL     1      54.656   6.596  16.262  0.00  0.00    +0.000 HD
ENDBRANCH  22  24
ENDBRANCH  20  21
ENDBRANCH  19  20
TORSDOF 12
ENDMDL
MODEL 4
REMARK VINA RESULT:    -6.444      1.695      2.364
REMARK INTER + INTRA:         -13.816
REMARK INTER:                 -11.502
REMARK INTRA:                  -2.314
REMARK UNBOUND:                -2.851
REMARK  Name = 
REMARK  13 active torsions:
REMARK  status: ('A' for Active; 'I' for Inactive)
REMARK    1  A    between atoms: C_1  and  C_2
REMARK    2  A    between atoms: C_2  and  C_3
REMARK    3  A    between atoms: C_3  and  C_4
REMARK    4  A    between atoms: C_4  and  C_5
REMARK    5  A    between atoms: C_5  and  C_6
REMARK    6  A    between atoms: C_6  and  N_7
REMARK    7  A    between atoms: N_7  and  C_8
REMARK    8  A    between atoms: N_7  and  C_15
REMARK    9  A    between atoms: C_8  and  C_9
REMARK   10  A    between atoms: C_15  and  C_16
REMARK   11  A    between atoms: C_19  and  C_20
REMARK   12  A    between atoms: C_20  and  N_21
REMARK   13  A    between atoms: C_22  and  C_24
REMARK                            x       y       z     vdW  Elec       q    Type
REMARK                         _______ _______ _______ _____ _____    ______ ____
ROOT
ATOM     16  C   UNL     1      45.304   6.389  11.158  0.00  0.00    +0.000 A 
ATOM     17  C   UNL     1      46.693   6.276  11.010  0.00  0.00    +0.000 A 
ATOM     18  C   UNL     1      47.557   7.056  11.783  0.00  0.00    +0.000 A 
ATOM     19  C   UNL     1      47.044   7.960  12.723  0.00  0.00    +0.000 A 
ATOM     34  C   UNL     1      45.655   8.057  12.883  0.00  0.00    +0.000 A 
ATOM     35  C   UNL     1      44.794   7.276  12.114  0.00  0.00    +0.000 A 
ENDROOT
BRANCH  16  15
ATOM     15  C   UNL     1      44.362   5.627  10.249  0.00  0.00    +0.000 C 
BRANCH  15   7
ATOM      7  N   UNL     1      44.815   4.259   9.897  0.00  0.00    +0.000 NA
BRANCH   7   6
ATOM      6  C   UNL     1      44.081   3.281  10.727  0.00  0.00    +0.000 C 
BRANCH   6   5
ATOM      5  C   UNL     1      43.479   3.800  12.036  0.00  0.00    +0.000 C 
BRANCH   5   4
ATOM      4  C   UNL     1      44.391   3.652  13.255  0.00  0.00    +0.000 C 
BRANCH   4   3
ATOM      3  C   UNL     1      45.724   3.047  12.810  0.00  0.00    +0.000 C 
BRANCH   3   2
ATOM      1  C   UNL     1      46.467   4.764  14.473  0.00  0.00    +0.000 C 
ATOM      2  C   UNL     1      46.920   3.654  13.536  0.00  0.00    +0.000 C 
ENDBRANCH   3   2
ENDBRANCH   4   3
ENDBRANCH   5   4
ENDBRANCH   6   5
ENDBRANCH   7   6
BRANCH   7   8
ATOM      8  C   UNL     1      44.609   4.019   8.450  0.00  0.00    +0.000 C 
BRANCH   8   9
ATOM      9  C   UNL     1      45.654   3.105   7.830  0.00  0.00    +0.000 A 
ATOM     10  C   UNL     1      45.800   1.783   8.276  0.00  0.00    +0.000 A 
ATOM     11  C   UNL     1      46.830   0.978   7.783  0.00  0.00    +0.000 A 
ATOM     12  C   UNL     1      47.715   1.480   6.832  0.00  0.00    +0.000 A 
ATOM     13  C   UNL     1      47.558   2.780   6.352  0.00  0.00    +0.000 A 
ATOM     14  C   UNL     1      46.529   3.587   6.844  0.00  0.00    +0.000 A 
ENDBRANCH   8   9
ENDBRANCH   7   8
ENDBRANCH  15   7
ENDBRANCH  16  15
BRANCH  19  20
ATOM     20  C   UNL     1      47.952   8.882  13.493  0.00  0.00    +0.000 C 
BRANCH  20  21
ATOM     21  N   UNL     1      49.062   8.149  14.051  0.00  0.00    +0.000 N 
ATOM     22  C   UNL     1      49.378   8.232  15.381  0.00  0.00    +0.000 C 
ATOM     23  O   UNL     1      48.725   8.917  16.164  0.00  0.00    +0.000 OA
ATOM     36  H   UNL     1      49.742   7.774  13.397  0.00  0.00    +0.000 HD
BRANCH  22  24
ATOM     24  C   UNL     1      50.499   7.404  15.840  0.00  0.00    +0.000 A 
ATOM     25  C   UNL     1      51.795   7.732  15.467  0.00  0.00    +0.000 A 
ATOM     26  S   UNL     1      52.981   6.702  16.129  0.00  0.00    +0.000 S 
ATOM     27  C   UNL     1      51.801   5.746  16.893  0.00  0.00    +0.000 A 
ATOM     28  N   UNL     1      52.151   4.651  17.623  0.00  0.00    +0.000 NA
ATOM     29  C   UNL     1      51.155   3.999  18.118  0.00  0.00    +0.000 A 
ATOM     30  N   UNL     1      49.838   4.342  17.957  0.00  0.00    +0.000 N 
ATOM     31  C   UNL     1      49.439   5.454  17.254  0.00  0.00    +0.000 A 
ATOM     32  O   UNL     1      48.251   5.756  17.158  0.00  0.00    +0.000 OA
ATOM     33  C   UNL     1      50.522   6.217  16.664  0.00  0.00    +0.000 A 
ATOM     37  H   UNL     1      49.104   3.794  18.379  0.00  0.00    +0.000 HD
ENDBRANCH  22  24
ENDBRANCH  20  21
ENDBRANCH  19  20
TORSDOF 12
ENDMDL
MODEL 5
REMARK VINA RESULT:    -6.335      2.946      8.299
REMARK INTER + INTRA:         -13.630
REMARK INTER:                 -10.455
REMARK INTRA:                  -3.175
REMARK UNBOUND:                -2.851
REMARK  Name = 
REMARK  13 active torsions:
REMARK  status: ('A' for Active; 'I' for Inactive)
REMARK    1  A    between atoms: C_1  and  C_2
REMARK    2  A    between atoms: C_2  and  C_3
REMARK    3  A    between atoms: C_3  and  C_4
REMARK    4  A    between atoms: C_4  and  C_5
REMARK    5  A    between atoms: C_5  and  C_6
REMARK    6  A    between atoms: C_6  and  N_7
REMARK    7  A    between atoms: N_7  and  C_8
REMARK    8  A    between atoms: N_7  and  C_15
REMARK    9  A    between atoms: C_8  and  C_9
REMARK   10  A    between atoms: C_15  and  C_16
REMARK   11  A    between atoms: C_19  and  C_20
REMARK   12  A    between atoms: C_20  and  N_21
REMARK   13  A    between atoms: C_22  and  C_24
REMARK                            x       y       z     vdW  Elec       q    Type
REMARK                         _______ _______ _______ _____ _____    ______ ____
ROOT
ATOM     16  C   UNL     1      49.434   8.433  15.761  0.00  0.00    +0.000 A 
ATOM     17  C   UNL     1      50.010   7.511  14.876  0.00  0.00    +0.000 A 
ATOM     18  C   UNL     1      49.532   7.385  13.569  0.00  0.00    +0.000 A 
ATOM     19  C   UNL     1      48.472   8.185  13.123  0.00  0.00    +0.000 A 
ATOM     34  C   UNL     1      47.910   9.120  14.003  0.00  0.00    +0.000 A 
ATOM     35  C   UNL     1      48.390   9.248  15.305  0.00  0.00    +0.000 A 
ENDROOT
BRANCH  16  15
ATOM     15  C   UNL     1      49.873   8.499  17.209  0.00  0.00    +0.000 C 
BRANCH  15   7
ATOM      7  N   UNL     1      50.120   7.179  17.839  0.00  0.00    +0.000 NA
BRANCH   7   6
ATOM      6  C   UNL     1      51.238   7.305  18.799  0.00  0.00    +0.000 C 
BRANCH   6   5
ATOM      5  C   UNL     1      52.188   6.111  18.912  0.00  0.00    +0.000 C 
BRANCH   5   4
ATOM      4  C   UNL     1      52.123   5.136  17.734  0.00  0.00    +0.000 C 
BRANCH   4   3
ATOM      3  C   UNL     1      52.059   3.706  18.273  0.00  0.00    +0.000 C 
BRANCH   3   2
ATOM      1  C   UNL     1      51.789   1.315  17.583  0.00  0.00    +0.000 C 
ATOM      2  C   UNL     1      51.350   2.748  17.322  0.00  0.00    +0.000 C 
ENDBRANCH   3   2
ENDBRANCH   4   3
ENDBRANCH   5   4
ENDBRANCH   6   5
ENDBRANCH   7   6
BRANCH   7   8
ATOM      8  C   UNL     1      48.882   6.697  18.495  0.00  0.00    +0.000 C 
BRANCH   8   9
ATOM      9  C   UNL     1      48.477   5.294  18.073  0.00  0.00    +0.000 A 
ATOM     10  C   UNL     1      48.033   5.042  16.766  0.00  0.00    +0.000 A 
ATOM     11  C   UNL     1      47.559   3.777  16.409  0.00  0.00    +0.000 A 
ATOM     12  C   UNL     1      47.537   2.748  17.348  0.00  0.00    +0.000 A 
ATOM     13  C   UNL     1      48.012   2.975  18.639  0.00  0.00    +0.000 A 
ATOM     14  C   UNL     1      48.485   4.239  18.999  0.00  0.00    +0.000 A 
ENDBRANCH   8   9
ENDBRANCH   7   8
ENDBRANCH  15   7
ENDBRANCH  16  15
BRANCH  19  20
ATOM     20  C   UNL     1      47.876   7.995  11.752  0.00  0.00    +0.000 C 
BRANCH  20  21
ATOM     21  N   UNL     1      47.116   6.770  11.697  0.00  0.00    +0.000 N 
ATOM     22  C   UNL     1      45.748   6.773  11.756  0.00  0.00    +0.000 C 
ATOM     23  O   UNL     1      45.103   7.815  11.840  0.00  0.00    +0.000 OA
ATOM     36  H   UNL     1      47.623   5.906  11.863  0.00  0.00    +0.000 HD
BRANCH  22  24
ATOM     24  C   UNL     1      45.085   5.469  11.644  0.00  0.00    +0.000 A 
ATOM     25  C   UNL     1      44.418   4.940  12.740  0.00  0.00    +0.000 A 
ATOM     26  S   UNL     1      43.658   3.447  12.424  0.00  0.00    +0.000 S 
ATOM     27  C   UNL     1      44.240   3.427  10.826  0.00  0.00    +0.000 A 
ATOM     28  N   UNL     1      43.969   2.384   9.995  0.00  0.00    +0.000 NA
ATOM     29  C   UNL     1      44.499   2.482   8.824  0.00  0.00    +0.000 A 
ATOM     30  N   UNL     1      45.274   3.532   8.403  0.00  0.00    +0.000 N 
ATOM     31  C   UNL     1      45.550   4.619   9.197  0.00  0.00    +0.000 A 
ATOM     32  O   UNL     1      46.218   5.562   8.777  0.00  0.00    +0.000 OA
ATOM     33  C   UNL     1      44.986   4.552  10.531  0.00  0.00    +0.000 A 
ATOM     37  H   UNL     1      45.654   3.554   7.468  0.00  0.00    +0.000 HD
ENDBRANCH  22  24
ENDBRANCH  20  21
ENDBRANCH  19  20
TORSDOF 12
ENDMDL
MODEL 6
REMARK VINA RESULT:    -6.296      2.999      8.902
REMARK INTER + INTRA:         -13.563
REMARK INTER:                 -10.638
REMARK INTRA:                  -2.925
REMARK UNBOUND:                -2.851
REMARK  Name = 
REMARK  13 active torsions:
REMARK  status: ('A' for Active; 'I' for Inactive)
REMARK    1  A    between atoms: C_1  and  C_2
REMARK    2  A    between atoms: C_2  and  C_3
REMARK    3  A    between atoms: C_3  and  C_4
REMARK    4  A    between atoms: C_4  and  C_5
REMARK    5  A    between atoms: C_5  and  C_6
REMARK    6  A    between atoms: C_6  and  N_7
REMARK    7  A    between atoms: N_7  and  C_8
REMARK    8  A    between atoms: N_7  and  C_15
REMARK    9  A    between atoms: C_8  and  C_9
REMARK   10  A    between atoms: C_15  and  C_16
REMARK   11  A    between atoms: C_19  and  C_20
REMARK   12  A    between atoms: C_20  and  N_21
REMARK   13  A    between atoms: C_22  and  C_24
REMARK                            x       y       z     vdW  Elec       q    Type
REMARK                         _______ _______ _______ _____ _____    ______ ____
ROOT
ATOM     16  C   UNL     1      50.420   7.321  15.053  0.00  0.00    +0.000 A 
ATOM     17  C   UNL     1      50.643   8.157  13.951  0.00  0.00    +0.000 A 
ATOM     18  C   UNL     1      49.642   8.360  12.998  0.00  0.00    +0.000 A 
ATOM     19  C   UNL     1      48.396   7.735  13.135  0.00  0.00    +0.000 A 
ATOM     34  C   UNL     1      48.167   6.915  14.249  0.00  0.00    +0.000 A 
ATOM     35  C   UNL     1      49.165   6.715  15.202  0.00  0.00    +0.000 A 
ENDROOT
BRANCH  16  15
ATOM     15  C   UNL     1      51.534   7.010  16.031  0.00  0.00    +0.000 C 
BRANCH  15   7
ATOM      7  N   UNL     1      51.106   6.257  17.235  0.00  0.00    +0.000 NA
BRANCH   7   6
ATOM      6  C   UNL     1      52.004   5.097  17.422  0.00  0.00    +0.000 C 
BRANCH   6   5
ATOM      5  C   UNL     1      51.340   3.752  17.726  0.00  0.00    +0.000 C 
BRANCH   5   4
ATOM      4  C   UNL     1      49.828   3.828  17.946  0.00  0.00    +0.000 C 
BRANCH   4   3
ATOM      3  C   UNL     1      49.140   2.806  17.039  0.00  0.00    +0.000 C 
BRANCH   3   2
ATOM      1  C   UNL     1      47.179   4.325  17.376  0.00  0.00    +0.000 C 
ATOM      2  C   UNL     1      47.843   3.333  16.433  0.00  0.00    +0.000 C 
ENDBRANCH   3   2
ENDBRANCH   4   3
ENDBRANCH   5   4
ENDBRANCH   6   5
ENDBRANCH   7   6
BRANCH   7   8
ATOM      8  C   UNL     1      51.110   7.153  18.415  0.00  0.00    +0.000 C 
BRANCH   8   9
ATOM      9  C   UNL     1      49.738   7.714  18.756  0.00  0.00    +0.000 A 
ATOM     10  C   UNL     1      48.852   6.986  19.565  0.00  0.00    +0.000 A 
ATOM     11  C   UNL     1      47.554   7.451  19.790  0.00  0.00    +0.000 A 
ATOM     12  C   UNL     1      47.133   8.651  19.222  0.00  0.00    +0.000 A 
ATOM     13  C   UNL     1      48.016   9.403  18.449  0.00  0.00    +0.000 A 
ATOM     14  C   UNL     1      49.314   8.940  18.222  0.00  0.00    +0.000 A 
ENDBRANCH   8   9
ENDBRANCH   7   8
ENDBRANCH  15   7
ENDBRANCH  16  15
BRANCH  19  20
ATOM     20  C   UNL     1      47.339   7.860  12.069  0.00  0.00    +0.000 C 
BRANCH  20  21
ATOM     21  N   UNL     1      46.690   6.591  11.849  0.00  0.00    +0.000 N 
ATOM     22  C   UNL     1      45.335   6.502  11.672  0.00  0.00    +0.000 C 
ATOM     23  O   UNL     1      44.612   7.495  11.672  0.00  0.00    +0.000 OA
ATOM     36  H   UNL     1      47.222   5.756  12.075  0.00  0.00    +0.000 HD
BRANCH  22  24
ATOM     24  C   UNL     1      44.795   5.163  11.410  0.00  0.00    +0.000 A 
ATOM     25  C   UNL     1      44.064   4.511  12.394  0.00  0.00    +0.000 A 
ATOM     26  S   UNL     1      43.465   2.990  11.909  0.00  0.00    +0.000 S 
ATOM     27  C   UNL     1      44.209   3.124  10.386  0.00  0.00    +0.000 A 
ATOM     28  N   UNL     1      44.111   2.122   9.469  0.00  0.00    +0.000 NA
ATOM     29  C   UNL     1      44.749   2.339   8.370  0.00  0.00    +0.000 A 
ATOM     30  N   UNL     1      45.475   3.471   8.099  0.00  0.00    +0.000 N 
ATOM     31  C   UNL     1      45.578   4.519   8.982  0.00  0.00    +0.000 A 
ATOM     32  O   UNL     1      46.206   5.536   8.694  0.00  0.00    +0.000 OA
ATOM     33  C   UNL     1      44.886   4.319  10.241  0.00  0.00    +0.000 A 
ATOM     37  H   UNL     1      45.946   3.585   7.214  0.00  0.00    +0.000 HD
ENDBRANCH  22  24
ENDBRANCH  20  21
ENDBRANCH  19  20
TORSDOF 12
ENDMDL
MODEL 7
REMARK VINA RESULT:    -6.283      3.129      8.523
REMARK INTER + INTRA:         -13.541
REMARK INTER:                 -10.059
REMARK INTRA:                  -3.482
REMARK UNBOUND:                -2.851
REMARK  Name = 
REMARK  13 active torsions:
REMARK  status: ('A' for Active; 'I' for Inactive)
REMARK    1  A    between atoms: C_1  and  C_2
REMARK    2  A    between atoms: C_2  and  C_3
REMARK    3  A    between atoms: C_3  and  C_4
REMARK    4  A    between atoms: C_4  and  C_5
REMARK    5  A    between atoms: C_5  and  C_6
REMARK    6  A    between atoms: C_6  and  N_7
REMARK    7  A    between atoms: N_7  and  C_8
REMARK    8  A    between atoms: N_7  and  C_15
REMARK    9  A    between atoms: C_8  and  C_9
REMARK   10  A    between atoms: C_15  and  C_16
REMARK   11  A    between atoms: C_19  and  C_20
REMARK   12  A    between atoms: C_20  and  N_21
REMARK   13  A    between atoms: C_22  and  C_24
REMARK                            x       y       z     vdW  Elec       q    Type
REMARK                         _______ _______ _______ _____ _____    ______ ____
ROOT
ATOM     16  C   UNL     1      48.880   7.994  15.984  0.00  0.00    +0.000 A 
ATOM     17  C   UNL     1      49.045   6.816  15.244  0.00  0.00    +0.000 A 
ATOM     18  C   UNL     1      48.636   6.750  13.909  0.00  0.00    +0.000 A 
ATOM     19  C   UNL     1      48.060   7.867  13.290  0.00  0.00    +0.000 A 
ATOM     34  C   UNL     1      47.913   9.051  14.026  0.00  0.00    +0.000 A 
ATOM     35  C   UNL     1      48.324   9.117  15.356  0.00  0.00    +0.000 A 
ENDROOT
BRANCH  16  15
ATOM     15  C   UNL     1      49.219   8.040  17.459  0.00  0.00    +0.000 C 
BRANCH  15   7
ATOM      7  N   UNL     1      50.239   7.051  17.888  0.00  0.00    +0.000 NA
BRANCH   7   6
ATOM      6  C   UNL     1      51.404   7.772  18.443  0.00  0.00    +0.000 C 
BRANCH   6   5
ATOM      5  C   UNL     1      52.585   8.005  17.497  0.00  0.00    +0.000 C 
BRANCH   5   4
ATOM      4  C   UNL     1      52.697   6.986  16.361  0.00  0.00    +0.000 C 
BRANCH   4   3
ATOM      3  C   UNL     1      53.101   7.713  15.077  0.00  0.00    +0.000 C 
BRANCH   3   2
ATOM      1  C   UNL     1      51.705   8.778  13.294  0.00  0.00    +0.000 C 
ATOM      2  C   UNL     1      52.172   8.873  14.739  0.00  0.00    +0.000 C 
ENDBRANCH   3   2
ENDBRANCH   4   3
ENDBRANCH   5   4
ENDBRANCH   6   5
ENDBRANCH   7   6
BRANCH   7   8
ATOM      8  C   UNL     1      49.647   6.117  18.875  0.00  0.00    +0.000 C 
BRANCH   8   9
ATOM      9  C   UNL     1      49.056   4.865  18.248  0.00  0.00    +0.000 A 
ATOM     10  C   UNL     1      49.890   3.831  17.796  0.00  0.00    +0.000 A 
ATOM     11  C   UNL     1      49.354   2.730  17.123  0.00  0.00    +0.000 A 
ATOM     12  C   UNL     1      47.980   2.645  16.906  0.00  0.00    +0.000 A 
ATOM     13  C   UNL     1      47.136   3.646  17.384  0.00  0.00    +0.000 A 
ATOM     14  C   UNL     1      47.670   4.748  18.056  0.00  0.00    +0.000 A 
ENDBRANCH   8   9
ENDBRANCH   7   8
ENDBRANCH  15   7
ENDBRANCH  16  15
BRANCH  19  20
ATOM     20  C   UNL     1      47.520   7.786  11.885  0.00  0.00    +0.000 C 
BRANCH  20  21
ATOM     21  N   UNL     1      46.842   6.531  11.675  0.00  0.00    +0.000 N 
ATOM     22  C   UNL     1      45.485   6.418  11.818  0.00  0.00    +0.000 C 
ATOM     23  O   UNL     1      44.779   7.379  12.112  0.00  0.00    +0.000 OA
ATOM     36  H   UNL     1      47.417   5.693  11.665  0.00  0.00    +0.000 HD
BRANCH  22  24
ATOM     24  C   UNL     1      44.904   5.101  11.532  0.00  0.00    +0.000 A 
ATOM     25  C   UNL     1      44.194   4.433  12.521  0.00  0.00    +0.000 A 
ATOM     26  S   UNL     1      43.541   2.944  12.008  0.00  0.00    +0.000 S 
ATOM     27  C   UNL     1      44.232   3.112  10.463  0.00  0.00    +0.000 A 
ATOM     28  N   UNL     1      44.076   2.144   9.518  0.00  0.00    +0.000 NA
ATOM     29  C   UNL     1      44.680   2.384   8.405  0.00  0.00    +0.000 A 
ATOM     30  N   UNL     1      45.422   3.507   8.144  0.00  0.00    +0.000 N 
ATOM     31  C   UNL     1      45.583   4.521   9.057  0.00  0.00    +0.000 A 
ATOM     32  O   UNL     1      46.224   5.533   8.779  0.00  0.00    +0.000 OA
ATOM     33  C   UNL     1      44.933   4.295  10.333  0.00  0.00    +0.000 A 
ATOM     37  H   UNL     1      45.864   3.639   7.246  0.00  0.00    +0.000 HD
ENDBRANCH  22  24
ENDBRANCH  20  21
ENDBRANCH  19  20
TORSDOF 12
ENDMDL
MODEL 8
REMARK VINA RESULT:    -6.221      3.251      8.393
REMARK INTER + INTRA:         -13.437
REMARK INTER:                 -10.114
REMARK INTRA:                  -3.323
REMARK UNBOUND:                -2.851
REMARK  Name = 
REMARK  13 active torsions:
REMARK  status: ('A' for Active; 'I' for Inactive)
REMARK    1  A    between atoms: C_1  and  C_2
REMARK    2  A    between atoms: C_2  and  C_3
REMARK    3  A    between atoms: C_3  and  C_4
REMARK    4  A    between atoms: C_4  and  C_5
REMARK    5  A    between atoms: C_5  and  C_6
REMARK    6  A    between atoms: C_6  and  N_7
REMARK    7  A    between atoms: N_7  and  C_8
REMARK    8  A    between atoms: N_7  and  C_15
REMARK    9  A    between atoms: C_8  and  C_9
REMARK   10  A    between atoms: C_15  and  C_16
REMARK   11  A    between atoms: C_19  and  C_20
REMARK   12  A    between atoms: C_20  and  N_21
REMARK   13  A    between atoms: C_22  and  C_24
REMARK                            x       y       z     vdW  Elec       q    Type
REMARK                         _______ _______ _______ _____ _____    ______ ____
ROOT
ATOM     16  C   UNL     1      49.728   7.473  18.451  0.00  0.00    +0.000 A 
ATOM     17  C   UNL     1      50.415   6.982  17.333  0.00  0.00    +0.000 A 
ATOM     18  C   UNL     1      50.043   7.368  16.043  0.00  0.00    +0.000 A 
ATOM     19  C   UNL     1      48.978   8.259  15.850  0.00  0.00    +0.000 A 
ATOM     34  C   UNL     1      48.305   8.764  16.970  0.00  0.00    +0.000 A 
ATOM     35  C   UNL     1      48.679   8.381  18.258  0.00  0.00    +0.000 A 
ENDROOT
BRANCH  16  15
ATOM     15  C   UNL     1      50.054   6.975  19.844  0.00  0.00    +0.000 C 
BRANCH  15   7
ATOM      7  N   UNL     1      50.327   5.520  19.931  0.00  0.00    +0.000 NA
BRANCH   7   6
ATOM      6  C   UNL     1      51.221   5.266  21.080  0.00  0.00    +0.000 C 
BRANCH   6   5
ATOM      5  C   UNL     1      52.435   4.369  20.825  0.00  0.00    +0.000 C 
BRANCH   5   4
ATOM      4  C   UNL     1      52.811   4.218  19.349  0.00  0.00    +0.000 C 
BRANCH   4   3
ATOM      3  C   UNL     1      53.367   2.812  19.116  0.00  0.00    +0.000 C 
BRANCH   3   2
ATOM      1  C   UNL     1      52.298   0.979  17.789  0.00  0.00    +0.000 C 
ATOM      2  C   UNL     1      53.074   2.286  17.716  0.00  0.00    +0.000 C 
ENDBRANCH   3   2
ENDBRANCH   4   3
ENDBRANCH   5   4
ENDBRANCH   6   5
ENDBRANCH   7   6
BRANCH   7   8
ATOM      8  C   UNL     1      49.050   4.777  20.051  0.00  0.00    +0.000 C 
BRANCH   8   9
ATOM      9  C   UNL     1      48.598   4.133  18.750  0.00  0.00    +0.000 A 
ATOM     10  C   UNL     1      49.348   3.100  18.167  0.00  0.00    +0.000 A 
ATOM     11  C   UNL     1      48.992   2.583  16.919  0.00  0.00    +0.000 A 
ATOM     12  C   UNL     1      47.876   3.081  16.248  0.00  0.00    +0.000 A 
ATOM     13  C   UNL     1      47.101   4.080  16.835  0.00  0.00    +0.000 A 
ATOM     14  C   UNL     1      47.455   4.599  18.082  0.00  0.00    +0.000 A 
ENDBRANCH   8   9
ENDBRANCH   7   8
ENDBRANCH  15   7
ENDBRANCH  16  15
BRANCH  19  20
ATOM     20  C   UNL     1      48.497   8.608  14.466  0.00  0.00    +0.000 C 
BRANCH  20  21
ATOM     21  N   UNL     1      47.466   7.693  14.043  0.00  0.00    +0.000 N 
ATOM     22  C   UNL     1      47.747   6.620  13.239  0.00  0.00    +0.000 C 
ATOM     23  O   UNL     1      48.887   6.376  12.856  0.00  0.00    +0.000 OA
ATOM     36  H   UNL     1      46.504   8.002  14.149  0.00  0.00    +0.000 HD
BRANCH  22  24
ATOM     24  C   UNL     1      46.623   5.734  12.913  0.00  0.00    +0.000 A 
ATOM     25  C   UNL     1      46.724   4.374  13.168  0.00  0.00    +0.000 A 
ATOM     26  S   UNL     1      45.313   3.497  12.783  0.00  0.00    +0.000 S 
ATOM     27  C   UNL     1      44.536   4.897  12.209  0.00  0.00    +0.000 A 
ATOM     28  N   UNL     1      43.277   4.838  11.697  0.00  0.00    +0.000 NA
ATOM     29  C   UNL     1      42.821   5.965  11.268  0.00  0.00    +0.000 A 
ATOM     30  N   UNL     1      43.508   7.152  11.308  0.00  0.00    +0.000 N 
ATOM     31  C   UNL     1      44.769   7.264  11.842  0.00  0.00    +0.000 A 
ATOM     32  O   UNL     1      45.344   8.350  11.897  0.00  0.00    +0.000 OA
ATOM     33  C   UNL     1      45.333   6.019  12.328  0.00  0.00    +0.000 A 
ATOM     37  H   UNL     1      43.092   8.004  10.963  0.00  0.00    +0.000 HD
ENDBRANCH  22  24
ENDBRANCH  20  21
ENDBRANCH  19  20
TORSDOF 12
ENDMDL
MODEL 9
REMARK VINA RESULT:    -6.097      1.807      2.371
REMARK INTER + INTRA:         -13.225
REMARK INTER:                 -10.951
REMARK INTRA:                  -2.274
REMARK UNBOUND:                -2.851
REMARK  Name = 
REMARK  13 active torsions:
REMARK  status: ('A' for Active; 'I' for Inactive)
REMARK    1  A    between atoms: C_1  and  C_2
REMARK    2  A    between atoms: C_2  and  C_3
REMARK    3  A    between atoms: C_3  and  C_4
REMARK    4  A    between atoms: C_4  and  C_5
REMARK    5  A    between atoms: C_5  and  C_6
REMARK    6  A    between atoms: C_6  and  N_7
REMARK    7  A    between atoms: N_7  and  C_8
REMARK    8  A    between atoms: N_7  and  C_15
REMARK    9  A    between atoms: C_8  and  C_9
REMARK   10  A    between atoms: C_15  and  C_16
REMARK   11  A    between atoms: C_19  and  C_20
REMARK   12  A    between atoms: C_20  and  N_21
REMARK   13  A    between atoms: C_22  and  C_24
REMARK                            x       y       z     vdW  Elec       q    Type
REMARK                         _______ _______ _______ _____ _____    ______ ____
ROOT
ATOM     16  C   UNL     1      45.820   7.236  11.910  0.00  0.00    +0.000 A 
ATOM     17  C   UNL     1      45.581   8.500  12.465  0.00  0.00    +0.000 A 
ATOM     18  C   UNL     1      46.638   9.380  12.711  0.00  0.00    +0.000 A 
ATOM     19  C   UNL     1      47.954   9.011  12.401  0.00  0.00    +0.000 A 
ATOM     34  C   UNL     1      48.188   7.753  11.828  0.00  0.00    +0.000 A 
ATOM     35  C   UNL     1      47.133   6.877  11.579  0.00  0.00    +0.000 A 
ENDROOT
BRANCH  16  15
ATOM     15  C   UNL     1      44.694   6.236  11.741  0.00  0.00    +0.000 C 
BRANCH  15   7
ATOM      7  N   UNL     1      45.139   4.842  11.499  0.00  0.00    +0.000 NA
BRANCH   7   6
ATOM      6  C   UNL     1      45.108   4.098  12.776  0.00  0.00    +0.000 C 
BRANCH   6   5
ATOM      5  C   UNL     1      46.456   3.647  13.344  0.00  0.00    +0.000 C 
BRANCH   5   4
ATOM      4  C   UNL     1      46.904   4.410  14.593  0.00  0.00    +0.000 C 
BRANCH   4   3
ATOM      3  C   UNL     1      47.582   3.434  15.557  0.00  0.00    +0.000 C 
BRANCH   3   2
ATOM      1  C   UNL     1      48.338   3.375  17.943  0.00  0.00    +0.000 C 
ATOM      2  C   UNL     1      47.171   3.658  17.008  0.00  0.00    +0.000 C 
ENDBRANCH   3   2
ENDBRANCH   4   3
ENDBRANCH   5   4
ENDBRANCH   6   5
ENDBRANCH   7   6
BRANCH   7   8
ATOM      8  C   UNL     1      44.275   4.211  10.473  0.00  0.00    +0.000 C 
BRANCH   8   9
ATOM      9  C   UNL     1      45.052   3.560   9.341  0.00  0.00    +0.000 A 
ATOM     10  C   UNL     1      45.180   2.164   9.275  0.00  0.00    +0.000 A 
ATOM     11  C   UNL     1      45.984   1.572   8.297  0.00  0.00    +0.000 A 
ATOM     12  C   UNL     1      46.655   2.365   7.369  0.00  0.00    +0.000 A 
ATOM     13  C   UNL     1      46.506   3.751   7.400  0.00  0.00    +0.000 A 
ATOM     14  C   UNL     1      45.704   4.345   8.377  0.00  0.00    +0.000 A 
ENDBRANCH   8   9
ENDBRANCH   7   8
ENDBRANCH  15   7
ENDBRANCH  16  15
BRANCH  19  20
ATOM     20  C   UNL     1      49.116   9.903  12.751  0.00  0.00    +0.000 C 
BRANCH  20  21
ATOM     21  N   UNL     1      49.299   9.956  14.181  0.00  0.00    +0.000 N 
ATOM     22  C   UNL     1      50.223   9.168  14.814  0.00  0.00    +0.000 C 
ATOM     23  O   UNL     1      50.951   8.395  14.198  0.00  0.00    +0.000 OA
ATOM     36  H   UNL     1      48.565  10.402  14.723  0.00  0.00    +0.000 HD
BRANCH  22  24
ATOM     24  C   UNL     1      50.350   9.345  16.266  0.00  0.00    +0.000 A 
ATOM     25  C   UNL     1      51.072  10.419  16.767  0.00  0.00    +0.000 A 
ATOM     26  S   UNL     1      51.075  10.509  18.470  0.00  0.00    +0.000 S 
ATOM     27  C   UNL     1      50.157   9.083  18.599  0.00  0.00    +0.000 A 
ATOM     28  N   UNL     1      49.823   8.574  19.817  0.00  0.00    +0.000 NA
ATOM     29  C   UNL     1      49.156   7.472  19.770  0.00  0.00    +0.000 A 
ATOM     30  N   UNL     1      48.784   6.832  18.615  0.00  0.00    +0.000 N 
ATOM     31  C   UNL     1      49.073   7.324  17.365  0.00  0.00    +0.000 A 
ATOM     32  O   UNL     1      48.694   6.745  16.349  0.00  0.00    +0.000 OA
ATOM     33  C   UNL     1      49.836   8.558  17.363  0.00  0.00    +0.000 A 
ATOM     37  H   UNL     1      48.253   5.974  18.646  0.00  0.00    +0.000 HD
ENDBRANCH  22  24
ENDBRANCH  20  21
ENDBRANCH  19  20
TORSDOF 12
ENDMDL
