MODEL 1
REMARK VINA RESULT:    -8.812      0.000      0.000
REMARK INTER + INTRA:         -12.163
REMARK INTER:                 -11.388
REMARK INTRA:                  -0.775
REMARK UNBOUND:                -0.775
REMARK  Name = 
REMARK  7 active torsions:
REMARK  status: ('A' for Active; 'I' for Inactive)
REMARK    1  A    between atoms: C_1  and  C_2
REMARK    2  A    between atoms: C_2  and  C_3
REMARK    3  A    between atoms: C_2  and  C_4
REMARK    4  A    between atoms: C_2  and  C_15
REMARK    5  A    between atoms: C_4  and  N_5
REMARK    6  A    between atoms: C_9  and  C_10
REMARK    7  A    between atoms: C_19  and  N_20
REMARK                            x       y       z     vdW  Elec       q    Type
REMARK                         _______ _______ _______ _____ _____    ______ ____
ROOT
ATOM      1  C   UNL     1      42.667   6.214  11.752  0.00  0.00    +0.000 C 
ATOM      2  C   UNL     1      43.548   5.009  12.148  0.00  0.00    +0.000 C 
ATOM      3  C   UNL     1      43.010   4.378  13.456  0.00  0.00    +0.000 C 
ENDROOT
BRANCH   2  15
ATOM     15  C   UNL     1      44.993   5.501  12.409  0.00  0.00    +0.000 A 
ATOM     16  C   UNL     1      45.563   6.481  11.577  0.00  0.00    +0.000 A 
ATOM     17  C   UNL     1      46.833   6.989  11.832  0.00  0.00    +0.000 A 
ATOM     18  C   UNL     1      47.548   6.547  12.942  0.00  0.00    +0.000 A 
ATOM     19  C   UNL     1      47.031   5.582  13.810  0.00  0.00    +0.000 A 
ATOM     26  C   UNL     1      45.769   5.049  13.499  0.00  0.00    +0.000 A 
BRANCH  19  20
ATOM     20  N   UNL     1      47.709   5.194  14.946  0.00  0.00    +0.000 N 
ATOM     21  C   UNL     1      47.472   3.890  15.574  0.00  0.00    +0.000 C 
ATOM     22  C   UNL     1      47.094   4.077  17.058  0.00  0.00    +0.000 C 
ATOM     23  N   UNL     1      48.089   4.870  17.814  0.00  0.00    +0.000 NA
ATOM     24  C   UNL     1      48.264   6.177  17.140  0.00  0.00    +0.000 C 
ATOM     25  C   UNL     1      48.656   6.071  15.644  0.00  0.00    +0.000 C 
ATOM     30  H   UNL     1      48.980   4.375  17.768  0.00  0.00    +0.000 HD
ENDBRANCH  19  20
ENDBRANCH   2  15
BRANCH   2   4
ATOM      4  C   UNL     1      43.487   3.928  11.018  0.00  0.00    +0.000 C 
BRANCH   4   5
ATOM      5  N   UNL     1      43.854   4.440   9.705  0.00  0.00    +0.000 N 
ATOM      6  C   UNL     1      44.850   3.824   8.973  0.00  0.00    +0.000 A 
ATOM      7  C   UNL     1      45.113   2.460   9.023  0.00  0.00    +0.000 A 
ATOM      8  C   UNL     1      46.093   1.919   8.186  0.00  0.00    +0.000 A 
ATOM      9  C   UNL     1      46.776   2.744   7.297  0.00  0.00    +0.000 A 
ATOM     13  C   UNL     1      46.451   4.088   7.315  0.00  0.00    +0.000 A 
ATOM     14  N   UNL     1      45.519   4.639   8.136  0.00  0.00    +0.000 NA
ATOM     27  H   UNL     1      44.007   5.442   9.624  0.00  0.00    +0.000 HD
BRANCH   9  10
ATOM     10  C   UNL     1      47.777   2.142   6.386  0.00  0.00    +0.000 C 
ATOM     11  N   UNL     1      48.090   2.786   5.221  0.00  0.00    +0.000 N 
ATOM     12  O   UNL     1      48.321   1.077   6.658  0.00  0.00    +0.000 OA
ATOM     28  H   UNL     1      47.684   3.647   4.887  0.00  0.00    +0.000 HD
ATOM     29  H   UNL     1      48.761   2.324   4.620  0.00  0.00    +0.000 HD
ENDBRANCH   9  10
ENDBRANCH   4   5
ENDBRANCH   2   4
TORSDOF 5
ENDMDL
MODEL 2
REMARK VINA RESULT:    -8.634      1.955      2.518
REMARK INTER + INTRA:         -11.933
REMARK INTER:                 -11.231
REMARK INTRA:                  -0.702
REMARK UNBOUND:                -0.775
REMARK  Name = 
REMARK  7 active torsions:
REMARK  status: ('A' for Active; 'I' for Inactive)
REMARK    1  A    between atoms: C_1  and  C_2
REMARK    2  A    between atoms: C_2  and  C_3
REMARK    3  A    between atoms: C_2  and  C_4
REMARK    4  A    between atoms: C_2  and  C_15
REMARK    5  A    between atoms: C_4  and  N_5
REMARK    6  A    between atoms: C_9  and  C_10
REMARK    7  A    between atoms: C_19  and  N_20
REMARK                            x       y       z     vdW  Elec       q    Type
REMARK                         _______ _______ _______ _____ _____    ______ ____
ROOT
ATOM      1  C   UNL     1      43.090   4.832  13.447  0.00  0.00    +0.000 C 
ATOM      2  C   UNL     1      44.044   4.656  12.246  0.00  0.00    +0.000 C 
ATOM      3  C   UNL     1      44.963   3.433  12.487  0.00  0.00    +0.000 C 
ENDROOT
BRANCH   2  15
ATOM     15  C   UNL     1      44.939   5.915  12.121  0.00  0.00    +0.000 A 
ATOM     16  C   UNL     1      44.361   7.161  11.822  0.00  0.00    +0.000 A 
ATOM     17  C   UNL     1      45.134   8.317  11.772  0.00  0.00    +0.000 A 
ATOM     18  C   UNL     1      46.498   8.254  12.049  0.00  0.00    +0.000 A 
ATOM     19  C   UNL     1      47.127   7.045  12.361  0.00  0.00    +0.000 A 
ATOM     26  C   UNL     1      46.332   5.887  12.352  0.00  0.00    +0.000 A 
BRANCH  19  20
ATOM     20  N   UNL     1      48.461   6.992  12.700  0.00  0.00    +0.000 N 
ATOM     21  C   UNL     1      48.897   6.619  14.050  0.00  0.00    +0.000 C 
ATOM     22  C   UNL     1      49.807   7.717  14.636  0.00  0.00    +0.000 C 
ATOM     23  N   UNL     1      50.960   8.041  13.766  0.00  0.00    +0.000 NA
ATOM     24  C   UNL     1      50.450   8.428  12.430  0.00  0.00    +0.000 C 
ATOM     25  C   UNL     1      49.533   7.367  11.770  0.00  0.00    +0.000 C 
ATOM     30  H   UNL     1      51.511   7.191  13.653  0.00  0.00    +0.000 HD
ENDBRANCH  19  20
ENDBRANCH   2  15
BRANCH   2   4
ATOM      4  C   UNL     1      43.206   4.396  10.951  0.00  0.00    +0.000 C 
BRANCH   4   5
ATOM      5  N   UNL     1      43.857   4.863   9.734  0.00  0.00    +0.000 N 
ATOM      6  C   UNL     1      44.782   4.066   9.091  0.00  0.00    +0.000 A 
ATOM      7  C   UNL     1      44.727   2.677   9.075  0.00  0.00    +0.000 A 
ATOM      8  C   UNL     1      45.668   1.961   8.332  0.00  0.00    +0.000 A 
ATOM      9  C   UNL     1      46.634   2.643   7.597  0.00  0.00    +0.000 A 
ATOM     13  C   UNL     1      46.616   4.024   7.671  0.00  0.00    +0.000 A 
ATOM     14  N   UNL     1      45.725   4.739   8.405  0.00  0.00    +0.000 NA
ATOM     27  H   UNL     1      44.239   5.807   9.745  0.00  0.00    +0.000 HD
BRANCH   9  10
ATOM     10  C   UNL     1      47.593   1.866   6.778  0.00  0.00    +0.000 C 
ATOM     11  N   UNL     1      48.723   2.479   6.314  0.00  0.00    +0.000 N 
ATOM     12  O   UNL     1      47.385   0.688   6.507  0.00  0.00    +0.000 OA
ATOM     28  H   UNL     1      48.977   3.446   6.451  0.00  0.00    +0.000 HD
ATOM     29  H   UNL     1      49.335   1.915   5.739  0.00  0.00    +0.000 HD
ENDBRANCH   9  10
ENDBRANCH   4   5
ENDBRANCH   2   4
TORSDOF 5
ENDMDL
MODEL 3
REMARK VINA RESULT:    -8.390      1.757      3.018
REMARK INTER + INTRA:         -11.618
REMARK INTER:                 -10.587
REMARK INTRA:                  -1.031
REMARK UNBOUND:                -0.775
REMARK  Name = 
REMARK  7 active torsions:
REMARK  status: ('A' for Active; 'I' for Inactive)
REMARK    1  A    between atoms: C_1  and  C_2
REMARK    2  A    between atoms: C_2  and  C_3
REMARK    3  A    between atoms: C_2  and  C_4
REMARK    4  A    between atoms: C_2  and  C_15
REMARK    5  A    between atoms: C_4  and  N_5
REMARK    6  A    between atoms: C_9  and  C_10
REMARK    7  A    between atoms: C_19  and  N_20
REMARK                            x       y       z     vdW  Elec       q    Type
REMARK                         _______ _______ _______ _____ _____    ______ ____
ROOT
ATOM      1  C   UNL     1      43.335   6.636  11.565  0.00  0.00    +0.000 C 
ATOM      2  C   UNL     1      43.665   5.226  12.101  0.00  0.00    +0.000 C 
ATOM      3  C   UNL     1      42.672   4.853  13.230  0.00  0.00    +0.000 C 
ENDROOT
BRANCH   2  15
ATOM     15  C   UNL     1      45.094   5.233  12.698  0.00  0.00    +0.000 A 
ATOM     16  C   UNL     1      45.661   4.040  13.179  0.00  0.00    +0.000 A 
ATOM     17  C   UNL     1      46.968   4.008  13.657  0.00  0.00    +0.000 A 
ATOM     18  C   UNL     1      47.744   5.163  13.636  0.00  0.00    +0.000 A 
ATOM     19  C   UNL     1      47.239   6.377  13.162  0.00  0.00    +0.000 A 
ATOM     26  C   UNL     1      45.901   6.392  12.735  0.00  0.00    +0.000 A 
BRANCH  19  20
ATOM     20  N   UNL     1      48.027   7.505  13.078  0.00  0.00    +0.000 N 
ATOM     21  C   UNL     1      47.490   8.841  13.360  0.00  0.00    +0.000 C 
ATOM     22  C   UNL     1      47.743   9.777  12.161  0.00  0.00    +0.000 C 
ATOM     23  N   UNL     1      49.168   9.839  11.764  0.00  0.00    +0.000 NA
ATOM     24  C   UNL     1      49.639   8.465  11.475  0.00  0.00    +0.000 C 
ATOM     25  C   UNL     1      49.427   7.464  12.640  0.00  0.00    +0.000 C 
ATOM     30  H   UNL     1      49.698  10.187  12.562  0.00  0.00    +0.000 HD
ENDBRANCH  19  20
ENDBRANCH   2  15
BRANCH   2   4
ATOM      4  C   UNL     1      43.513   4.183  10.946  0.00  0.00    +0.000 C 
BRANCH   4   5
ATOM      5  N   UNL     1      43.972   4.675   9.654  0.00  0.00    +0.000 N 
ATOM      6  C   UNL     1      44.941   3.987   8.953  0.00  0.00    +0.000 A 
ATOM      7  C   UNL     1      45.090   2.605   8.995  0.00  0.00    +0.000 A 
ATOM      8  C   UNL     1      46.054   1.994   8.189  0.00  0.00    +0.000 A 
ATOM      9  C   UNL     1      46.836   2.769   7.338  0.00  0.00    +0.000 A 
ATOM     13  C   UNL     1      46.622   4.135   7.361  0.00  0.00    +0.000 A 
ATOM     14  N   UNL     1      45.707   4.752   8.153  0.00  0.00    +0.000 NA
ATOM     27  H   UNL     1      44.210   5.663   9.592  0.00  0.00    +0.000 HD
BRANCH   9  10
ATOM     10  C   UNL     1      47.820   2.095   6.457  0.00  0.00    +0.000 C 
ATOM     11  N   UNL     1      48.228   2.721   5.313  0.00  0.00    +0.000 N 
ATOM     12  O   UNL     1      48.266   0.988   6.737  0.00  0.00    +0.000 OA
ATOM     28  H   UNL     1      47.905   3.615   4.973  0.00  0.00    +0.000 HD
ATOM     29  H   UNL     1      48.881   2.212   4.732  0.00  0.00    +0.000 HD
ENDBRANCH   9  10
ENDBRANCH   4   5
ENDBRANCH   2   4
TORSDOF 5
ENDMDL
MODEL 4
REMARK VINA RESULT:    -8.135      2.985      4.859
REMARK INTER + INTRA:         -11.288
REMARK INTER:                 -10.553
REMARK INTRA:                  -0.734
REMARK UNBOUND:                -0.775
REMARK  Name = 
REMARK  7 active torsions:
REMARK  status: ('A' for Active; 'I' for Inactive)
REMARK    1  A    between atoms: C_1  and  C_2
REMARK    2  A    between atoms: C_2  and  C_3
REMARK    3  A    between atoms: C_2  and  C_4
REMARK    4  A    between atoms: C_2  and  C_15
REMARK    5  A    between atoms: C_4  and  N_5
REMARK    6  A    between atoms: C_9  and  C_10
REMARK    7  A    between atoms: C_19  and  N_20
REMARK                            x       y       z     vdW  Elec       q    Type
REMARK                         _______ _______ _______ _____ _____    ______ ____
ROOT
ATOM      1  C   UNL     1      43.088   4.906  13.350  0.00  0.00    +0.000 C 
ATOM      2  C   UNL     1      44.063   4.902  12.152  0.00  0.00    +0.000 C 
ATOM      3  C   UNL     1      45.115   3.781  12.342  0.00  0.00    +0.000 C 
ENDROOT
BRANCH   2  15
ATOM     15  C   UNL     1      44.808   6.259  12.100  0.00  0.00    +0.000 A 
ATOM     16  C   UNL     1      46.186   6.315  12.369  0.00  0.00    +0.000 A 
ATOM     17  C   UNL     1      46.890   7.511  12.261  0.00  0.00    +0.000 A 
ATOM     18  C   UNL     1      46.234   8.670  11.855  0.00  0.00    +0.000 A 
ATOM     19  C   UNL     1      44.867   8.674  11.566  0.00  0.00    +0.000 A 
ATOM     26  C   UNL     1      44.171   7.465  11.733  0.00  0.00    +0.000 A 
BRANCH  19  20
ATOM     20  N   UNL     1      44.231   9.804  11.099  0.00  0.00    +0.000 N 
ATOM     21  C   UNL     1      42.770   9.936  11.138  0.00  0.00    +0.000 C 
ATOM     22  C   UNL     1      42.229  10.248   9.728  0.00  0.00    +0.000 C 
ATOM     23  N   UNL     1      42.863  11.436   9.113  0.00  0.00    +0.000 NA
ATOM     24  C   UNL     1      44.329  11.229   9.086  0.00  0.00    +0.000 C 
ATOM     25  C   UNL     1      44.951  10.919  10.472  0.00  0.00    +0.000 C 
ATOM     30  H   UNL     1      42.673  12.236   9.716  0.00  0.00    +0.000 HD
ENDBRANCH  19  20
ENDBRANCH   2  15
BRANCH   2   4
ATOM      4  C   UNL     1      43.268   4.614  10.837  0.00  0.00    +0.000 C 
BRANCH   4   5
ATOM      5  N   UNL     1      43.964   5.041   9.631  0.00  0.00    +0.000 N 
ATOM      6  C   UNL     1      44.845   4.186   8.999  0.00  0.00    +0.000 A 
ATOM      7  C   UNL     1      44.700   2.804   8.978  0.00  0.00    +0.000 A 
ATOM      8  C   UNL     1      45.603   2.030   8.245  0.00  0.00    +0.000 A 
ATOM      9  C   UNL     1      46.622   2.650   7.527  0.00  0.00    +0.000 A 
ATOM     13  C   UNL     1      46.693   4.029   7.604  0.00  0.00    +0.000 A 
ATOM     14  N   UNL     1      45.839   4.798   8.329  0.00  0.00    +0.000 NA
ATOM     27  H   UNL     1      44.406   5.957   9.650  0.00  0.00    +0.000 HD
BRANCH   9  10
ATOM     10  C   UNL     1      47.540   1.813   6.719  0.00  0.00    +0.000 C 
ATOM     11  N   UNL     1      48.628   2.395   6.131  0.00  0.00    +0.000 N 
ATOM     12  O   UNL     1      47.335   0.614   6.567  0.00  0.00    +0.000 OA
ATOM     28  H   UNL     1      48.874   3.374   6.166  0.00  0.00    +0.000 HD
ATOM     29  H   UNL     1      49.212   1.789   5.569  0.00  0.00    +0.000 HD
ENDBRANCH   9  10
ENDBRANCH   4   5
ENDBRANCH   2   4
TORSDOF 5
ENDMDL
MODEL 5
REMARK VINA RESULT:    -7.403      2.644      7.912
REMARK INTER + INTRA:         -10.342
REMARK INTER:                  -9.461
REMARK INTRA:                  -0.881
REMARK UNBOUND:                -0.775
REMARK  Name = 
REMARK  7 active torsions:
REMARK  status: ('A' for Active; 'I' for Inactive)
REMARK    1  A    between atoms: C_1  and  C_2
REMARK    2  A    between atoms: C_2  and  C_3
REMARK    3  A    between atoms: C_2  and  C_4
REMARK    4  A    between atoms: C_2  and  C_15
REMARK    5  A    between atoms: C_4  and  N_5
REMARK    6  A    between atoms: C_9  and  C_10
REMARK    7  A    between atoms: C_19  and  N_20
REMARK                            x       y       z     vdW  Elec       q    Type
REMARK                         _______ _______ _______ _____ _____    ______ ____
ROOT
ATOM      1  C   UNL     1      44.542   7.372  11.361  0.00  0.00    +0.000 C 
ATOM      2  C   UNL     1      45.555   6.296  11.809  0.00  0.00    +0.000 C 
ATOM      3  C   UNL     1      46.938   6.588  11.174  0.00  0.00    +0.000 C 
ENDROOT
BRANCH   2  15
ATOM     15  C   UNL     1      45.077   4.910  11.310  0.00  0.00    +0.000 A 
ATOM     16  C   UNL     1      44.053   4.232  11.993  0.00  0.00    +0.000 A 
ATOM     17  C   UNL     1      43.559   3.018  11.525  0.00  0.00    +0.000 A 
ATOM     18  C   UNL     1      44.061   2.472  10.346  0.00  0.00    +0.000 A 
ATOM     19  C   UNL     1      45.073   3.104   9.619  0.00  0.00    +0.000 A 
ATOM     26  C   UNL     1      45.588   4.301  10.143  0.00  0.00    +0.000 A 
BRANCH  19  20
ATOM     20  N   UNL     1      45.523   2.599   8.418  0.00  0.00    +0.000 N 
ATOM     21  C   UNL     1      45.581   1.155   8.165  0.00  0.00    +0.000 C 
ATOM     22  C   UNL     1      47.007   0.748   7.742  0.00  0.00    +0.000 C 
ATOM     23  N   UNL     1      47.511   1.521   6.584  0.00  0.00    +0.000 NA
ATOM     24  C   UNL     1      47.444   2.963   6.913  0.00  0.00    +0.000 C 
ATOM     25  C   UNL     1      46.037   3.452   7.340  0.00  0.00    +0.000 C 
ATOM     30  H   UNL     1      46.881   1.352   5.800  0.00  0.00    +0.000 HD
ENDBRANCH  19  20
ENDBRANCH   2  15
BRANCH   2   4
ATOM      4  C   UNL     1      45.708   6.343  13.365  0.00  0.00    +0.000 C 
BRANCH   4   5
ATOM      5  N   UNL     1      47.094   6.382  13.813  0.00  0.00    +0.000 N 
ATOM      6  C   UNL     1      47.506   5.589  14.864  0.00  0.00    +0.000 A 
ATOM      7  C   UNL     1      46.970   4.337  15.144  0.00  0.00    +0.000 A 
ATOM      8  C   UNL     1      47.507   3.577  16.186  0.00  0.00    +0.000 A 
ATOM      9  C   UNL     1      48.587   4.069  16.915  0.00  0.00    +0.000 A 
ATOM     13  C   UNL     1      49.057   5.323  16.570  0.00  0.00    +0.000 A 
ATOM     14  N   UNL     1      48.534   6.088  15.576  0.00  0.00    +0.000 NA
ATOM     27  H   UNL     1      47.509   7.299  13.956  0.00  0.00    +0.000 HD
BRANCH   9  10
ATOM     10  C   UNL     1      49.172   3.227  17.985  0.00  0.00    +0.000 C 
ATOM     11  N   UNL     1      48.531   3.137  19.188  0.00  0.00    +0.000 N 
ATOM     12  O   UNL     1      50.222   2.618  17.808  0.00  0.00    +0.000 OA
ATOM     28  H   UNL     1      47.682   3.616  19.450  0.00  0.00    +0.000 HD
ATOM     29  H   UNL     1      48.981   2.570  19.895  0.00  0.00    +0.000 HD
ENDBRANCH   9  10
ENDBRANCH   4   5
ENDBRANCH   2   4
TORSDOF 5
ENDMDL
MODEL 6
REMARK VINA RESULT:    -7.270      1.494      2.164
REMARK INTER + INTRA:         -10.171
REMARK INTER:                  -9.394
REMARK INTRA:                  -0.777
REMARK UNBOUND:                -0.775
REMARK  Name = 
REMARK  7 active torsions:
REMARK  status: ('A' for Active; 'I' for Inactive)
REMARK    1  A    between atoms: C_1  and  C_2
REMARK    2  A    between atoms: C_2  and  C_3
REMARK    3  A    between atoms: C_2  and  C_4
REMARK    4  A    between atoms: C_2  and  C_15
REMARK    5  A    between atoms: C_4  and  N_5
REMARK    6  A    between atoms: C_9  and  C_10
REMARK    7  A    between atoms: C_19  and  N_20
REMARK                            x       y       z     vdW  Elec       q    Type
REMARK                         _______ _______ _______ _____ _____    ______ ____
ROOT
ATOM      1  C   UNL     1      45.974   6.686  10.584  0.00  0.00    +0.000 C 
ATOM      2  C   UNL     1      44.988   6.144  11.641  0.00  0.00    +0.000 C 
ATOM      3  C   UNL     1      44.283   7.328  12.349  0.00  0.00    +0.000 C 
ENDROOT
BRANCH   2  15
ATOM     15  C   UNL     1      45.776   5.344  12.708  0.00  0.00    +0.000 A 
ATOM     16  C   UNL     1      45.718   3.940  12.718  0.00  0.00    +0.000 A 
ATOM     17  C   UNL     1      46.471   3.197  13.622  0.00  0.00    +0.000 A 
ATOM     18  C   UNL     1      47.321   3.844  14.516  0.00  0.00    +0.000 A 
ATOM     19  C   UNL     1      47.428   5.237  14.547  0.00  0.00    +0.000 A 
ATOM     26  C   UNL     1      46.617   5.963  13.659  0.00  0.00    +0.000 A 
BRANCH  19  20
ATOM     20  N   UNL     1      48.318   5.875  15.384  0.00  0.00    +0.000 N 
ATOM     21  C   UNL     1      48.605   5.368  16.730  0.00  0.00    +0.000 C 
ATOM     22  C   UNL     1      48.352   6.472  17.777  0.00  0.00    +0.000 C 
ATOM     23  N   UNL     1      49.100   7.719  17.497  0.00  0.00    +0.000 NA
ATOM     24  C   UNL     1      48.750   8.185  16.136  0.00  0.00    +0.000 C 
ATOM     25  C   UNL     1      48.987   7.131  15.024  0.00  0.00    +0.000 C 
ATOM     30  H   UNL     1      50.094   7.492  17.501  0.00  0.00    +0.000 HD
ENDBRANCH  19  20
ENDBRANCH   2  15
BRANCH   2   4
ATOM      4  C   UNL     1      43.898   5.272  10.935  0.00  0.00    +0.000 C 
BRANCH   4   5
ATOM      5  N   UNL     1      44.115   5.118   9.503  0.00  0.00    +0.000 N 
ATOM      6  C   UNL     1      44.877   4.071   9.025  0.00  0.00    +0.000 A 
ATOM      7  C   UNL     1      44.943   2.823   9.635  0.00  0.00    +0.000 A 
ATOM      8  C   UNL     1      45.683   1.803   9.032  0.00  0.00    +0.000 A 
ATOM      9  C   UNL     1      46.324   2.038   7.818  0.00  0.00    +0.000 A 
ATOM     13  C   UNL     1      46.205   3.308   7.283  0.00  0.00    +0.000 A 
ATOM     14  N   UNL     1      45.511   4.320   7.864  0.00  0.00    +0.000 NA
ATOM     27  H   UNL     1      44.397   5.947   8.985  0.00  0.00    +0.000 HD
BRANCH   9  10
ATOM     10  C   UNL     1      47.064   0.929   7.172  0.00  0.00    +0.000 C 
ATOM     11  N   UNL     1      46.808  -0.357   7.557  0.00  0.00    +0.000 N 
ATOM     12  O   UNL     1      47.904   1.148   6.306  0.00  0.00    +0.000 OA
ATOM     28  H   UNL     1      46.162  -0.648   8.277  0.00  0.00    +0.000 HD
ATOM     29  H   UNL     1      47.355  -1.078   7.105  0.00  0.00    +0.000 HD
ENDBRANCH   9  10
ENDBRANCH   4   5
ENDBRANCH   2   4
TORSDOF 5
ENDMDL
MODEL 7
REMARK VINA RESULT:    -6.965      3.389      7.746
REMARK INTER + INTRA:          -9.776
REMARK INTER:                  -8.705
REMARK INTRA:                  -1.070
REMARK UNBOUND:                -0.775
REMARK  Name = 
REMARK  7 active torsions:
REMARK  status: ('A' for Active; 'I' for Inactive)
REMARK    1  A    between atoms: C_1  and  C_2
REMARK    2  A    between atoms: C_2  and  C_3
REMARK    3  A    between atoms: C_2  and  C_4
REMARK    4  A    between atoms: C_2  and  C_15
REMARK    5  A    between atoms: C_4  and  N_5
REMARK    6  A    between atoms: C_9  and  C_10
REMARK    7  A    between atoms: C_19  and  N_20
REMARK                            x       y       z     vdW  Elec       q    Type
REMARK                         _______ _______ _______ _____ _____    ______ ____
ROOT
ATOM      1  C   UNL     1      49.362   9.838  11.811  0.00  0.00    +0.000 C 
ATOM      2  C   UNL     1      49.049   8.506  12.527  0.00  0.00    +0.000 C 
ATOM      3  C   UNL     1      49.933   7.379  11.938  0.00  0.00    +0.000 C 
ENDROOT
BRANCH   2  15
ATOM     15  C   UNL     1      47.566   8.135  12.283  0.00  0.00    +0.000 A 
ATOM     16  C   UNL     1      46.590   9.144  12.216  0.00  0.00    +0.000 A 
ATOM     17  C   UNL     1      45.263   8.842  11.929  0.00  0.00    +0.000 A 
ATOM     18  C   UNL     1      44.889   7.525  11.675  0.00  0.00    +0.000 A 
ATOM     19  C   UNL     1      45.816   6.479  11.719  0.00  0.00    +0.000 A 
ATOM     26  C   UNL     1      47.138   6.807  12.062  0.00  0.00    +0.000 A 
BRANCH  19  20
ATOM     20  N   UNL     1      45.460   5.186  11.402  0.00  0.00    +0.000 N 
ATOM     21  C   UNL     1      45.170   4.785  10.021  0.00  0.00    +0.000 C 
ATOM     22  C   UNL     1      43.771   4.142   9.939  0.00  0.00    +0.000 C 
ATOM     23  N   UNL     1      43.596   3.011  10.878  0.00  0.00    +0.000 NA
ATOM     24  C   UNL     1      43.884   3.488  12.251  0.00  0.00    +0.000 C 
ATOM     25  C   UNL     1      45.280   4.140  12.416  0.00  0.00    +0.000 C 
ATOM     30  H   UNL     1      44.291   2.303  10.644  0.00  0.00    +0.000 HD
ENDBRANCH  19  20
ENDBRANCH   2  15
BRANCH   2   4
ATOM      4  C   UNL     1      49.380   8.646  14.050  0.00  0.00    +0.000 C 
BRANCH   4   5
ATOM      5  N   UNL     1      50.108   7.508  14.594  0.00  0.00    +0.000 N 
ATOM      6  C   UNL     1      49.461   6.586  15.391  0.00  0.00    +0.000 A 
ATOM      7  C   UNL     1      48.121   6.245  15.245  0.00  0.00    +0.000 A 
ATOM      8  C   UNL     1      47.576   5.243  16.053  0.00  0.00    +0.000 A 
ATOM      9  C   UNL     1      48.383   4.583  16.976  0.00  0.00    +0.000 A 
ATOM     13  C   UNL     1      49.703   4.987  17.055  0.00  0.00    +0.000 A 
ATOM     14  N   UNL     1      50.247   5.973  16.296  0.00  0.00    +0.000 NA
ATOM     27  H   UNL     1      51.006   7.698  15.034  0.00  0.00    +0.000 HD
BRANCH   9  10
ATOM     10  C   UNL     1      47.796   3.492  17.789  0.00  0.00    +0.000 C 
ATOM     11  N   UNL     1      48.349   3.195  19.003  0.00  0.00    +0.000 N 
ATOM     12  O   UNL     1      46.830   2.852  17.387  0.00  0.00    +0.000 OA
ATOM     28  H   UNL     1      49.159   3.636  19.415  0.00  0.00    +0.000 HD
ATOM     29  H   UNL     1      47.930   2.426  19.511  0.00  0.00    +0.000 HD
ENDBRANCH   9  10
ENDBRANCH   4   5
ENDBRANCH   2   4
TORSDOF 5
ENDMDL
MODEL 8
REMARK VINA RESULT:    -6.920      2.913      4.914
REMARK INTER + INTRA:          -9.719
REMARK INTER:                  -8.804
REMARK INTRA:                  -0.914
REMARK UNBOUND:                -0.775
REMARK  Name = 
REMARK  7 active torsions:
REMARK  status: ('A' for Active; 'I' for Inactive)
REMARK    1  A    between atoms: C_1  and  C_2
REMARK    2  A    between atoms: C_2  and  C_3
REMARK    3  A    between atoms: C_2  and  C_4
REMARK    4  A    between atoms: C_2  and  C_15
REMARK    5  A    between atoms: C_4  and  N_5
REMARK    6  A    between atoms: C_9  and  C_10
REMARK    7  A    between atoms: C_19  and  N_20
REMARK                            x       y       z     vdW  Elec       q    Type
REMARK                         _______ _______ _______ _____ _____    ______ ____
ROOT
ATOM      1  C   UNL     1      48.865   7.950  11.796  0.00  0.00    +0.000 C 
ATOM      2  C   UNL     1      48.386   8.449  13.176  0.00  0.00    +0.000 C 
ATOM      3  C   UNL     1      48.688   9.961  13.316  0.00  0.00    +0.000 C 
ENDROOT
BRANCH   2  15
ATOM     15  C   UNL     1      49.163   7.696  14.285  0.00  0.00    +0.000 A 
ATOM     16  C   UNL     1      50.528   7.961  14.489  0.00  0.00    +0.000 A 
ATOM     17  C   UNL     1      51.231   7.348  15.522  0.00  0.00    +0.000 A 
ATOM     18  C   UNL     1      50.575   6.480  16.391  0.00  0.00    +0.000 A 
ATOM     19  C   UNL     1      49.216   6.185  16.243  0.00  0.00    +0.000 A 
ATOM     26  C   UNL     1      48.545   6.777  15.161  0.00  0.00    +0.000 A 
BRANCH  19  20
ATOM     20  N   UNL     1      48.551   5.380  17.142  0.00  0.00    +0.000 N 
ATOM     21  C   UNL     1      48.636   5.608  18.589  0.00  0.00    +0.000 C 
ATOM     22  C   UNL     1      49.113   4.325  19.300  0.00  0.00    +0.000 C 
ATOM     23  N   UNL     1      48.278   3.143  18.987  0.00  0.00    +0.000 NA
ATOM     24  C   UNL     1      48.252   2.959  17.518  0.00  0.00    +0.000 C 
ATOM     25  C   UNL     1      47.772   4.205  16.731  0.00  0.00    +0.000 C 
ATOM     30  H   UNL     1      47.326   3.346  19.291  0.00  0.00    +0.000 HD
ENDBRANCH  19  20
ENDBRANCH   2  15
BRANCH   2   4
ATOM      4  C   UNL     1      46.840   8.242  13.295  0.00  0.00    +0.000 C 
BRANCH   4   5
ATOM      5  N   UNL     1      46.204   7.879  12.035  0.00  0.00    +0.000 N 
ATOM      6  C   UNL     1      45.701   6.607  11.853  0.00  0.00    +0.000 A 
ATOM      7  C   UNL     1      45.162   5.835  12.876  0.00  0.00    +0.000 A 
ATOM      8  C   UNL     1      44.608   4.588  12.577  0.00  0.00    +0.000 A 
ATOM      9  C   UNL     1      44.579   4.143  11.258  0.00  0.00    +0.000 A 
ATOM     13  C   UNL     1      45.137   4.974  10.304  0.00  0.00    +0.000 A 
ATOM     14  N   UNL     1      45.702   6.179  10.576  0.00  0.00    +0.000 NA
ATOM     27  H   UNL     1      46.696   8.126  11.179  0.00  0.00    +0.000 HD
BRANCH   9  10
ATOM     10  C   UNL     1      43.944   2.838  10.956  0.00  0.00    +0.000 C 
ATOM     11  N   UNL     1      44.429   2.084   9.925  0.00  0.00    +0.000 N 
ATOM     12  O   UNL     1      42.990   2.432  11.611  0.00  0.00    +0.000 OA
ATOM     28  H   UNL     1      45.187   2.334   9.307  0.00  0.00    +0.000 HD
ATOM     29  H   UNL     1      43.948   1.213   9.742  0.00  0.00    +0.000 HD
ENDBRANCH   9  10
ENDBRANCH   4   5
ENDBRANCH   2   4
TORSDOF 5
ENDMDL
MODEL 9
REMARK VINA RESULT:    -6.842      2.718      5.407
REMARK INTER + INTRA:          -9.617
REMARK INTER:                  -8.784
REMARK INTRA:                  -0.833
REMARK UNBOUND:                -0.775
REMARK  Name = 
REMARK  7 active torsions:
REMARK  status: ('A' for Active; 'I' for Inactive)
REMARK    1  A    between atoms: C_1  and  C_2
REMARK    2  A    between atoms: C_2  and  C_3
REMARK    3  A    between atoms: C_2  and  C_4
REMARK    4  A    between atoms: C_2  and  C_15
REMARK    5  A    between atoms: C_4  and  N_5
REMARK    6  A    between atoms: C_9  and  C_10
REMARK    7  A    between atoms: C_19  and  N_20
REMARK                            x       y       z     vdW  Elec       q    Type
REMARK                         _______ _______ _______ _____ _____    ______ ____
ROOT
ATOM      1  C   UNL     1      49.787   7.715  13.779  0.00  0.00    +0.000 C 
ATOM      2  C   UNL     1      48.688   8.635  14.354  0.00  0.00    +0.000 C 
ATOM      3  C   UNL     1      49.026  10.112  14.032  0.00  0.00    +0.000 C 
ENDROOT
BRANCH   2  15
ATOM     15  C   UNL     1      48.647   8.474  15.894  0.00  0.00    +0.000 A 
ATOM     16  C   UNL     1      48.129   9.506  16.695  0.00  0.00    +0.000 A 
ATOM     17  C   UNL     1      48.018   9.357  18.074  0.00  0.00    +0.000 A 
ATOM     18  C   UNL     1      48.396   8.160  18.677  0.00  0.00    +0.000 A 
ATOM     19  C   UNL     1      48.910   7.095  17.931  0.00  0.00    +0.000 A 
ATOM     26  C   UNL     1      49.060   7.293  16.549  0.00  0.00    +0.000 A 
BRANCH  19  20
ATOM     20  N   UNL     1      49.222   5.888  18.518  0.00  0.00    +0.000 N 
ATOM     21  C   UNL     1      49.245   4.641  17.745  0.00  0.00    +0.000 C 
ATOM     22  C   UNL     1      48.317   3.596  18.397  0.00  0.00    +0.000 C 
ATOM     23  N   UNL     1      48.629   3.354  19.824  0.00  0.00    +0.000 NA
ATOM     24  C   UNL     1      48.568   4.645  20.547  0.00  0.00    +0.000 C 
ATOM     25  C   UNL     1      49.484   5.746  19.955  0.00  0.00    +0.000 C 
ATOM     30  H   UNL     1      49.588   3.012  19.878  0.00  0.00    +0.000 HD
ENDBRANCH  19  20
ENDBRANCH   2  15
BRANCH   2   4
ATOM      4  C   UNL     1      47.318   8.286  13.686  0.00  0.00    +0.000 C 
BRANCH   4   5
ATOM      5  N   UNL     1      46.922   6.895  13.863  0.00  0.00    +0.000 N 
ATOM      6  C   UNL     1      46.225   6.239  12.869  0.00  0.00    +0.000 A 
ATOM      7  C   UNL     1      46.386   6.499  11.513  0.00  0.00    +0.000 A 
ATOM      8  C   UNL     1      45.690   5.728  10.579  0.00  0.00    +0.000 A 
ATOM      9  C   UNL     1      44.864   4.695  11.013  0.00  0.00    +0.000 A 
ATOM     13  C   UNL     1      44.762   4.506  12.379  0.00  0.00    +0.000 A 
ATOM     14  N   UNL     1      45.411   5.259  13.305  0.00  0.00    +0.000 NA
ATOM     27  H   UNL     1      46.478   6.648  14.745  0.00  0.00    +0.000 HD
BRANCH   9  10
ATOM     10  C   UNL     1      44.172   3.859  10.004  0.00  0.00    +0.000 C 
ATOM     11  N   UNL     1      44.072   4.311   8.718  0.00  0.00    +0.000 N 
ATOM     12  O   UNL     1      43.684   2.775  10.307  0.00  0.00    +0.000 OA
ATOM     28  H   UNL     1      44.409   5.196   8.369  0.00  0.00    +0.000 HD
ATOM     29  H   UNL     1      43.570   3.717   8.071  0.00  0.00    +0.000 HD
ENDBRANCH   9  10
ENDBRANCH   4   5
ENDBRANCH   2   4
TORSDOF 5
ENDMDL
