MODEL 1
REMARK VINA RESULT:    -8.309      0.000      0.000
REMARK INTER + INTRA:         -10.385
REMARK INTER:                  -9.767
REMARK INTRA:                  -0.618
REMARK UNBOUND:                -0.618
REMARK  Name = 
REMARK  3 active torsions:
REMARK  status: ('A' for Active; 'I' for Inactive)
REMARK    1  A    between atoms: C_2  and  C_4
REMARK    2  A    between atoms: N_8  and  C_9
REMARK    3  A    between atoms: C_9  and  C_10
REMARK                            x       y       z     vdW  Elec       q    Type
REMARK                         _______ _______ _______ _____ _____    ______ ____
ROOT
ATOM      4  C   UNL     1      46.580   2.730   7.441  0.00  0.00    +0.000 A 
ATOM      5  C   UNL     1      46.264   4.067   7.680  0.00  0.00    +0.000 A 
ATOM      6  C   UNL     1      45.428   4.390   8.750  0.00  0.00    +0.000 A 
ATOM      7  C   UNL     1      44.920   3.385   9.559  0.00  0.00    +0.000 A 
ATOM      8  N   UNL     1      44.009   3.612  10.594  0.00  0.00    +0.000 N 
ATOM     18  N   UNL     1      45.209   2.084   9.331  0.00  0.00    +0.000 NA
ATOM     19  C   UNL     1      46.022   1.783   8.281  0.00  0.00    +0.000 A 
ATOM     22  H   UNL     1      43.873   2.717  11.060  0.00  0.00    +0.000 HD
ENDROOT
BRANCH   4   2
ATOM      1  N   UNL     1      47.344   2.999   5.151  0.00  0.00    +0.000 N 
ATOM      2  C   UNL     1      47.439   2.294   6.321  0.00  0.00    +0.000 C 
ATOM      3  O   UNL     1      48.223   1.365   6.440  0.00  0.00    +0.000 OA
ATOM     20  H   UNL     1      47.998   2.753   4.422  0.00  0.00    +0.000 HD
ATOM     21  H   UNL     1      46.896   3.904   5.094  0.00  0.00    +0.000 HD
ENDBRANCH   4   2
BRANCH   8   9
ATOM      9  C   UNL     1      43.952   4.814  11.440  0.00  0.00    +0.000 C 
ATOM     16  C   UNL     1      42.643   4.981  12.208  0.00  0.00    +0.000 C 
ATOM     17  C   UNL     1      43.021   5.986  11.175  0.00  0.00    +0.000 C 
BRANCH   9  10
ATOM     10  C   UNL     1      45.251   5.129  12.183  0.00  0.00    +0.000 A 
ATOM     11  C   UNL     1      46.022   6.258  11.853  0.00  0.00    +0.000 A 
ATOM     12  C   UNL     1      47.160   6.604  12.587  0.00  0.00    +0.000 A 
ATOM     13  C   UNL     1      47.561   5.819  13.663  0.00  0.00    +0.000 A 
ATOM     14  C   UNL     1      46.839   4.675  13.988  0.00  0.00    +0.000 A 
ATOM     15  C   UNL     1      45.705   4.331  13.248  0.00  0.00    +0.000 A 
ENDBRANCH   9  10
ENDBRANCH   8   9
TORSDOF 3
ENDMDL
MODEL 2
REMARK VINA RESULT:    -6.540      3.388      6.406
REMARK INTER + INTRA:          -8.305
REMARK INTER:                  -8.031
REMARK INTRA:                  -0.274
REMARK UNBOUND:                -0.618
REMARK  Name = 
REMARK  3 active torsions:
REMARK  status: ('A' for Active; 'I' for Inactive)
REMARK    1  A    between atoms: C_2  and  C_4
REMARK    2  A    between atoms: N_8  and  C_9
REMARK    3  A    between atoms: C_9  and  C_10
REMARK                            x       y       z     vdW  Elec       q    Type
REMARK                         _______ _______ _______ _____ _____    ______ ____
ROOT
ATOM      4  C   UNL     1      47.923   6.321  14.372  0.00  0.00    +0.000 A 
ATOM      5  C   UNL     1      47.138   5.181  14.535  0.00  0.00    +0.000 A 
ATOM      6  C   UNL     1      46.184   4.864  13.567  0.00  0.00    +0.000 A 
ATOM      7  C   UNL     1      46.024   5.683  12.459  0.00  0.00    +0.000 A 
ATOM      8  N   UNL     1      45.037   5.489  11.490  0.00  0.00    +0.000 N 
ATOM     18  N   UNL     1      46.771   6.799  12.295  0.00  0.00    +0.000 NA
ATOM     19  C   UNL     1      47.695   7.097  13.249  0.00  0.00    +0.000 A 
ATOM     22  H   UNL     1      45.204   6.184  10.765  0.00  0.00    +0.000 HD
ENDROOT
BRANCH   4   2
ATOM      1  N   UNL     1      48.489   7.221  16.556  0.00  0.00    +0.000 N 
ATOM      2  C   UNL     1      48.942   6.745  15.354  0.00  0.00    +0.000 C 
ATOM      3  O   UNL     1      50.137   6.647  15.120  0.00  0.00    +0.000 OA
ATOM     20  H   UNL     1      49.190   7.422  17.254  0.00  0.00    +0.000 HD
ATOM     21  H   UNL     1      47.537   7.091  16.871  0.00  0.00    +0.000 HD
ENDBRANCH   4   2
BRANCH   8   9
ATOM      9  C   UNL     1      44.507   4.188  11.051  0.00  0.00    +0.000 C 
ATOM     16  C   UNL     1      43.002   4.023  11.249  0.00  0.00    +0.000 C 
ATOM     17  C   UNL     1      43.942   3.146  12.003  0.00  0.00    +0.000 C 
BRANCH   9  10
ATOM     10  C   UNL     1      45.109   3.666   9.747  0.00  0.00    +0.000 A 
ATOM     11  C   UNL     1      45.618   4.547   8.776  0.00  0.00    +0.000 A 
ATOM     12  C   UNL     1      46.253   4.077   7.624  0.00  0.00    +0.000 A 
ATOM     13  C   UNL     1      46.383   2.708   7.409  0.00  0.00    +0.000 A 
ATOM     14  C   UNL     1      45.856   1.813   8.334  0.00  0.00    +0.000 A 
ATOM     15  C   UNL     1      45.218   2.289   9.482  0.00  0.00    +0.000 A 
ENDBRANCH   9  10
ENDBRANCH   8   9
TORSDOF 3
ENDMDL
MODEL 3
REMARK VINA RESULT:    -6.432      3.476      6.256
REMARK INTER + INTRA:          -8.178
REMARK INTER:                  -8.401
REMARK INTRA:                   0.223
REMARK UNBOUND:                -0.618
REMARK  Name = 
REMARK  3 active torsions:
REMARK  status: ('A' for Active; 'I' for Inactive)
REMARK    1  A    between atoms: C_2  and  C_4
REMARK    2  A    between atoms: N_8  and  C_9
REMARK    3  A    between atoms: C_9  and  C_10
REMARK                            x       y       z     vdW  Elec       q    Type
REMARK                         _______ _______ _______ _____ _____    ______ ____
ROOT
ATOM      4  C   UNL     1      47.841   5.867  14.568  0.00  0.00    +0.000 A 
ATOM      5  C   UNL     1      47.387   6.164  13.283  0.00  0.00    +0.000 A 
ATOM      6  C   UNL     1      46.602   5.232  12.605  0.00  0.00    +0.000 A 
ATOM      7  C   UNL     1      46.282   4.025  13.208  0.00  0.00    +0.000 A 
ATOM      8  N   UNL     1      45.577   3.003  12.568  0.00  0.00    +0.000 N 
ATOM     18  N   UNL     1      46.725   3.720  14.450  0.00  0.00    +0.000 NA
ATOM     19  C   UNL     1      47.494   4.637  15.098  0.00  0.00    +0.000 A 
ATOM     22  H   UNL     1      45.422   2.279  13.267  0.00  0.00    +0.000 HD
ENDROOT
BRANCH   4   2
ATOM      1  N   UNL     1      48.159   8.001  15.684  0.00  0.00    +0.000 N 
ATOM      2  C   UNL     1      48.693   6.784  15.353  0.00  0.00    +0.000 C 
ATOM      3  O   UNL     1      49.813   6.463  15.719  0.00  0.00    +0.000 OA
ATOM     20  H   UNL     1      48.711   8.585  16.296  0.00  0.00    +0.000 HD
ATOM     21  H   UNL     1      47.170   8.201  15.610  0.00  0.00    +0.000 HD
ENDBRANCH   4   2
BRANCH   8   9
ATOM      9  C   UNL     1      44.521   3.189  11.561  0.00  0.00    +0.000 C 
ATOM     16  C   UNL     1      43.395   4.125  11.995  0.00  0.00    +0.000 C 
ATOM     17  C   UNL     1      43.095   2.689  11.735  0.00  0.00    +0.000 C 
BRANCH   9  10
ATOM     10  C   UNL     1      45.029   3.315  10.125  0.00  0.00    +0.000 A 
ATOM     11  C   UNL     1      45.323   4.570   9.566  0.00  0.00    +0.000 A 
ATOM     12  C   UNL     1      45.876   4.689   8.287  0.00  0.00    +0.000 A 
ATOM     13  C   UNL     1      46.136   3.550   7.532  0.00  0.00    +0.000 A 
ATOM     14  C   UNL     1      45.820   2.296   8.046  0.00  0.00    +0.000 A 
ATOM     15  C   UNL     1      45.263   2.184   9.321  0.00  0.00    +0.000 A 
ENDBRANCH   9  10
ENDBRANCH   8   9
TORSDOF 3
ENDMDL
MODEL 4
REMARK VINA RESULT:    -6.422      3.585      6.172
REMARK INTER + INTRA:          -8.166
REMARK INTER:                  -7.652
REMARK INTRA:                  -0.514
REMARK UNBOUND:                -0.618
REMARK  Name = 
REMARK  3 active torsions:
REMARK  status: ('A' for Active; 'I' for Inactive)
REMARK    1  A    between atoms: C_2  and  C_4
REMARK    2  A    between atoms: N_8  and  C_9
REMARK    3  A    between atoms: C_9  and  C_10
REMARK                            x       y       z     vdW  Elec       q    Type
REMARK                         _______ _______ _______ _____ _____    ______ ____
ROOT
ATOM      4  C   UNL     1      48.520   7.019  13.479  0.00  0.00    +0.000 A 
ATOM      5  C   UNL     1      47.742   5.938  13.891  0.00  0.00    +0.000 A 
ATOM      6  C   UNL     1      46.532   5.682  13.244  0.00  0.00    +0.000 A 
ATOM      7  C   UNL     1      46.115   6.501  12.206  0.00  0.00    +0.000 A 
ATOM      8  N   UNL     1      44.881   6.368  11.565  0.00  0.00    +0.000 N 
ATOM     18  N   UNL     1      46.855   7.559  11.804  0.00  0.00    +0.000 NA
ATOM     19  C   UNL     1      48.031   7.800  12.446  0.00  0.00    +0.000 A 
ATOM     22  H   UNL     1      44.879   7.044  10.803  0.00  0.00    +0.000 HD
ENDROOT
BRANCH   4   2
ATOM      1  N   UNL     1      50.820   7.777  13.290  0.00  0.00    +0.000 N 
ATOM      2  C   UNL     1      49.804   7.378  14.117  0.00  0.00    +0.000 C 
ATOM      3  O   UNL     1      49.946   7.349  15.329  0.00  0.00    +0.000 OA
ATOM     20  H   UNL     1      51.663   8.107  13.739  0.00  0.00    +0.000 HD
ATOM     21  H   UNL     1      50.667   8.042  12.326  0.00  0.00    +0.000 HD
ENDBRANCH   4   2
BRANCH   8   9
ATOM      9  C   UNL     1      44.165   5.105  11.332  0.00  0.00    +0.000 C 
ATOM     16  C   UNL     1      42.644   5.218  11.422  0.00  0.00    +0.000 C 
ATOM     17  C   UNL     1      43.377   4.374  12.408  0.00  0.00    +0.000 C 
BRANCH   9  10
ATOM     10  C   UNL     1      44.743   4.245  10.208  0.00  0.00    +0.000 A 
ATOM     11  C   UNL     1      44.570   2.850  10.196  0.00  0.00    +0.000 A 
ATOM     12  C   UNL     1      45.014   2.068   9.127  0.00  0.00    +0.000 A 
ATOM     13  C   UNL     1      45.655   2.665   8.046  0.00  0.00    +0.000 A 
ATOM     14  C   UNL     1      45.873   4.039   8.048  0.00  0.00    +0.000 A 
ATOM     15  C   UNL     1      45.432   4.815   9.122  0.00  0.00    +0.000 A 
ENDBRANCH   9  10
ENDBRANCH   8   9
TORSDOF 3
ENDMDL
MODEL 5
REMARK VINA RESULT:    -6.037      3.504      6.249
REMARK INTER + INTRA:          -7.714
REMARK INTER:                  -7.571
REMARK INTRA:                  -0.143
REMARK UNBOUND:                -0.618
REMARK  Name = 
REMARK  3 active torsions:
REMARK  status: ('A' for Active; 'I' for Inactive)
REMARK    1  A    between atoms: C_2  and  C_4
REMARK    2  A    between atoms: N_8  and  C_9
REMARK    3  A    between atoms: C_9  and  C_10
REMARK                            x       y       z     vdW  Elec       q    Type
REMARK                         _______ _______ _______ _____ _____    ______ ____
ROOT
ATOM      4  C   UNL     1      46.664   8.198  12.797  0.00  0.00    +0.000 A 
ATOM      5  C   UNL     1      46.820   6.886  13.241  0.00  0.00    +0.000 A 
ATOM      6  C   UNL     1      45.998   5.886  12.719  0.00  0.00    +0.000 A 
ATOM      7  C   UNL     1      45.038   6.205  11.770  0.00  0.00    +0.000 A 
ATOM      8  N   UNL     1      44.118   5.284  11.262  0.00  0.00    +0.000 N 
ATOM     18  N   UNL     1      44.869   7.476  11.339  0.00  0.00    +0.000 NA
ATOM     19  C   UNL     1      45.675   8.441  11.860  0.00  0.00    +0.000 A 
ATOM     22  H   UNL     1      43.595   5.771  10.536  0.00  0.00    +0.000 HD
ENDROOT
BRANCH   4   2
ATOM      1  N   UNL     1      47.205  10.566  12.800  0.00  0.00    +0.000 N 
ATOM      2  C   UNL     1      47.475   9.323  13.308  0.00  0.00    +0.000 C 
ATOM      3  O   UNL     1      48.328   9.160  14.166  0.00  0.00    +0.000 OA
ATOM     20  H   UNL     1      47.699  11.341  13.219  0.00  0.00    +0.000 HD
ATOM     21  H   UNL     1      46.361  10.773  12.282  0.00  0.00    +0.000 HD
ENDBRANCH   4   2
BRANCH   8   9
ATOM      9  C   UNL     1      44.366   3.850  11.050  0.00  0.00    +0.000 C 
ATOM     16  C   UNL     1      43.238   2.939  11.532  0.00  0.00    +0.000 C 
ATOM     17  C   UNL     1      44.576   2.857  12.182  0.00  0.00    +0.000 C 
BRANCH   9  10
ATOM     10  C   UNL     1      45.025   3.510   9.714  0.00  0.00    +0.000 A 
ATOM     11  C   UNL     1      45.466   4.521   8.842  0.00  0.00    +0.000 A 
ATOM     12  C   UNL     1      46.152   4.221   7.662  0.00  0.00    +0.000 A 
ATOM     13  C   UNL     1      46.403   2.896   7.320  0.00  0.00    +0.000 A 
ATOM     14  C   UNL     1      45.946   1.873   8.145  0.00  0.00    +0.000 A 
ATOM     15  C   UNL     1      45.256   2.179   9.320  0.00  0.00    +0.000 A 
ENDBRANCH   9  10
ENDBRANCH   8   9
TORSDOF 3
ENDMDL
MODEL 6
REMARK VINA RESULT:    -5.460      1.431      2.446
REMARK INTER + INTRA:          -7.036
REMARK INTER:                  -7.236
REMARK INTRA:                   0.201
REMARK UNBOUND:                -0.618
REMARK  Name = 
REMARK  3 active torsions:
REMARK  status: ('A' for Active; 'I' for Inactive)
REMARK    1  A    between atoms: C_2  and  C_4
REMARK    2  A    between atoms: N_8  and  C_9
REMARK    3  A    between atoms: C_9  and  C_10
REMARK                            x       y       z     vdW  Elec       q    Type
REMARK                         _______ _______ _______ _____ _____    ______ ____
ROOT
ATOM      4  C   UNL     1      46.360   3.250   7.405  0.00  0.00    +0.000 A 
ATOM      5  C   UNL     1      46.407   4.464   8.088  0.00  0.00    +0.000 A 
ATOM      6  C   UNL     1      45.567   4.664   9.185  0.00  0.00    +0.000 A 
ATOM      7  C   UNL     1      44.697   3.659   9.582  0.00  0.00    +0.000 A 
ATOM      8  N   UNL     1      43.764   3.807  10.611  0.00  0.00    +0.000 N 
ATOM     18  N   UNL     1      44.634   2.481   8.921  0.00  0.00    +0.000 NA
ATOM     19  C   UNL     1      45.456   2.302   7.851  0.00  0.00    +0.000 A 
ATOM     22  H   UNL     1      43.323   2.898  10.732  0.00  0.00    +0.000 HD
ENDROOT
BRANCH   4   2
ATOM      1  N   UNL     1      48.484   2.550   6.455  0.00  0.00    +0.000 N 
ATOM      2  C   UNL     1      47.197   2.958   6.222  0.00  0.00    +0.000 C 
ATOM      3  O   UNL     1      46.755   3.046   5.087  0.00  0.00    +0.000 OA
ATOM     20  H   UNL     1      49.019   2.266   5.648  0.00  0.00    +0.000 HD
ATOM     21  H   UNL     1      48.801   2.238   7.363  0.00  0.00    +0.000 HD
ENDBRANCH   4   2
BRANCH   8   9
ATOM      9  C   UNL     1      43.942   4.625  11.821  0.00  0.00    +0.000 C 
ATOM     16  C   UNL     1      44.830   3.986  12.886  0.00  0.00    +0.000 C 
ATOM     17  C   UNL     1      43.392   4.239  13.185  0.00  0.00    +0.000 C 
BRANCH   9  10
ATOM     10  C   UNL     1      44.122   6.119  11.556  0.00  0.00    +0.000 A 
ATOM     11  C   UNL     1      43.072   6.898  11.038  0.00  0.00    +0.000 A 
ATOM     12  C   UNL     1      43.197   8.281  10.880  0.00  0.00    +0.000 A 
ATOM     13  C   UNL     1      44.385   8.917  11.225  0.00  0.00    +0.000 A 
ATOM     14  C   UNL     1      45.454   8.166  11.705  0.00  0.00    +0.000 A 
ATOM     15  C   UNL     1      45.325   6.784  11.856  0.00  0.00    +0.000 A 
ENDBRANCH   9  10
ENDBRANCH   8   9
TORSDOF 3
ENDMDL
MODEL 7
REMARK VINA RESULT:    -5.365      3.156      5.107
REMARK INTER + INTRA:          -6.924
REMARK INTER:                  -6.975
REMARK INTRA:                   0.050
REMARK UNBOUND:                -0.618
REMARK  Name = 
REMARK  3 active torsions:
REMARK  status: ('A' for Active; 'I' for Inactive)
REMARK    1  A    between atoms: C_2  and  C_4
REMARK    2  A    between atoms: N_8  and  C_9
REMARK    3  A    between atoms: C_9  and  C_10
REMARK                            x       y       z     vdW  Elec       q    Type
REMARK                         _______ _______ _______ _____ _____    ______ ____
ROOT
ATOM      4  C   UNL     1      44.965   4.701  10.931  0.00  0.00    +0.000 A 
ATOM      5  C   UNL     1      45.819   5.734  10.548  0.00  0.00    +0.000 A 
ATOM      6  C   UNL     1      46.468   6.483  11.530  0.00  0.00    +0.000 A 
ATOM      7  C   UNL     1      46.258   6.197  12.871  0.00  0.00    +0.000 A 
ATOM      8  N   UNL     1      46.797   6.950  13.916  0.00  0.00    +0.000 N 
ATOM     18  N   UNL     1      45.424   5.204  13.256  0.00  0.00    +0.000 NA
ATOM     19  C   UNL     1      44.794   4.485  12.287  0.00  0.00    +0.000 A 
ATOM     22  H   UNL     1      46.545   6.469  14.778  0.00  0.00    +0.000 HD
ENDROOT
BRANCH   4   2
ATOM      1  N   UNL     1      44.127   4.342   8.680  0.00  0.00    +0.000 N 
ATOM      2  C   UNL     1      44.222   3.869   9.962  0.00  0.00    +0.000 C 
ATOM      3  O   UNL     1      43.738   2.794  10.279  0.00  0.00    +0.000 OA
ATOM     20  H   UNL     1      43.697   3.727   8.003  0.00  0.00    +0.000 HD
ATOM     21  H   UNL     1      44.709   5.091   8.330  0.00  0.00    +0.000 HD
ENDBRANCH   4   2
BRANCH   8   9
ATOM      9  C   UNL     1      48.098   7.637  13.898  0.00  0.00    +0.000 C 
ATOM     16  C   UNL     1      48.006   9.153  13.730  0.00  0.00    +0.000 C 
ATOM     17  C   UNL     1      48.663   8.336  12.672  0.00  0.00    +0.000 C 
BRANCH   9  10
ATOM     10  C   UNL     1      49.114   7.099  14.906  0.00  0.00    +0.000 A 
ATOM     11  C   UNL     1      50.467   7.474  14.845  0.00  0.00    +0.000 A 
ATOM     12  C   UNL     1      51.384   7.061  15.815  0.00  0.00    +0.000 A 
ATOM     13  C   UNL     1      50.968   6.250  16.867  0.00  0.00    +0.000 A 
ATOM     14  C   UNL     1      49.642   5.834  16.932  0.00  0.00    +0.000 A 
ATOM     15  C   UNL     1      48.732   6.245  15.956  0.00  0.00    +0.000 A 
ENDBRANCH   9  10
ENDBRANCH   8   9
TORSDOF 3
ENDMDL
MODEL 8
REMARK VINA RESULT:    -5.353      2.412      3.572
REMARK INTER + INTRA:          -6.910
REMARK INTER:                  -6.285
REMARK INTRA:                  -0.625
REMARK UNBOUND:                -0.618
REMARK  Name = 
REMARK  3 active torsions:
REMARK  status: ('A' for Active; 'I' for Inactive)
REMARK    1  A    between atoms: C_2  and  C_4
REMARK    2  A    between atoms: N_8  and  C_9
REMARK    3  A    between atoms: C_9  and  C_10
REMARK                            x       y       z     vdW  Elec       q    Type
REMARK                         _______ _______ _______ _____ _____    ______ ____
ROOT
ATOM      4  C   UNL     1      45.082   3.328   9.959  0.00  0.00    +0.000 A 
ATOM      5  C   UNL     1      45.289   4.590   9.403  0.00  0.00    +0.000 A 
ATOM      6  C   UNL     1      45.371   5.701  10.244  0.00  0.00    +0.000 A 
ATOM      7  C   UNL     1      45.243   5.542  11.616  0.00  0.00    +0.000 A 
ATOM      8  N   UNL     1      45.225   6.608  12.519  0.00  0.00    +0.000 N 
ATOM     18  N   UNL     1      45.031   4.325  12.167  0.00  0.00    +0.000 NA
ATOM     19  C   UNL     1      44.949   3.251  11.335  0.00  0.00    +0.000 A 
ATOM     22  H   UNL     1      45.200   6.196  13.450  0.00  0.00    +0.000 HD
ENDROOT
BRANCH   4   2
ATOM      1  N   UNL     1      46.044   1.752   8.382  0.00  0.00    +0.000 N 
ATOM      2  C   UNL     1      44.962   2.100   9.146  0.00  0.00    +0.000 C 
ATOM      3  O   UNL     1      43.956   1.408   9.176  0.00  0.00    +0.000 OA
ATOM     20  H   UNL     1      45.989   0.865   7.901  0.00  0.00    +0.000 HD
ATOM     21  H   UNL     1      46.961   2.157   8.517  0.00  0.00    +0.000 HD
ENDBRANCH   4   2
BRANCH   8   9
ATOM      9  C   UNL     1      45.966   7.871  12.373  0.00  0.00    +0.000 C 
ATOM     16  C   UNL     1      45.255   9.088  12.960  0.00  0.00    +0.000 C 
ATOM     17  C   UNL     1      45.504   9.020  11.492  0.00  0.00    +0.000 C 
BRANCH   9  10
ATOM     10  C   UNL     1      47.472   7.753  12.608  0.00  0.00    +0.000 A 
ATOM     11  C   UNL     1      48.395   8.251  11.672  0.00  0.00    +0.000 A 
ATOM     12  C   UNL     1      49.770   8.231  11.920  0.00  0.00    +0.000 A 
ATOM     13  C   UNL     1      50.256   7.699  13.110  0.00  0.00    +0.000 A 
ATOM     14  C   UNL     1      49.368   7.164  14.038  0.00  0.00    +0.000 A 
ATOM     15  C   UNL     1      47.995   7.182  13.782  0.00  0.00    +0.000 A 
ENDBRANCH   9  10
ENDBRANCH   8   9
TORSDOF 3
ENDMDL
MODEL 9
REMARK VINA RESULT:    -5.347      3.411      5.449
REMARK INTER + INTRA:          -6.903
REMARK INTER:                  -7.170
REMARK INTRA:                   0.267
REMARK UNBOUND:                -0.618
REMARK  Name = 
REMARK  3 active torsions:
REMARK  status: ('A' for Active; 'I' for Inactive)
REMARK    1  A    between atoms: C_2  and  C_4
REMARK    2  A    between atoms: N_8  and  C_9
REMARK    3  A    between atoms: C_9  and  C_10
REMARK                            x       y       z     vdW  Elec       q    Type
REMARK                         _______ _______ _______ _____ _____    ______ ____
ROOT
ATOM      4  C   UNL     1      44.793   4.022  11.529  0.00  0.00    +0.000 A 
ATOM      5  C   UNL     1      45.307   5.078  10.778  0.00  0.00    +0.000 A 
ATOM      6  C   UNL     1      46.005   6.100  11.426  0.00  0.00    +0.000 A 
ATOM      7  C   UNL     1      46.177   6.056  12.801  0.00  0.00    +0.000 A 
ATOM      8  N   UNL     1      46.784   7.077  13.536  0.00  0.00    +0.000 N 
ATOM     18  N   UNL     1      45.674   5.043  13.542  0.00  0.00    +0.000 NA
ATOM     19  C   UNL     1      44.993   4.056  12.898  0.00  0.00    +0.000 A 
ATOM     22  H   UNL     1      46.843   6.745  14.497  0.00  0.00    +0.000 HD
ENDROOT
BRANCH   4   2
ATOM      1  N   UNL     1      44.553   2.318   9.815  0.00  0.00    +0.000 N 
ATOM      2  C   UNL     1      44.026   2.909  10.932  0.00  0.00    +0.000 C 
ATOM      3  O   UNL     1      42.984   2.511  11.429  0.00  0.00    +0.000 OA
ATOM     20  H   UNL     1      44.071   1.501   9.467  0.00  0.00    +0.000 HD
ATOM     21  H   UNL     1      45.512   2.456   9.525  0.00  0.00    +0.000 HD
ENDBRANCH   4   2
BRANCH   8   9
ATOM      9  C   UNL     1      47.878   7.941  13.067  0.00  0.00    +0.000 C 
ATOM     16  C   UNL     1      49.051   7.187  12.443  0.00  0.00    +0.000 C 
ATOM     17  C   UNL     1      49.262   7.965  13.697  0.00  0.00    +0.000 C 
BRANCH   9  10
ATOM     10  C   UNL     1      47.420   9.227  12.379  0.00  0.00    +0.000 A 
ATOM     11  C   UNL     1      48.336  10.067  11.722  0.00  0.00    +0.000 A 
ATOM     12  C   UNL     1      47.915  11.195  11.012  0.00  0.00    +0.000 A 
ATOM     13  C   UNL     1      46.562  11.516  10.953  0.00  0.00    +0.000 A 
ATOM     14  C   UNL     1      45.637  10.724  11.625  0.00  0.00    +0.000 A 
ATOM     15  C   UNL     1      46.064   9.601  12.337  0.00  0.00    +0.000 A 
ENDBRANCH   9  10
ENDBRANCH   8   9
TORSDOF 3
ENDMDL
