MODEL 1
REMARK VINA RESULT:    -7.068      0.000      0.000
REMARK INTER + INTRA:          -9.061
REMARK INTER:                  -9.134
REMARK INTRA:                   0.073
REMARK UNBOUND:                 0.073
REMARK  Name = 
REMARK  7 active torsions:
REMARK  status: ('A' for Active; 'I' for Inactive)
REMARK    1  A    between atoms: C_1  and  N_2
REMARK    2  A    between atoms: C_5  and  N_6
REMARK    3  A    between atoms: N_6  and  C_7
REMARK    4  A    between atoms: C_8  and  C_10
REMARK    5  A    between atoms: C_10  and  N_11
REMARK    6  A    between atoms: C_12  and  C_13
REMARK    7  A    between atoms: C_19  and  C_20
REMARK                            x       y       z     vdW  Elec       q    Type
REMARK                         _______ _______ _______ _____ _____    ______ ____
ROOT
ATOM     11  N   UNL     1      44.879   4.940  10.247  0.00  0.00    +0.000 N 
ATOM     12  C   UNL     1      43.991   4.019  10.776  0.00  0.00    +0.000 A 
ATOM     16  C   UNL     1      44.113   2.864  10.028  0.00  0.00    +0.000 A 
ATOM     17  C   UNL     1      45.090   3.066   9.030  0.00  0.00    +0.000 A 
ATOM     18  C   UNL     1      45.631   2.293   7.995  0.00  0.00    +0.000 A 
ATOM     19  C   UNL     1      46.617   2.872   7.190  0.00  0.00    +0.000 A 
ATOM     23  C   UNL     1      47.027   4.167   7.462  0.00  0.00    +0.000 A 
ATOM     24  N   UNL     1      46.534   4.940   8.458  0.00  0.00    +0.000 NA
ATOM     25  C   UNL     1      45.565   4.363   9.198  0.00  0.00    +0.000 A 
ENDROOT
BRANCH  19  20
ATOM     20  C   UNL     1      47.258   2.146   6.071  0.00  0.00    +0.000 C 
ATOM     21  N   UNL     1      47.935   2.892   5.142  0.00  0.00    +0.000 N 
ATOM     22  O   UNL     1      47.207   0.926   5.986  0.00  0.00    +0.000 OA
ATOM     28  H   UNL     1      48.172   3.863   5.287  0.00  0.00    +0.000 HD
ATOM     29  H   UNL     1      48.434   2.384   4.427  0.00  0.00    +0.000 HD
ENDBRANCH  19  20
BRANCH  12  13
ATOM     13  C   UNL     1      42.970   4.066  11.910  0.00  0.00    +0.000 C 
ATOM     14  C   UNL     1      42.590   5.362  12.581  0.00  0.00    +0.000 C 
ATOM     15  C   UNL     1      43.351   4.332  13.346  0.00  0.00    +0.000 C 
ENDBRANCH  12  13
BRANCH  11  10
ATOM     10  C   UNL     1      45.038   6.318  10.703  0.00  0.00    +0.000 C 
BRANCH  10   8
ATOM      6  N   UNL     1      46.301   7.834  12.262  0.00  0.00    +0.000 N 
ATOM      7  C   UNL     1      45.463   8.928  11.761  0.00  0.00    +0.000 C 
ATOM      8  C   UNL     1      46.031   6.519  11.831  0.00  0.00    +0.000 C 
ATOM      9  O   UNL     1      46.595   5.515  12.274  0.00  0.00    +0.000 OA
BRANCH   6   5
ATOM      1  C   UNL     1      50.598   9.018  11.314  0.00  0.00    +0.000 C 
ATOM      2  N   UNL     1      49.751   8.820  12.492  0.00  0.00    +0.000 NA
ATOM      3  C   UNL     1      48.611   9.745  12.448  0.00  0.00    +0.000 C 
ATOM      4  C   UNL     1      47.645   9.501  13.611  0.00  0.00    +0.000 C 
ATOM      5  C   UNL     1      47.091   8.066  13.521  0.00  0.00    +0.000 C 
ATOM     26  C   UNL     1      48.335   7.174  13.707  0.00  0.00    +0.000 C 
ATOM     27  C   UNL     1      49.332   7.408  12.571  0.00  0.00    +0.000 C 
ENDBRANCH   6   5
ENDBRANCH  10   8
ENDBRANCH  11  10
TORSDOF 5
ENDMDL
MODEL 2
REMARK VINA RESULT:    -6.553      3.660      8.659
REMARK INTER + INTRA:          -8.396
REMARK INTER:                  -8.182
REMARK INTRA:                  -0.214
REMARK UNBOUND:                 0.073
REMARK  Name = 
REMARK  7 active torsions:
REMARK  status: ('A' for Active; 'I' for Inactive)
REMARK    1  A    between atoms: C_1  and  N_2
REMARK    2  A    between atoms: C_5  and  N_6
REMARK    3  A    between atoms: N_6  and  C_7
REMARK    4  A    between atoms: C_8  and  C_10
REMARK    5  A    between atoms: C_10  and  N_11
REMARK    6  A    between atoms: C_12  and  C_13
REMARK    7  A    between atoms: C_19  and  C_20
REMARK                            x       y       z     vdW  Elec       q    Type
REMARK                         _______ _______ _______ _____ _____    ______ ____
ROOT
ATOM     11  N   UNL     1      48.613   6.855  14.509  0.00  0.00    +0.000 N 
ATOM     12  C   UNL     1      49.110   8.140  14.649  0.00  0.00    +0.000 A 
ATOM     16  C   UNL     1      49.321   8.347  15.999  0.00  0.00    +0.000 A 
ATOM     17  C   UNL     1      48.960   7.179  16.703  0.00  0.00    +0.000 A 
ATOM     18  C   UNL     1      48.942   6.793  18.049  0.00  0.00    +0.000 A 
ATOM     19  C   UNL     1      48.498   5.503  18.356  0.00  0.00    +0.000 A 
ATOM     23  C   UNL     1      48.119   4.662  17.322  0.00  0.00    +0.000 A 
ATOM     24  N   UNL     1      48.132   4.997  16.010  0.00  0.00    +0.000 NA
ATOM     25  C   UNL     1      48.538   6.257  15.750  0.00  0.00    +0.000 A 
ENDROOT
BRANCH  19  20
ATOM     20  C   UNL     1      48.440   4.990  19.743  0.00  0.00    +0.000 C 
ATOM     21  N   UNL     1      48.524   3.634  19.918  0.00  0.00    +0.000 N 
ATOM     22  O   UNL     1      48.342   5.746  20.702  0.00  0.00    +0.000 OA
ATOM     28  H   UNL     1      48.810   3.004  19.182  0.00  0.00    +0.000 HD
ATOM     29  H   UNL     1      48.563   3.299  20.870  0.00  0.00    +0.000 HD
ENDBRANCH  19  20
BRANCH  12  13
ATOM     13  C   UNL     1      49.400   9.274  13.668  0.00  0.00    +0.000 C 
ATOM     14  C   UNL     1      49.412  10.717  14.106  0.00  0.00    +0.000 C 
ATOM     15  C   UNL     1      48.339  10.234  13.188  0.00  0.00    +0.000 C 
ENDBRANCH  12  13
BRANCH  11  10
ATOM     10  C   UNL     1      48.200   6.242  13.249  0.00  0.00    +0.000 C 
BRANCH  10   8
ATOM      6  N   UNL     1      45.929   5.236  12.859  0.00  0.00    +0.000 N 
ATOM      7  C   UNL     1      46.483   3.972  13.355  0.00  0.00    +0.000 C 
ATOM      8  C   UNL     1      46.732   6.394  12.903  0.00  0.00    +0.000 C 
ATOM      9  O   UNL     1      46.332   7.526  12.620  0.00  0.00    +0.000 OA
BRANCH   6   5
ATOM      1  C   UNL     1      44.285   2.573   9.546  0.00  0.00    +0.000 C 
ATOM      2  N   UNL     1      43.777   3.501  10.559  0.00  0.00    +0.000 NA
ATOM      3  C   UNL     1      44.138   3.023  11.900  0.00  0.00    +0.000 C 
ATOM      4  C   UNL     1      43.714   4.018  12.984  0.00  0.00    +0.000 C 
ATOM      5  C   UNL     1      44.434   5.361  12.753  0.00  0.00    +0.000 C 
ATOM     26  C   UNL     1      43.895   5.843  11.390  0.00  0.00    +0.000 C 
ATOM     27  C   UNL     1      44.285   4.859  10.286  0.00  0.00    +0.000 C 
ENDBRANCH   6   5
ENDBRANCH  10   8
ENDBRANCH  11  10
TORSDOF 5
ENDMDL
MODEL 3
REMARK VINA RESULT:    -6.421      3.673      6.328
REMARK INTER + INTRA:          -8.225
REMARK INTER:                  -8.428
REMARK INTRA:                   0.203
REMARK UNBOUND:                 0.073
REMARK  Name = 
REMARK  7 active torsions:
REMARK  status: ('A' for Active; 'I' for Inactive)
REMARK    1  A    between atoms: C_1  and  N_2
REMARK    2  A    between atoms: C_5  and  N_6
REMARK    3  A    between atoms: N_6  and  C_7
REMARK    4  A    between atoms: C_8  and  C_10
REMARK    5  A    between atoms: C_10  and  N_11
REMARK    6  A    between atoms: C_12  and  C_13
REMARK    7  A    between atoms: C_19  and  C_20
REMARK                            x       y       z     vdW  Elec       q    Type
REMARK                         _______ _______ _______ _____ _____    ______ ____
ROOT
ATOM     11  N   UNL     1      46.097   5.768  12.288  0.00  0.00    +0.000 N 
ATOM     12  C   UNL     1      45.211   4.908  11.660  0.00  0.00    +0.000 A 
ATOM     16  C   UNL     1      44.212   5.688  11.110  0.00  0.00    +0.000 A 
ATOM     17  C   UNL     1      44.483   7.044  11.391  0.00  0.00    +0.000 A 
ATOM     18  C   UNL     1      43.852   8.264  11.115  0.00  0.00    +0.000 A 
ATOM     19  C   UNL     1      44.455   9.435  11.583  0.00  0.00    +0.000 A 
ATOM     23  C   UNL     1      45.652   9.341  12.276  0.00  0.00    +0.000 A 
ATOM     24  N   UNL     1      46.295   8.182  12.553  0.00  0.00    +0.000 NA
ATOM     25  C   UNL     1      45.673   7.069  12.112  0.00  0.00    +0.000 A 
ENDROOT
BRANCH  19  20
ATOM     20  C   UNL     1      43.878  10.777  11.348  0.00  0.00    +0.000 C 
ATOM     21  N   UNL     1      42.852  11.174  12.165  0.00  0.00    +0.000 N 
ATOM     22  O   UNL     1      44.310  11.516  10.472  0.00  0.00    +0.000 OA
ATOM     28  H   UNL     1      42.611  10.688  13.016  0.00  0.00    +0.000 HD
ATOM     29  H   UNL     1      42.517  12.119  12.048  0.00  0.00    +0.000 HD
ENDBRANCH  19  20
BRANCH  12  13
ATOM     13  C   UNL     1      45.133   3.390  11.518  0.00  0.00    +0.000 C 
ATOM     14  C   UNL     1      44.142   2.731  10.592  0.00  0.00    +0.000 C 
ATOM     15  C   UNL     1      43.989   2.573  12.067  0.00  0.00    +0.000 C 
ENDBRANCH  12  13
BRANCH  11  10
ATOM     10  C   UNL     1      47.275   5.359  13.048  0.00  0.00    +0.000 C 
BRANCH  10   8
ATOM      6  N   UNL     1      47.845   5.221  15.493  0.00  0.00    +0.000 N 
ATOM      7  C   UNL     1      48.816   6.294  15.253  0.00  0.00    +0.000 C 
ATOM      8  C   UNL     1      46.999   4.823  14.439  0.00  0.00    +0.000 C 
ATOM      9  O   UNL     1      46.074   4.015  14.560  0.00  0.00    +0.000 OA
BRANCH   6   5
ATOM      1  C   UNL     1      50.794   2.287  17.354  0.00  0.00    +0.000 C 
ATOM      2  N   UNL     1      49.598   3.035  17.747  0.00  0.00    +0.000 NA
ATOM      3  C   UNL     1      49.844   4.477  17.609  0.00  0.00    +0.000 C 
ATOM      4  C   UNL     1      48.585   5.293  17.912  0.00  0.00    +0.000 C 
ATOM      5  C   UNL     1      47.474   4.906  16.916  0.00  0.00    +0.000 C 
ATOM     26  C   UNL     1      47.196   3.421  17.225  0.00  0.00    +0.000 C 
ATOM     27  C   UNL     1      48.443   2.579  16.951  0.00  0.00    +0.000 C 
ENDBRANCH   6   5
ENDBRANCH  10   8
ENDBRANCH  11  10
TORSDOF 5
ENDMDL
MODEL 4
REMARK VINA RESULT:    -6.109      3.998      6.042
REMARK INTER + INTRA:          -7.822
REMARK INTER:                  -7.317
REMARK INTRA:                  -0.505
REMARK UNBOUND:                 0.073
REMARK  Name = 
REMARK  7 active torsions:
REMARK  status: ('A' for Active; 'I' for Inactive)
REMARK    1  A    between atoms: C_1  and  N_2
REMARK    2  A    between atoms: C_5  and  N_6
REMARK    3  A    between atoms: N_6  and  C_7
REMARK    4  A    between atoms: C_8  and  C_10
REMARK    5  A    between atoms: C_10  and  N_11
REMARK    6  A    between atoms: C_12  and  C_13
REMARK    7  A    between atoms: C_19  and  C_20
REMARK                            x       y       z     vdW  Elec       q    Type
REMARK                         _______ _______ _______ _____ _____    ______ ____
ROOT
ATOM     11  N   UNL     1      48.017   5.989  14.360  0.00  0.00    +0.000 N 
ATOM     12  C   UNL     1      47.716   5.030  15.313  0.00  0.00    +0.000 A 
ATOM     16  C   UNL     1      46.647   4.301  14.828  0.00  0.00    +0.000 A 
ATOM     17  C   UNL     1      46.287   4.805  13.560  0.00  0.00    +0.000 A 
ATOM     18  C   UNL     1      45.308   4.497  12.607  0.00  0.00    +0.000 A 
ATOM     19  C   UNL     1      45.272   5.256  11.433  0.00  0.00    +0.000 A 
ATOM     23  C   UNL     1      46.213   6.258  11.256  0.00  0.00    +0.000 A 
ATOM     24  N   UNL     1      47.178   6.578  12.150  0.00  0.00    +0.000 NA
ATOM     25  C   UNL     1      47.167   5.846  13.283  0.00  0.00    +0.000 A 
ENDROOT
BRANCH  19  20
ATOM     20  C   UNL     1      44.283   5.015  10.359  0.00  0.00    +0.000 C 
ATOM     21  N   UNL     1      44.765   4.664   9.126  0.00  0.00    +0.000 N 
ATOM     22  O   UNL     1      43.079   5.105  10.566  0.00  0.00    +0.000 OA
ATOM     28  H   UNL     1      45.722   4.381   8.972  0.00  0.00    +0.000 HD
ATOM     29  H   UNL     1      44.081   4.426   8.421  0.00  0.00    +0.000 HD
ENDBRANCH  19  20
BRANCH  12  13
ATOM     13  C   UNL     1      48.279   4.696  16.692  0.00  0.00    +0.000 C 
ATOM     14  C   UNL     1      47.564   3.762  17.635  0.00  0.00    +0.000 C 
ATOM     15  C   UNL     1      47.669   5.211  17.973  0.00  0.00    +0.000 C 
ENDBRANCH  12  13
BRANCH  11  10
ATOM     10  C   UNL     1      49.050   7.013  14.491  0.00  0.00    +0.000 C 
BRANCH  10   8
ATOM      6  N   UNL     1      49.403   8.367  16.581  0.00  0.00    +0.000 N 
ATOM      7  C   UNL     1      50.593   7.546  16.825  0.00  0.00    +0.000 C 
ATOM      8  C   UNL     1      48.691   8.190  15.377  0.00  0.00    +0.000 C 
ATOM      9  O   UNL     1      47.747   8.899  15.019  0.00  0.00    +0.000 OA
BRANCH   6   5
ATOM      1  C   UNL     1      47.939   7.511  20.810  0.00  0.00    +0.000 C 
ATOM      2  N   UNL     1      48.325   8.667  19.998  0.00  0.00    +0.000 NA
ATOM      3  C   UNL     1      49.722   8.527  19.563  0.00  0.00    +0.000 C 
ATOM      4  C   UNL     1      50.135   9.664  18.626  0.00  0.00    +0.000 C 
ATOM      5  C   UNL     1      49.244   9.638  17.368  0.00  0.00    +0.000 C 
ATOM     26  C   UNL     1      47.828   9.922  17.908  0.00  0.00    +0.000 C 
ATOM     27  C   UNL     1      47.392   8.812  18.866  0.00  0.00    +0.000 C 
ENDBRANCH   6   5
ENDBRANCH  10   8
ENDBRANCH  11  10
TORSDOF 5
ENDMDL
MODEL 5
REMARK VINA RESULT:    -6.085      4.080      6.569
REMARK INTER + INTRA:          -7.791
REMARK INTER:                  -7.765
REMARK INTRA:                  -0.025
REMARK UNBOUND:                 0.073
REMARK  Name = 
REMARK  7 active torsions:
REMARK  status: ('A' for Active; 'I' for Inactive)
REMARK    1  A    between atoms: C_1  and  N_2
REMARK    2  A    between atoms: C_5  and  N_6
REMARK    3  A    between atoms: N_6  and  C_7
REMARK    4  A    between atoms: C_8  and  C_10
REMARK    5  A    between atoms: C_10  and  N_11
REMARK    6  A    between atoms: C_12  and  C_13
REMARK    7  A    between atoms: C_19  and  C_20
REMARK                            x       y       z     vdW  Elec       q    Type
REMARK                         _______ _______ _______ _____ _____    ______ ____
ROOT
ATOM     11  N   UNL     1      46.557   5.395  13.662  0.00  0.00    +0.000 N 
ATOM     12  C   UNL     1      45.785   5.348  12.514  0.00  0.00    +0.000 A 
ATOM     16  C   UNL     1      46.413   6.140  11.571  0.00  0.00    +0.000 A 
ATOM     17  C   UNL     1      47.590   6.676  12.136  0.00  0.00    +0.000 A 
ATOM     18  C   UNL     1      48.607   7.530  11.693  0.00  0.00    +0.000 A 
ATOM     19  C   UNL     1      49.641   7.838  12.583  0.00  0.00    +0.000 A 
ATOM     23  C   UNL     1      49.624   7.273  13.849  0.00  0.00    +0.000 A 
ATOM     24  N   UNL     1      48.663   6.437  14.309  0.00  0.00    +0.000 NA
ATOM     25  C   UNL     1      47.666   6.183  13.435  0.00  0.00    +0.000 A 
ENDROOT
BRANCH  19  20
ATOM     20  C   UNL     1      50.767   8.727  12.220  0.00  0.00    +0.000 C 
ATOM     21  N   UNL     1      51.990   8.145  12.022  0.00  0.00    +0.000 N 
ATOM     22  O   UNL     1      50.610   9.934  12.079  0.00  0.00    +0.000 OA
ATOM     28  H   UNL     1      52.113   7.147  11.926  0.00  0.00    +0.000 HD
ATOM     29  H   UNL     1      52.734   8.747  11.699  0.00  0.00    +0.000 HD
ENDBRANCH  19  20
BRANCH  12  13
ATOM     13  C   UNL     1      44.465   4.670  12.155  0.00  0.00    +0.000 C 
ATOM     14  C   UNL     1      43.474   5.312  11.217  0.00  0.00    +0.000 C 
ATOM     15  C   UNL     1      43.129   5.159  12.660  0.00  0.00    +0.000 C 
ENDBRANCH  12  13
BRANCH  11  10
ATOM     10  C   UNL     1      46.230   4.741  14.927  0.00  0.00    +0.000 C 
BRANCH  10   8
ATOM      6  N   UNL     1      47.760   4.023  16.788  0.00  0.00    +0.000 N 
ATOM      7  C   UNL     1      47.052   4.981  17.643  0.00  0.00    +0.000 C 
ATOM      8  C   UNL     1      47.296   3.813  15.474  0.00  0.00    +0.000 C 
ATOM      9  O   UNL     1      47.743   2.953  14.710  0.00  0.00    +0.000 OA
BRANCH   6   5
ATOM      1  C   UNL     1      51.033   6.001  19.268  0.00  0.00    +0.000 C 
ATOM      2  N   UNL     1      50.569   4.650  18.945  0.00  0.00    +0.000 NA
ATOM      3  C   UNL     1      49.181   4.479  19.396  0.00  0.00    +0.000 C 
ATOM      4  C   UNL     1      48.622   3.113  18.987  0.00  0.00    +0.000 C 
ATOM      5  C   UNL     1      48.637   2.995  17.450  0.00  0.00    +0.000 C 
ATOM     26  C   UNL     1      50.135   3.055  17.086  0.00  0.00    +0.000 C 
ATOM     27  C   UNL     1      50.730   4.401  17.500  0.00  0.00    +0.000 C 
ENDBRANCH   6   5
ENDBRANCH  10   8
ENDBRANCH  11  10
TORSDOF 5
ENDMDL
MODEL 6
REMARK VINA RESULT:    -6.065      4.408      6.546
REMARK INTER + INTRA:          -7.765
REMARK INTER:                  -7.811
REMARK INTRA:                   0.046
REMARK UNBOUND:                 0.073
REMARK  Name = 
REMARK  7 active torsions:
REMARK  status: ('A' for Active; 'I' for Inactive)
REMARK    1  A    between atoms: C_1  and  N_2
REMARK    2  A    between atoms: C_5  and  N_6
REMARK    3  A    between atoms: N_6  and  C_7
REMARK    4  A    between atoms: C_8  and  C_10
REMARK    5  A    between atoms: C_10  and  N_11
REMARK    6  A    between atoms: C_12  and  C_13
REMARK    7  A    between atoms: C_19  and  C_20
REMARK                            x       y       z     vdW  Elec       q    Type
REMARK                         _______ _______ _______ _____ _____    ______ ____
ROOT
ATOM     11  N   UNL     1      47.613   4.889  14.809  0.00  0.00    +0.000 N 
ATOM     12  C   UNL     1      47.966   6.226  14.729  0.00  0.00    +0.000 A 
ATOM     16  C   UNL     1      47.325   6.748  13.622  0.00  0.00    +0.000 A 
ATOM     17  C   UNL     1      46.560   5.730  13.014  0.00  0.00    +0.000 A 
ATOM     18  C   UNL     1      45.728   5.646  11.891  0.00  0.00    +0.000 A 
ATOM     19  C   UNL     1      45.130   4.414  11.607  0.00  0.00    +0.000 A 
ATOM     23  C   UNL     1      45.369   3.344  12.455  0.00  0.00    +0.000 A 
ATOM     24  N   UNL     1      46.159   3.390  13.553  0.00  0.00    +0.000 NA
ATOM     25  C   UNL     1      46.743   4.584  13.783  0.00  0.00    +0.000 A 
ENDROOT
BRANCH  19  20
ATOM     20  C   UNL     1      44.231   4.213  10.449  0.00  0.00    +0.000 C 
ATOM     21  N   UNL     1      44.534   4.883   9.293  0.00  0.00    +0.000 N 
ATOM     22  O   UNL     1      43.266   3.461  10.510  0.00  0.00    +0.000 OA
ATOM     28  H   UNL     1      45.421   5.340   9.141  0.00  0.00    +0.000 HD
ATOM     29  H   UNL     1      43.961   4.680   8.486  0.00  0.00    +0.000 HD
ENDBRANCH  19  20
BRANCH  12  13
ATOM     13  C   UNL     1      48.885   7.127  15.550  0.00  0.00    +0.000 C 
ATOM     14  C   UNL     1      49.670   8.248  14.916  0.00  0.00    +0.000 C 
ATOM     15  C   UNL     1      50.390   7.061  15.462  0.00  0.00    +0.000 C 
ENDBRANCH  12  13
BRANCH  11  10
ATOM     10  C   UNL     1      48.112   3.942  15.803  0.00  0.00    +0.000 C 
BRANCH  10   8
ATOM      6  N   UNL     1      48.698   4.263  18.226  0.00  0.00    +0.000 N 
ATOM      7  C   UNL     1      50.104   4.249  17.814  0.00  0.00    +0.000 C 
ATOM      8  C   UNL     1      47.698   4.222  17.234  0.00  0.00    +0.000 C 
ATOM      9  O   UNL     1      46.491   4.343  17.460  0.00  0.00    +0.000 OA
BRANCH   6   5
ATOM      1  C   UNL     1      50.562   8.353  18.978  0.00  0.00    +0.000 C 
ATOM      2  N   UNL     1      49.712   7.391  19.683  0.00  0.00    +0.000 NA
ATOM      3  C   UNL     1      48.471   7.175  18.927  0.00  0.00    +0.000 C 
ATOM      4  C   UNL     1      47.597   6.099  19.576  0.00  0.00    +0.000 C 
ATOM      5  C   UNL     1      48.368   4.765  19.605  0.00  0.00    +0.000 C 
ATOM     26  C   UNL     1      49.575   5.052  20.522  0.00  0.00    +0.000 C 
ATOM     27  C   UNL     1      50.460   6.140  19.911  0.00  0.00    +0.000 C 
ENDBRANCH   6   5
ENDBRANCH  10   8
ENDBRANCH  11  10
TORSDOF 5
ENDMDL
MODEL 7
REMARK VINA RESULT:    -6.031      3.961      6.705
REMARK INTER + INTRA:          -7.721
REMARK INTER:                  -7.573
REMARK INTRA:                  -0.148
REMARK UNBOUND:                 0.073
REMARK  Name = 
REMARK  7 active torsions:
REMARK  status: ('A' for Active; 'I' for Inactive)
REMARK    1  A    between atoms: C_1  and  N_2
REMARK    2  A    between atoms: C_5  and  N_6
REMARK    3  A    between atoms: N_6  and  C_7
REMARK    4  A    between atoms: C_8  and  C_10
REMARK    5  A    between atoms: C_10  and  N_11
REMARK    6  A    between atoms: C_12  and  C_13
REMARK    7  A    between atoms: C_19  and  C_20
REMARK                            x       y       z     vdW  Elec       q    Type
REMARK                         _______ _______ _______ _____ _____    ______ ____
ROOT
ATOM     11  N   UNL     1      48.343   7.192  13.587  0.00  0.00    +0.000 N 
ATOM     12  C   UNL     1      47.985   8.266  12.790  0.00  0.00    +0.000 A 
ATOM     16  C   UNL     1      46.904   7.862  12.029  0.00  0.00    +0.000 A 
ATOM     17  C   UNL     1      46.583   6.529  12.362  0.00  0.00    +0.000 A 
ATOM     18  C   UNL     1      45.625   5.600  11.938  0.00  0.00    +0.000 A 
ATOM     19  C   UNL     1      45.632   4.332  12.530  0.00  0.00    +0.000 A 
ATOM     23  C   UNL     1      46.566   4.061  13.517  0.00  0.00    +0.000 A 
ATOM     24  N   UNL     1      47.500   4.936  13.959  0.00  0.00    +0.000 NA
ATOM     25  C   UNL     1      47.485   6.139  13.348  0.00  0.00    +0.000 A 
ENDROOT
BRANCH  19  20
ATOM     20  C   UNL     1      44.665   3.276  12.159  0.00  0.00    +0.000 C 
ATOM     21  N   UNL     1      44.820   2.681  10.935  0.00  0.00    +0.000 N 
ATOM     22  O   UNL     1      43.773   2.928  12.923  0.00  0.00    +0.000 OA
ATOM     28  H   UNL     1      45.652   2.791  10.374  0.00  0.00    +0.000 HD
ATOM     29  H   UNL     1      44.204   1.908  10.724  0.00  0.00    +0.000 HD
ENDBRANCH  19  20
BRANCH  12  13
ATOM     13  C   UNL     1      48.547   9.672  12.596  0.00  0.00    +0.000 C 
ATOM     14  C   UNL     1      48.330  10.443  11.318  0.00  0.00    +0.000 C 
ATOM     15  C   UNL     1      49.701   9.972  11.670  0.00  0.00    +0.000 C 
ENDBRANCH  12  13
BRANCH  11  10
ATOM     10  C   UNL     1      49.475   7.165  14.510  0.00  0.00    +0.000 C 
BRANCH  10   8
ATOM      6  N   UNL     1      49.981   7.276  16.970  0.00  0.00    +0.000 N 
ATOM      7  C   UNL     1      51.149   6.433  16.695  0.00  0.00    +0.000 C 
ATOM      8  C   UNL     1      49.205   7.738  15.887  0.00  0.00    +0.000 C 
ATOM      9  O   UNL     1      48.274   8.540  15.993  0.00  0.00    +0.000 OA
BRANCH   6   5
ATOM      1  C   UNL     1      48.712   4.412  20.280  0.00  0.00    +0.000 C 
ATOM      2  N   UNL     1      49.096   5.818  20.136  0.00  0.00    +0.000 NA
ATOM      3  C   UNL     1      50.462   5.909  19.601  0.00  0.00    +0.000 C 
ATOM      4  C   UNL     1      50.866   7.362  19.339  0.00  0.00    +0.000 C 
ATOM      5  C   UNL     1      49.910   7.978  18.299  0.00  0.00    +0.000 C 
ATOM     26  C   UNL     1      48.535   7.957  18.997  0.00  0.00    +0.000 C 
ATOM     27  C   UNL     1      48.110   6.518  19.292  0.00  0.00    +0.000 C 
ENDBRANCH   6   5
ENDBRANCH  10   8
ENDBRANCH  11  10
TORSDOF 5
ENDMDL
MODEL 8
REMARK VINA RESULT:    -5.826      3.665      8.680
REMARK INTER + INTRA:          -7.455
REMARK INTER:                  -7.289
REMARK INTRA:                  -0.166
REMARK UNBOUND:                 0.073
REMARK  Name = 
REMARK  7 active torsions:
REMARK  status: ('A' for Active; 'I' for Inactive)
REMARK    1  A    between atoms: C_1  and  N_2
REMARK    2  A    between atoms: C_5  and  N_6
REMARK    3  A    between atoms: N_6  and  C_7
REMARK    4  A    between atoms: C_8  and  C_10
REMARK    5  A    between atoms: C_10  and  N_11
REMARK    6  A    between atoms: C_12  and  C_13
REMARK    7  A    between atoms: C_19  and  C_20
REMARK                            x       y       z     vdW  Elec       q    Type
REMARK                         _______ _______ _______ _____ _____    ______ ____
ROOT
ATOM     11  N   UNL     1      48.378   6.262  15.176  0.00  0.00    +0.000 N 
ATOM     12  C   UNL     1      48.109   5.515  16.310  0.00  0.00    +0.000 A 
ATOM     16  C   UNL     1      48.611   6.220  17.388  0.00  0.00    +0.000 A 
ATOM     17  C   UNL     1      49.189   7.418  16.921  0.00  0.00    +0.000 A 
ATOM     18  C   UNL     1      49.846   8.504  17.513  0.00  0.00    +0.000 A 
ATOM     19  C   UNL     1      50.291   9.536  16.680  0.00  0.00    +0.000 A 
ATOM     23  C   UNL     1      50.046   9.450  15.319  0.00  0.00    +0.000 A 
ATOM     24  N   UNL     1      49.408   8.421  14.712  0.00  0.00    +0.000 NA
ATOM     25  C   UNL     1      49.017   7.430  15.539  0.00  0.00    +0.000 A 
ENDROOT
BRANCH  19  20
ATOM     20  C   UNL     1      50.993  10.731  17.199  0.00  0.00    +0.000 C 
ATOM     21  N   UNL     1      50.467  11.339  18.308  0.00  0.00    +0.000 N 
ATOM     22  O   UNL     1      52.017  11.151  16.674  0.00  0.00    +0.000 OA
ATOM     28  H   UNL     1      49.757  10.909  18.883  0.00  0.00    +0.000 HD
ATOM     29  H   UNL     1      50.995  12.105  18.701  0.00  0.00    +0.000 HD
ENDBRANCH  19  20
BRANCH  12  13
ATOM     13  C   UNL     1      47.451   4.158  16.551  0.00  0.00    +0.000 C 
ATOM     14  C   UNL     1      47.795   3.312  17.750  0.00  0.00    +0.000 C 
ATOM     15  C   UNL     1      48.186   2.850  16.387  0.00  0.00    +0.000 C 
ENDBRANCH  12  13
BRANCH  11  10
ATOM     10  C   UNL     1      48.067   5.860  13.807  0.00  0.00    +0.000 C 
BRANCH  10   8
ATOM      6  N   UNL     1      45.813   5.102  12.992  0.00  0.00    +0.000 N 
ATOM      7  C   UNL     1      46.244   3.733  13.296  0.00  0.00    +0.000 C 
ATOM      8  C   UNL     1      46.660   6.174  13.340  0.00  0.00    +0.000 C 
ATOM      9  O   UNL     1      46.351   7.363  13.235  0.00  0.00    +0.000 OA
BRANCH   6   5
ATOM      1  C   UNL     1      44.274   2.599   9.509  0.00  0.00    +0.000 C 
ATOM      2  N   UNL     1      43.750   3.559  10.483  0.00  0.00    +0.000 NA
ATOM      3  C   UNL     1      43.948   3.046  11.845  0.00  0.00    +0.000 C 
ATOM      4  C   UNL     1      43.507   4.064  12.899  0.00  0.00    +0.000 C 
ATOM      5  C   UNL     1      44.349   5.347  12.752  0.00  0.00    +0.000 C 
ATOM     26  C   UNL     1      43.977   5.879  11.353  0.00  0.00    +0.000 C 
ATOM     27  C   UNL     1      44.387   4.873  10.276  0.00  0.00    +0.000 C 
ENDBRANCH   6   5
ENDBRANCH  10   8
ENDBRANCH  11  10
TORSDOF 5
ENDMDL
MODEL 9
REMARK VINA RESULT:    -5.743      3.872      6.511
REMARK INTER + INTRA:          -7.349
REMARK INTER:                  -7.297
REMARK INTRA:                  -0.051
REMARK UNBOUND:                 0.073
REMARK  Name = 
REMARK  7 active torsions:
REMARK  status: ('A' for Active; 'I' for Inactive)
REMARK    1  A    between atoms: C_1  and  N_2
REMARK    2  A    between atoms: C_5  and  N_6
REMARK    3  A    between atoms: N_6  and  C_7
REMARK    4  A    between atoms: C_8  and  C_10
REMARK    5  A    between atoms: C_10  and  N_11
REMARK    6  A    between atoms: C_12  and  C_13
REMARK    7  A    between atoms: C_19  and  C_20
REMARK                            x       y       z     vdW  Elec       q    Type
REMARK                         _______ _______ _______ _____ _____    ______ ____
ROOT
ATOM     11  N   UNL     1      47.616   7.162  13.610  0.00  0.00    +0.000 N 
ATOM     12  C   UNL     1      48.379   7.828  12.665  0.00  0.00    +0.000 A 
ATOM     16  C   UNL     1      47.894   7.462  11.424  0.00  0.00    +0.000 A 
ATOM     17  C   UNL     1      46.816   6.568  11.599  0.00  0.00    +0.000 A 
ATOM     18  C   UNL     1      45.954   5.868  10.746  0.00  0.00    +0.000 A 
ATOM     19  C   UNL     1      44.979   5.050  11.325  0.00  0.00    +0.000 A 
ATOM     23  C   UNL     1      44.896   4.984  12.707  0.00  0.00    +0.000 A 
ATOM     24  N   UNL     1      45.704   5.652  13.562  0.00  0.00    +0.000 NA
ATOM     25  C   UNL     1      46.652   6.410  12.972  0.00  0.00    +0.000 A 
ENDROOT
BRANCH  19  20
ATOM     20  C   UNL     1      44.015   4.268  10.519  0.00  0.00    +0.000 C 
ATOM     21  N   UNL     1      44.053   4.430   9.159  0.00  0.00    +0.000 N 
ATOM     22  O   UNL     1      43.227   3.489  11.041  0.00  0.00    +0.000 OA
ATOM     28  H   UNL     1      44.812   4.896   8.684  0.00  0.00    +0.000 HD
ATOM     29  H   UNL     1      43.446   3.836   8.613  0.00  0.00    +0.000 HD
ENDBRANCH  19  20
BRANCH  12  13
ATOM     13  C   UNL     1      49.573   8.775  12.747  0.00  0.00    +0.000 C 
ATOM     14  C   UNL     1      50.271   9.279  11.509  0.00  0.00    +0.000 C 
ATOM     15  C   UNL     1      50.984   8.344  12.427  0.00  0.00    +0.000 C 
ENDBRANCH  12  13
BRANCH  11  10
ATOM     10  C   UNL     1      47.824   7.219  15.055  0.00  0.00    +0.000 C 
BRANCH  10   8
ATOM      6  N   UNL     1      48.649   5.362  16.536  0.00  0.00    +0.000 N 
ATOM      7  C   UNL     1      47.243   5.057  16.815  0.00  0.00    +0.000 C 
ATOM      8  C   UNL     1      48.953   6.356  15.584  0.00  0.00    +0.000 C 
ATOM      9  O   UNL     1      50.094   6.614  15.190  0.00  0.00    +0.000 OA
BRANCH   6   5
ATOM      1  C   UNL     1      49.521   5.458  21.008  0.00  0.00    +0.000 C 
ATOM      2  N   UNL     1      49.939   4.700  19.827  0.00  0.00    +0.000 NA
ATOM      3  C   UNL     1      48.778   4.031  19.226  0.00  0.00    +0.000 C 
ATOM      4  C   UNL     1      49.153   3.310  17.929  0.00  0.00    +0.000 C 
ATOM      5  C   UNL     1      49.685   4.337  16.910  0.00  0.00    +0.000 C 
ATOM     26  C   UNL     1      50.967   4.887  17.569  0.00  0.00    +0.000 C 
ATOM     27  C   UNL     1      50.628   5.597  18.880  0.00  0.00    +0.000 C 
ENDBRANCH   6   5
ENDBRANCH  10   8
ENDBRANCH  11  10
TORSDOF 5
ENDMDL
