MODEL 1
REMARK VINA RESULT:    -7.292      0.000      0.000
REMARK INTER + INTRA:          -8.716
REMARK INTER:                  -8.571
REMARK INTRA:                  -0.145
REMARK UNBOUND:                -0.145
REMARK  Name = 
REMARK  3 active torsions:
REMARK  status: ('A' for Active; 'I' for Inactive)
REMARK    1  A    between atoms: C_2  and  C_4
REMARK    2  A    between atoms: C_8  and  C_9
REMARK    3  A    between atoms: C_9  and  C_10
REMARK                            x       y       z     vdW  Elec       q    Type
REMARK                         _______ _______ _______ _____ _____    ______ ____
ROOT
ATOM      1  C   UNL     1      46.862   4.951  13.750  0.00  0.00    +0.000 A 
ATOM      2  C   UNL     1      47.375   6.224  13.564  0.00  0.00    +0.000 A 
ATOM      3  C   UNL     1      46.981   6.915  12.427  0.00  0.00    +0.000 A 
ATOM      4  C   UNL     1      46.082   6.318  11.542  0.00  0.00    +0.000 A 
ATOM      5  C   UNL     1      45.588   5.033  11.799  0.00  0.00    +0.000 A 
ATOM      6  N   UNL     1      45.994   4.341  12.894  0.00  0.00    +0.000 NA
ENDROOT
BRANCH   1   8
ATOM      7  N   UNL     1      47.160   4.832  16.146  0.00  0.00    +0.000 N 
ATOM      8  C   UNL     1      47.250   4.156  14.959  0.00  0.00    +0.000 C 
ATOM      9  O   UNL     1      47.620   2.992  14.899  0.00  0.00    +0.000 OA
ATOM     10  H   UNL     1      47.426   4.375  17.006  0.00  0.00    +0.000 HD
ATOM     11  H   UNL     1      46.862   5.802  16.141  0.00  0.00    +0.000 HD
ENDBRANCH   1   8
BRANCH   5  12
ATOM     12  C   UNL     1      44.548   4.378  10.889  0.00  0.00    +0.000 C 
ATOM     13  C   UNL     1      43.206   5.100  10.760  0.00  0.00    +0.000 C 
ATOM     14  C   UNL     1      43.271   3.798  11.489  0.00  0.00    +0.000 C 
BRANCH  12  15
ATOM     15  C   UNL     1      45.099   3.686   9.642  0.00  0.00    +0.000 A 
ATOM     16  C   UNL     1      45.635   4.420   8.576  0.00  0.00    +0.000 A 
ATOM     17  C   UNL     1      46.187   3.748   7.493  0.00  0.00    +0.000 A 
ATOM     18  N   UNL     1      46.238   2.406   7.395  0.00  0.00    +0.000 NA
ATOM     19  C   UNL     1      45.692   1.706   8.409  0.00  0.00    +0.000 A 
ATOM     20  C   UNL     1      45.112   2.290   9.524  0.00  0.00    +0.000 A 
ENDBRANCH  12  15
ENDBRANCH   5  12
TORSDOF 3
ENDMDL
MODEL 2
REMARK VINA RESULT:    -6.357      2.667      3.399
REMARK INTER + INTRA:          -7.617
REMARK INTER:                  -7.547
REMARK INTRA:                  -0.070
REMARK UNBOUND:                -0.145
REMARK  Name = 
REMARK  3 active torsions:
REMARK  status: ('A' for Active; 'I' for Inactive)
REMARK    1  A    between atoms: C_2  and  C_4
REMARK    2  A    between atoms: C_8  and  C_9
REMARK    3  A    between atoms: C_9  and  C_10
REMARK                            x       y       z     vdW  Elec       q    Type
REMARK                         _______ _______ _______ _____ _____    ______ ____
ROOT
ATOM      1  C   UNL     1      45.998   8.050  12.621  0.00  0.00    +0.000 A 
ATOM      2  C   UNL     1      47.140   7.615  13.274  0.00  0.00    +0.000 A 
ATOM      3  C   UNL     1      47.295   6.249  13.454  0.00  0.00    +0.000 A 
ATOM      4  C   UNL     1      46.322   5.379  12.961  0.00  0.00    +0.000 A 
ATOM      5  C   UNL     1      45.198   5.884  12.295  0.00  0.00    +0.000 A 
ATOM      6  N   UNL     1      45.026   7.223  12.142  0.00  0.00    +0.000 NA
ENDROOT
BRANCH   1   8
ATOM      7  N   UNL     1      44.476   9.927  12.532  0.00  0.00    +0.000 N 
ATOM      8  C   UNL     1      45.774   9.514  12.396  0.00  0.00    +0.000 C 
ATOM      9  O   UNL     1      46.677  10.288  12.110  0.00  0.00    +0.000 OA
ATOM     10  H   UNL     1      44.237  10.893  12.372  0.00  0.00    +0.000 HD
ATOM     11  H   UNL     1      43.762   9.241  12.754  0.00  0.00    +0.000 HD
ENDBRANCH   1   8
BRANCH   5  12
ATOM     12  C   UNL     1      44.148   4.958  11.680  0.00  0.00    +0.000 C 
ATOM     13  C   UNL     1      42.700   5.449  11.721  0.00  0.00    +0.000 C 
ATOM     14  C   UNL     1      43.106   4.293  12.573  0.00  0.00    +0.000 C 
BRANCH  12  15
ATOM     15  C   UNL     1      44.594   4.178  10.443  0.00  0.00    +0.000 A 
ATOM     16  C   UNL     1      44.301   2.816  10.295  0.00  0.00    +0.000 A 
ATOM     17  C   UNL     1      44.664   2.163   9.124  0.00  0.00    +0.000 A 
ATOM     18  N   UNL     1      45.299   2.765   8.100  0.00  0.00    +0.000 NA
ATOM     19  C   UNL     1      45.606   4.068   8.262  0.00  0.00    +0.000 A 
ATOM     20  C   UNL     1      45.291   4.797   9.398  0.00  0.00    +0.000 A 
ENDBRANCH  12  15
ENDBRANCH   5  12
TORSDOF 3
ENDMDL
MODEL 3
REMARK VINA RESULT:    -6.326      2.141      5.602
REMARK INTER + INTRA:          -7.581
REMARK INTER:                  -7.611
REMARK INTRA:                   0.030
REMARK UNBOUND:                -0.145
REMARK  Name = 
REMARK  3 active torsions:
REMARK  status: ('A' for Active; 'I' for Inactive)
REMARK    1  A    between atoms: C_2  and  C_4
REMARK    2  A    between atoms: C_8  and  C_9
REMARK    3  A    between atoms: C_9  and  C_10
REMARK                            x       y       z     vdW  Elec       q    Type
REMARK                         _______ _______ _______ _____ _____    ______ ____
ROOT
ATOM      1  C   UNL     1      46.277   2.414   8.155  0.00  0.00    +0.000 A 
ATOM      2  C   UNL     1      46.472   3.509   7.330  0.00  0.00    +0.000 A 
ATOM      3  C   UNL     1      45.989   4.734   7.765  0.00  0.00    +0.000 A 
ATOM      4  C   UNL     1      45.356   4.818   9.006  0.00  0.00    +0.000 A 
ATOM      5  C   UNL     1      45.207   3.673   9.800  0.00  0.00    +0.000 A 
ATOM      6  N   UNL     1      45.651   2.466   9.365  0.00  0.00    +0.000 NA
ENDROOT
BRANCH   1   8
ATOM      7  N   UNL     1      47.846   1.082   6.886  0.00  0.00    +0.000 N 
ATOM      8  C   UNL     1      46.777   1.064   7.740  0.00  0.00    +0.000 C 
ATOM      9  O   UNL     1      46.273   0.019   8.130  0.00  0.00    +0.000 OA
ATOM     10  H   UNL     1      48.228   0.215   6.539  0.00  0.00    +0.000 HD
ATOM     11  H   UNL     1      48.218   1.976   6.580  0.00  0.00    +0.000 HD
ENDBRANCH   1   8
BRANCH   5  12
ATOM     12  C   UNL     1      44.583   3.742  11.194  0.00  0.00    +0.000 C 
ATOM     13  C   UNL     1      43.527   2.684  11.519  0.00  0.00    +0.000 C 
ATOM     14  C   UNL     1      43.111   4.108  11.350  0.00  0.00    +0.000 C 
BRANCH  12  15
ATOM     15  C   UNL     1      45.522   4.170  12.322  0.00  0.00    +0.000 A 
ATOM     16  C   UNL     1      46.191   3.226  13.113  0.00  0.00    +0.000 A 
ATOM     17  C   UNL     1      47.088   3.659  14.081  0.00  0.00    +0.000 A 
ATOM     18  N   UNL     1      47.360   4.956  14.320  0.00  0.00    +0.000 NA
ATOM     19  C   UNL     1      46.689   5.860  13.577  0.00  0.00    +0.000 A 
ATOM     20  C   UNL     1      45.771   5.521  12.596  0.00  0.00    +0.000 A 
ENDBRANCH  12  15
ENDBRANCH   5  12
TORSDOF 3
ENDMDL
MODEL 4
REMARK VINA RESULT:    -6.042      1.733      2.299
REMARK INTER + INTRA:          -7.247
REMARK INTER:                  -7.213
REMARK INTRA:                  -0.035
REMARK UNBOUND:                -0.145
REMARK  Name = 
REMARK  3 active torsions:
REMARK  status: ('A' for Active; 'I' for Inactive)
REMARK    1  A    between atoms: C_2  and  C_4
REMARK    2  A    between atoms: C_8  and  C_9
REMARK    3  A    between atoms: C_9  and  C_10
REMARK                            x       y       z     vdW  Elec       q    Type
REMARK                         _______ _______ _______ _____ _____    ______ ____
ROOT
ATOM      1  C   UNL     1      46.945   7.079  12.966  0.00  0.00    +0.000 A 
ATOM      2  C   UNL     1      46.631   8.405  12.720  0.00  0.00    +0.000 A 
ATOM      3  C   UNL     1      45.462   8.669  12.022  0.00  0.00    +0.000 A 
ATOM      4  C   UNL     1      44.650   7.607  11.620  0.00  0.00    +0.000 A 
ATOM      5  C   UNL     1      45.019   6.288  11.916  0.00  0.00    +0.000 A 
ATOM      6  N   UNL     1      46.177   6.022  12.573  0.00  0.00    +0.000 NA
ENDROOT
BRANCH   1   8
ATOM      7  N   UNL     1      49.271   7.529  13.445  0.00  0.00    +0.000 N 
ATOM      8  C   UNL     1      48.194   6.730  13.716  0.00  0.00    +0.000 C 
ATOM      9  O   UNL     1      48.255   5.803  14.511  0.00  0.00    +0.000 OA
ATOM     10  H   UNL     1      50.158   7.346  13.890  0.00  0.00    +0.000 HD
ATOM     11  H   UNL     1      49.173   8.275  12.764  0.00  0.00    +0.000 HD
ENDBRANCH   1   8
BRANCH   5  12
ATOM     12  C   UNL     1      44.119   5.106  11.554  0.00  0.00    +0.000 C 
ATOM     13  C   UNL     1      42.613   5.328  11.696  0.00  0.00    +0.000 C 
ATOM     14  C   UNL     1      43.310   4.407  12.642  0.00  0.00    +0.000 C 
BRANCH  12  15
ATOM     15  C   UNL     1      44.597   4.241  10.388  0.00  0.00    +0.000 A 
ATOM     16  C   UNL     1      44.378   2.857  10.368  0.00  0.00    +0.000 A 
ATOM     17  C   UNL     1      44.767   2.120   9.257  0.00  0.00    +0.000 A 
ATOM     18  N   UNL     1      45.361   2.659   8.174  0.00  0.00    +0.000 NA
ATOM     19  C   UNL     1      45.598   3.985   8.214  0.00  0.00    +0.000 A 
ATOM     20  C   UNL     1      45.253   4.798   9.282  0.00  0.00    +0.000 A 
ENDBRANCH  12  15
ENDBRANCH   5  12
TORSDOF 3
ENDMDL
MODEL 5
REMARK VINA RESULT:    -6.003      2.008      5.921
REMARK INTER + INTRA:          -7.201
REMARK INTER:                  -7.368
REMARK INTRA:                   0.168
REMARK UNBOUND:                -0.145
REMARK  Name = 
REMARK  3 active torsions:
REMARK  status: ('A' for Active; 'I' for Inactive)
REMARK    1  A    between atoms: C_2  and  C_4
REMARK    2  A    between atoms: C_8  and  C_9
REMARK    3  A    between atoms: C_9  and  C_10
REMARK                            x       y       z     vdW  Elec       q    Type
REMARK                         _______ _______ _______ _____ _____    ______ ____
ROOT
ATOM      1  C   UNL     1      44.351   4.226  10.749  0.00  0.00    +0.000 A 
ATOM      2  C   UNL     1      43.098   4.337  11.328  0.00  0.00    +0.000 A 
ATOM      3  C   UNL     1      42.985   5.111  12.474  0.00  0.00    +0.000 A 
ATOM      4  C   UNL     1      44.117   5.754  12.978  0.00  0.00    +0.000 A 
ATOM      5  C   UNL     1      45.352   5.613  12.334  0.00  0.00    +0.000 A 
ATOM      6  N   UNL     1      45.474   4.832  11.229  0.00  0.00    +0.000 NA
ENDROOT
BRANCH   1   8
ATOM      7  N   UNL     1      44.180   4.031   8.346  0.00  0.00    +0.000 N 
ATOM      8  C   UNL     1      44.535   3.405   9.510  0.00  0.00    +0.000 C 
ATOM      9  O   UNL     1      44.968   2.261   9.528  0.00  0.00    +0.000 OA
ATOM     10  H   UNL     1      44.251   3.539   7.468  0.00  0.00    +0.000 HD
ATOM     11  H   UNL     1      43.811   4.976   8.386  0.00  0.00    +0.000 HD
ENDBRANCH   1   8
BRANCH   5  12
ATOM     12  C   UNL     1      46.596   6.359  12.817  0.00  0.00    +0.000 C 
ATOM     13  C   UNL     1      46.587   7.879  12.646  0.00  0.00    +0.000 C 
ATOM     14  C   UNL     1      47.506   7.053  11.808  0.00  0.00    +0.000 C 
BRANCH  12  15
ATOM     15  C   UNL     1      47.264   5.795  14.071  0.00  0.00    +0.000 A 
ATOM     16  C   UNL     1      48.240   6.520  14.768  0.00  0.00    +0.000 A 
ATOM     17  C   UNL     1      48.770   6.000  15.941  0.00  0.00    +0.000 A 
ATOM     18  N   UNL     1      48.405   4.813  16.463  0.00  0.00    +0.000 NA
ATOM     19  C   UNL     1      47.489   4.106  15.771  0.00  0.00    +0.000 A 
ATOM     20  C   UNL     1      46.912   4.542  14.588  0.00  0.00    +0.000 A 
ENDBRANCH  12  15
ENDBRANCH   5  12
TORSDOF 3
ENDMDL
MODEL 6
REMARK VINA RESULT:    -5.986      2.238      5.822
REMARK INTER + INTRA:          -7.182
REMARK INTER:                  -7.091
REMARK INTRA:                  -0.091
REMARK UNBOUND:                -0.145
REMARK  Name = 
REMARK  3 active torsions:
REMARK  status: ('A' for Active; 'I' for Inactive)
REMARK    1  A    between atoms: C_2  and  C_4
REMARK    2  A    between atoms: C_8  and  C_9
REMARK    3  A    between atoms: C_9  and  C_10
REMARK                            x       y       z     vdW  Elec       q    Type
REMARK                         _______ _______ _______ _____ _____    ______ ____
ROOT
ATOM      1  C   UNL     1      45.448   3.445   8.648  0.00  0.00    +0.000 A 
ATOM      2  C   UNL     1      44.849   2.199   8.715  0.00  0.00    +0.000 A 
ATOM      3  C   UNL     1      44.092   1.909   9.840  0.00  0.00    +0.000 A 
ATOM      4  C   UNL     1      43.949   2.877  10.836  0.00  0.00    +0.000 A 
ATOM      5  C   UNL     1      44.569   4.125  10.698  0.00  0.00    +0.000 A 
ATOM      6  N   UNL     1      45.335   4.403   9.613  0.00  0.00    +0.000 NA
ENDROOT
BRANCH   1   8
ATOM      7  N   UNL     1      46.221   2.930   6.417  0.00  0.00    +0.000 N 
ATOM      8  C   UNL     1      46.277   3.817   7.457  0.00  0.00    +0.000 C 
ATOM      9  O   UNL     1      46.955   4.834   7.410  0.00  0.00    +0.000 OA
ATOM     10  H   UNL     1      46.770   3.094   5.586  0.00  0.00    +0.000 HD
ATOM     11  H   UNL     1      45.655   2.093   6.512  0.00  0.00    +0.000 HD
ENDBRANCH   1   8
BRANCH   5  12
ATOM     12  C   UNL     1      44.375   5.233  11.734  0.00  0.00    +0.000 C 
ATOM     13  C   UNL     1      42.965   5.394  12.303  0.00  0.00    +0.000 C 
ATOM     14  C   UNL     1      43.514   6.446  11.397  0.00  0.00    +0.000 C 
BRANCH  12  15
ATOM     15  C   UNL     1      45.550   5.466  12.685  0.00  0.00    +0.000 A 
ATOM     16  C   UNL     1      45.933   4.497  13.622  0.00  0.00    +0.000 A 
ATOM     17  C   UNL     1      47.048   4.722  14.418  0.00  0.00    +0.000 A 
ATOM     18  N   UNL     1      47.800   5.837  14.353  0.00  0.00    +0.000 NA
ATOM     19  C   UNL     1      47.407   6.779  13.472  0.00  0.00    +0.000 A 
ATOM     20  C   UNL     1      46.304   6.645  12.643  0.00  0.00    +0.000 A 
ENDBRANCH  12  15
ENDBRANCH   5  12
TORSDOF 3
ENDMDL
MODEL 7
REMARK VINA RESULT:    -5.770      2.753      4.004
REMARK INTER + INTRA:          -6.927
REMARK INTER:                  -7.070
REMARK INTRA:                   0.143
REMARK UNBOUND:                -0.145
REMARK  Name = 
REMARK  3 active torsions:
REMARK  status: ('A' for Active; 'I' for Inactive)
REMARK    1  A    between atoms: C_2  and  C_4
REMARK    2  A    between atoms: C_8  and  C_9
REMARK    3  A    between atoms: C_9  and  C_10
REMARK                            x       y       z     vdW  Elec       q    Type
REMARK                         _______ _______ _______ _____ _____    ______ ____
ROOT
ATOM      1  C   UNL     1      47.978   4.576  16.096  0.00  0.00    +0.000 A 
ATOM      2  C   UNL     1      48.885   5.466  16.646  0.00  0.00    +0.000 A 
ATOM      3  C   UNL     1      49.123   6.647  15.958  0.00  0.00    +0.000 A 
ATOM      4  C   UNL     1      48.436   6.896  14.769  0.00  0.00    +0.000 A 
ATOM      5  C   UNL     1      47.519   5.959  14.276  0.00  0.00    +0.000 A 
ATOM      6  N   UNL     1      47.304   4.789  14.930  0.00  0.00    +0.000 NA
ENDROOT
BRANCH   1   8
ATOM      7  N   UNL     1      48.674   2.348  16.725  0.00  0.00    +0.000 N 
ATOM      8  C   UNL     1      47.678   3.284  16.793  0.00  0.00    +0.000 C 
ATOM      9  O   UNL     1      46.625   3.074  17.379  0.00  0.00    +0.000 OA
ATOM     10  H   UNL     1      48.541   1.441  17.148  0.00  0.00    +0.000 HD
ATOM     11  H   UNL     1      49.522   2.566  16.212  0.00  0.00    +0.000 HD
ENDBRANCH   1   8
BRANCH   5  12
ATOM     12  C   UNL     1      46.696   6.231  13.016  0.00  0.00    +0.000 C 
ATOM     13  C   UNL     1      47.476   6.674  11.777  0.00  0.00    +0.000 C 
ATOM     14  C   UNL     1      46.588   7.652  12.472  0.00  0.00    +0.000 C 
BRANCH  12  15
ATOM     15  C   UNL     1      45.490   5.317  12.800  0.00  0.00    +0.000 A 
ATOM     16  C   UNL     1      44.183   5.770  13.021  0.00  0.00    +0.000 A 
ATOM     17  C   UNL     1      43.113   4.928  12.745  0.00  0.00    +0.000 A 
ATOM     18  N   UNL     1      43.252   3.674  12.275  0.00  0.00    +0.000 NA
ATOM     19  C   UNL     1      44.513   3.233  12.096  0.00  0.00    +0.000 A 
ATOM     20  C   UNL     1      45.640   3.999  12.351  0.00  0.00    +0.000 A 
ENDBRANCH  12  15
ENDBRANCH   5  12
TORSDOF 3
ENDMDL
MODEL 8
REMARK VINA RESULT:    -5.640      3.208      5.920
REMARK INTER + INTRA:          -6.774
REMARK INTER:                  -6.822
REMARK INTRA:                   0.048
REMARK UNBOUND:                -0.145
REMARK  Name = 
REMARK  3 active torsions:
REMARK  status: ('A' for Active; 'I' for Inactive)
REMARK    1  A    between atoms: C_2  and  C_4
REMARK    2  A    between atoms: C_8  and  C_9
REMARK    3  A    between atoms: C_9  and  C_10
REMARK                            x       y       z     vdW  Elec       q    Type
REMARK                         _______ _______ _______ _____ _____    ______ ____
ROOT
ATOM      1  C   UNL     1      44.426   4.073  10.691  0.00  0.00    +0.000 A 
ATOM      2  C   UNL     1      43.488   3.643  11.615  0.00  0.00    +0.000 A 
ATOM      3  C   UNL     1      43.381   4.356  12.800  0.00  0.00    +0.000 A 
ATOM      4  C   UNL     1      44.194   5.472  13.002  0.00  0.00    +0.000 A 
ATOM      5  C   UNL     1      45.111   5.863  12.018  0.00  0.00    +0.000 A 
ATOM      6  N   UNL     1      45.241   5.151  10.870  0.00  0.00    +0.000 NA
ENDROOT
BRANCH   1   8
ATOM      7  N   UNL     1      44.576   1.979   9.491  0.00  0.00    +0.000 N 
ATOM      8  C   UNL     1      44.588   3.344   9.392  0.00  0.00    +0.000 C 
ATOM      9  O   UNL     1      44.721   3.918   8.320  0.00  0.00    +0.000 OA
ATOM     10  H   UNL     1      44.704   1.414   8.666  0.00  0.00    +0.000 HD
ATOM     11  H   UNL     1      44.479   1.552  10.407  0.00  0.00    +0.000 HD
ENDBRANCH   1   8
BRANCH   5  12
ATOM     12  C   UNL     1      45.966   7.121  12.176  0.00  0.00    +0.000 C 
ATOM     13  C   UNL     1      47.449   6.983  11.826  0.00  0.00    +0.000 C 
ATOM     14  C   UNL     1      47.047   7.174  13.251  0.00  0.00    +0.000 C 
BRANCH  12  15
ATOM     15  C   UNL     1      45.279   8.440  11.825  0.00  0.00    +0.000 A 
ATOM     16  C   UNL     1      45.810   9.671  12.232  0.00  0.00    +0.000 A 
ATOM     17  C   UNL     1      45.191  10.848  11.832  0.00  0.00    +0.000 A 
ATOM     18  N   UNL     1      44.083  10.886  11.066  0.00  0.00    +0.000 NA
ATOM     19  C   UNL     1      43.559   9.697  10.705  0.00  0.00    +0.000 A 
ATOM     20  C   UNL     1      44.103   8.474  11.064  0.00  0.00    +0.000 A 
ENDBRANCH  12  15
ENDBRANCH   5  12
TORSDOF 3
ENDMDL
MODEL 9
REMARK VINA RESULT:    -5.410      2.936      5.791
REMARK INTER + INTRA:          -6.503
REMARK INTER:                  -6.394
REMARK INTRA:                  -0.110
REMARK UNBOUND:                -0.145
REMARK  Name = 
REMARK  3 active torsions:
REMARK  status: ('A' for Active; 'I' for Inactive)
REMARK    1  A    between atoms: C_2  and  C_4
REMARK    2  A    between atoms: C_8  and  C_9
REMARK    3  A    between atoms: C_9  and  C_10
REMARK                            x       y       z     vdW  Elec       q    Type
REMARK                         _______ _______ _______ _____ _____    ______ ____
ROOT
ATOM      1  C   UNL     1      45.141   4.361  11.644  0.00  0.00    +0.000 A 
ATOM      2  C   UNL     1      45.581   3.424  12.565  0.00  0.00    +0.000 A 
ATOM      3  C   UNL     1      46.535   3.829  13.486  0.00  0.00    +0.000 A 
ATOM      4  C   UNL     1      46.992   5.148  13.463  0.00  0.00    +0.000 A 
ATOM      5  C   UNL     1      46.492   6.049  12.515  0.00  0.00    +0.000 A 
ATOM      6  N   UNL     1      45.580   5.650  11.591  0.00  0.00    +0.000 NA
ENDROOT
BRANCH   1   8
ATOM      7  N   UNL     1      44.089   4.773   9.507  0.00  0.00    +0.000 N 
ATOM      8  C   UNL     1      44.110   3.983  10.624  0.00  0.00    +0.000 C 
ATOM      9  O   UNL     1      43.342   3.043  10.772  0.00  0.00    +0.000 OA
ATOM     10  H   UNL     1      43.408   4.601   8.783  0.00  0.00    +0.000 HD
ATOM     11  H   UNL     1      44.737   5.551   9.440  0.00  0.00    +0.000 HD
ENDBRANCH   1   8
BRANCH   5  12
ATOM     12  C   UNL     1      46.917   7.518  12.505  0.00  0.00    +0.000 C 
ATOM     13  C   UNL     1      46.019   8.491  13.272  0.00  0.00    +0.000 C 
ATOM     14  C   UNL     1      46.060   8.552  11.781  0.00  0.00    +0.000 C 
BRANCH  12  15
ATOM     15  C   UNL     1      48.424   7.775  12.538  0.00  0.00    +0.000 A 
ATOM     16  C   UNL     1      49.184   7.808  11.362  0.00  0.00    +0.000 A 
ATOM     17  C   UNL     1      50.537   8.113  11.432  0.00  0.00    +0.000 A 
ATOM     18  N   UNL     1      51.184   8.379  12.583  0.00  0.00    +0.000 NA
ATOM     19  C   UNL     1      50.453   8.314  13.715  0.00  0.00    +0.000 A 
ATOM     20  C   UNL     1      49.101   8.010  13.741  0.00  0.00    +0.000 A 
ENDBRANCH  12  15
ENDBRANCH   5  12
TORSDOF 3
ENDMDL
