MODEL 1
REMARK VINA RESULT:    -7.734      0.000      0.000
REMARK INTER + INTRA:         -11.991
REMARK INTER:                 -11.125
REMARK INTRA:                  -0.865
REMARK UNBOUND:                -0.865
REMARK  Name = 
REMARK  8 active torsions:
REMARK  status: ('A' for Active; 'I' for Inactive)
REMARK    1  A    between atoms: C_2  and  O_3
REMARK    2  A    between atoms: C_2  and  C_20
REMARK    3  A    between atoms: O_3  and  C_4
REMARK    4  A    between atoms: C_4  and  C_5
REMARK    5  A    between atoms: C_8  and  C_9
REMARK    6  A    between atoms: C_9  and  O_10
REMARK    7  A    between atoms: C_9  and  C_11
REMARK    8  A    between atoms: C_11  and  C_12
REMARK                            x       y       z     vdW  Elec       q    Type
REMARK                         _______ _______ _______ _____ _____    ______ ____
ROOT
ATOM      1  C   UNL     1      46.726   5.075  13.894  0.00  0.00    +0.000 A 
ATOM      2  C   UNL     1      46.333   6.123  13.089  0.00  0.00    +0.000 A 
ATOM      3  N   UNL     1      45.595   5.968  11.975  0.00  0.00    +0.000 NA
ATOM      4  C   UNL     1      45.239   4.710  11.662  0.00  0.00    +0.000 A 
ATOM      5  N   UNL     1      45.601   3.620  12.360  0.00  0.00    +0.000 NA
ATOM      6  C   UNL     1      46.308   3.831  13.491  0.00  0.00    +0.000 A 
ENDROOT
BRANCH   1   7
ATOM      7  C   UNL     1      47.568   5.296  15.097  0.00  0.00    +0.000 C 
BRANCH   7   8
ATOM      8  O   UNL     1      48.064   4.070  15.624  0.00  0.00    +0.000 OA
BRANCH   8  10
ATOM      9  O   UNL     1      46.425   3.266  17.007  0.00  0.00    +0.000 OA
ATOM     10  C   UNL     1      47.564   3.668  16.822  0.00  0.00    +0.000 C 
BRANCH  10  11
ATOM     11  C   UNL     1      48.489   4.012  17.894  0.00  0.00    +0.000 A 
ATOM     12  C   UNL     1      48.225   4.987  18.838  0.00  0.00    +0.000 A 
ATOM     13  S   UNL     1      49.646   5.494  19.654  0.00  0.00    +0.000 S 
ATOM     14  C   UNL     1      50.609   4.400  18.768  0.00  0.00    +0.000 A 
ATOM     15  N   UNL     1      51.967   4.445  18.780  0.00  0.00    +0.000 NA
ATOM     16  C   UNL     1      52.532   3.556  18.029  0.00  0.00    +0.000 A 
ATOM     17  N   UNL     1      51.869   2.568  17.340  0.00  0.00    +0.000 N 
ATOM     18  C   UNL     1      50.503   2.437  17.365  0.00  0.00    +0.000 A 
ATOM     19  O   UNL     1      49.935   1.461  16.882  0.00  0.00    +0.000 OA
ATOM     20  C   UNL     1      49.833   3.533  18.030  0.00  0.00    +0.000 A 
ATOM     21  H   UNL     1      52.375   1.839  16.860  0.00  0.00    +0.000 HD
ENDBRANCH  10  11
ENDBRANCH   8  10
ENDBRANCH   7   8
ENDBRANCH   1   7
BRANCH   4  22
ATOM     22  C   UNL     1      44.468   4.509  10.363  0.00  0.00    +0.000 C 
BRANCH  22  23
ATOM     23  O   UNL     1      43.428   5.493  10.238  0.00  0.00    +0.000 OA
ATOM     24  H   UNL     1      43.500   6.053  11.031  0.00  0.00    +0.000 HD
ENDBRANCH  22  23
BRANCH  22  25
ATOM     25  C   UNL     1      45.387   4.612   9.139  0.00  0.00    +0.000 C 
BRANCH  25  26
ATOM     26  C   UNL     1      44.945   3.738   7.945  0.00  0.00    +0.000 C 
ATOM     27  C   UNL     1      44.521   2.313   8.334  0.00  0.00    +0.000 C 
ATOM     28  C   UNL     1      45.706   1.409   8.669  0.00  0.00    +0.000 C 
ATOM     29  C   UNL     1      46.836   1.519   7.646  0.00  0.00    +0.000 C 
ATOM     30  N   UNL     1      47.214   2.907   7.386  0.00  0.00    +0.000 NA
ATOM     31  C   UNL     1      46.067   3.674   6.897  0.00  0.00    +0.000 C 
ATOM     32  H   UNL     1      47.956   2.930   6.687  0.00  0.00    +0.000 HD
ENDBRANCH  25  26
ENDBRANCH  22  25
ENDBRANCH   4  22
TORSDOF 8
ENDMDL
MODEL 2
REMARK VINA RESULT:    -7.585      2.739      8.780
REMARK INTER + INTRA:         -11.776
REMARK INTER:                 -11.052
REMARK INTRA:                  -0.724
REMARK UNBOUND:                -0.865
REMARK  Name = 
REMARK  8 active torsions:
REMARK  status: ('A' for Active; 'I' for Inactive)
REMARK    1  A    between atoms: C_2  and  O_3
REMARK    2  A    between atoms: C_2  and  C_20
REMARK    3  A    between atoms: O_3  and  C_4
REMARK    4  A    between atoms: C_4  and  C_5
REMARK    5  A    between atoms: C_8  and  C_9
REMARK    6  A    between atoms: C_9  and  O_10
REMARK    7  A    between atoms: C_9  and  C_11
REMARK    8  A    between atoms: C_11  and  C_12
REMARK                            x       y       z     vdW  Elec       q    Type
REMARK                         _______ _______ _______ _____ _____    ______ ____
ROOT
ATOM      1  C   UNL     1      47.599   5.818  14.116  0.00  0.00    +0.000 A 
ATOM      2  C   UNL     1      48.260   6.302  15.225  0.00  0.00    +0.000 A 
ATOM      3  N   UNL     1      48.284   5.669  16.410  0.00  0.00    +0.000 NA
ATOM      4  C   UNL     1      47.618   4.503  16.482  0.00  0.00    +0.000 A 
ATOM      5  N   UNL     1      46.915   3.965  15.470  0.00  0.00    +0.000 NA
ATOM      6  C   UNL     1      46.954   4.618  14.289  0.00  0.00    +0.000 A 
ENDROOT
BRANCH   1   7
ATOM      7  C   UNL     1      47.577   6.572  12.836  0.00  0.00    +0.000 C 
BRANCH   7   8
ATOM      8  O   UNL     1      46.891   5.855  11.815  0.00  0.00    +0.000 OA
BRANCH   8  10
ATOM      9  O   UNL     1      45.305   7.486  11.545  0.00  0.00    +0.000 OA
ATOM     10  C   UNL     1      45.668   6.322  11.451  0.00  0.00    +0.000 C 
BRANCH  10  11
ATOM     11  C   UNL     1      44.769   5.211  11.166  0.00  0.00    +0.000 A 
ATOM     12  C   UNL     1      43.770   4.803  12.031  0.00  0.00    +0.000 A 
ATOM     13  S   UNL     1      43.208   3.225  11.667  0.00  0.00    +0.000 S 
ATOM     14  C   UNL     1      44.277   3.091  10.346  0.00  0.00    +0.000 A 
ATOM     15  N   UNL     1      44.506   1.915   9.705  0.00  0.00    +0.000 NA
ATOM     16  C   UNL     1      45.367   1.995   8.742  0.00  0.00    +0.000 A 
ATOM     17  N   UNL     1      45.951   3.159   8.301  0.00  0.00    +0.000 N 
ATOM     18  C   UNL     1      45.686   4.381   8.867  0.00  0.00    +0.000 A 
ATOM     19  O   UNL     1      46.084   5.429   8.365  0.00  0.00    +0.000 OA
ATOM     20  C   UNL     1      44.887   4.296  10.069  0.00  0.00    +0.000 A 
ATOM     21  H   UNL     1      46.531   3.169   7.475  0.00  0.00    +0.000 HD
ENDBRANCH  10  11
ENDBRANCH   8  10
ENDBRANCH   7   8
ENDBRANCH   1   7
BRANCH   4  22
ATOM     22  C   UNL     1      47.572   3.811  17.838  0.00  0.00    +0.000 C 
BRANCH  22  23
ATOM     23  O   UNL     1      46.710   2.663  17.789  0.00  0.00    +0.000 OA
ATOM     24  H   UNL     1      47.299   1.897  17.669  0.00  0.00    +0.000 HD
ENDBRANCH  22  23
BRANCH  22  25
ATOM     25  C   UNL     1      48.966   3.355  18.288  0.00  0.00    +0.000 C 
BRANCH  25  26
ATOM     26  C   UNL     1      50.009   3.305  17.150  0.00  0.00    +0.000 C 
ATOM     27  C   UNL     1      50.376   1.883  16.698  0.00  0.00    +0.000 C 
ATOM     28  C   UNL     1      51.291   1.161  17.685  0.00  0.00    +0.000 C 
ATOM     29  C   UNL     1      52.450   2.036  18.159  0.00  0.00    +0.000 C 
ATOM     30  N   UNL     1      51.999   3.345  18.629  0.00  0.00    +0.000 NA
ATOM     31  C   UNL     1      51.282   4.057  17.571  0.00  0.00    +0.000 C 
ATOM     32  H   UNL     1      52.807   3.896  18.918  0.00  0.00    +0.000 HD
ENDBRANCH  25  26
ENDBRANCH  22  25
ENDBRANCH   4  22
TORSDOF 8
ENDMDL
MODEL 3
REMARK VINA RESULT:    -7.354      1.897      2.448
REMARK INTER + INTRA:         -11.444
REMARK INTER:                 -10.650
REMARK INTRA:                  -0.794
REMARK UNBOUND:                -0.865
REMARK  Name = 
REMARK  8 active torsions:
REMARK  status: ('A' for Active; 'I' for Inactive)
REMARK    1  A    between atoms: C_2  and  O_3
REMARK    2  A    between atoms: C_2  and  C_20
REMARK    3  A    between atoms: O_3  and  C_4
REMARK    4  A    between atoms: C_4  and  C_5
REMARK    5  A    between atoms: C_8  and  C_9
REMARK    6  A    between atoms: C_9  and  O_10
REMARK    7  A    between atoms: C_9  and  C_11
REMARK    8  A    between atoms: C_11  and  C_12
REMARK                            x       y       z     vdW  Elec       q    Type
REMARK                         _______ _______ _______ _____ _____    ______ ____
ROOT
ATOM      1  C   UNL     1      47.102   6.286  13.322  0.00  0.00    +0.000 A 
ATOM      2  C   UNL     1      47.158   6.762  12.029  0.00  0.00    +0.000 A 
ATOM      3  N   UNL     1      46.418   6.266  11.022  0.00  0.00    +0.000 NA
ATOM      4  C   UNL     1      45.589   5.252  11.329  0.00  0.00    +0.000 A 
ATOM      5  N   UNL     1      45.489   4.694  12.548  0.00  0.00    +0.000 NA
ATOM      6  C   UNL     1      46.222   5.254  13.534  0.00  0.00    +0.000 A 
ENDROOT
BRANCH   1   7
ATOM      7  C   UNL     1      47.964   6.848  14.393  0.00  0.00    +0.000 C 
BRANCH   7   8
ATOM      8  O   UNL     1      48.425   5.836  15.283  0.00  0.00    +0.000 OA
BRANCH   8  10
ATOM      9  O   UNL     1      50.549   6.074  16.106  0.00  0.00    +0.000 OA
ATOM     10  C   UNL     1      49.339   6.209  16.216  0.00  0.00    +0.000 C 
BRANCH  10  11
ATOM     11  C   UNL     1      48.671   6.562  17.462  0.00  0.00    +0.000 A 
ATOM     12  C   UNL     1      48.356   7.863  17.810  0.00  0.00    +0.000 A 
ATOM     13  S   UNL     1      48.026   8.020  19.485  0.00  0.00    +0.000 S 
ATOM     14  C   UNL     1      48.280   6.353  19.745  0.00  0.00    +0.000 A 
ATOM     15  N   UNL     1      48.389   5.814  20.988  0.00  0.00    +0.000 NA
ATOM     16  C   UNL     1      48.606   4.539  20.994  0.00  0.00    +0.000 A 
ATOM     17  N   UNL     1      48.631   3.737  19.877  0.00  0.00    +0.000 N 
ATOM     18  C   UNL     1      48.444   4.228  18.609  0.00  0.00    +0.000 A 
ATOM     19  O   UNL     1      48.307   3.487  17.639  0.00  0.00    +0.000 OA
ATOM     20  C   UNL     1      48.402   5.673  18.553  0.00  0.00    +0.000 A 
ATOM     21  H   UNL     1      48.697   2.733  19.959  0.00  0.00    +0.000 HD
ENDBRANCH  10  11
ENDBRANCH   8  10
ENDBRANCH   7   8
ENDBRANCH   1   7
BRANCH   4  22
ATOM     22  C   UNL     1      44.801   4.628  10.185  0.00  0.00    +0.000 C 
BRANCH  22  23
ATOM     23  O   UNL     1      43.550   5.311  10.004  0.00  0.00    +0.000 OA
ATOM     24  H   UNL     1      43.630   6.142  10.506  0.00  0.00    +0.000 HD
ENDBRANCH  22  23
BRANCH  22  25
ATOM     25  C   UNL     1      45.581   4.683   8.865  0.00  0.00    +0.000 C 
BRANCH  25  26
ATOM     26  C   UNL     1      45.049   3.723   7.779  0.00  0.00    +0.000 C 
ATOM     27  C   UNL     1      44.606   2.352   8.317  0.00  0.00    +0.000 C 
ATOM     28  C   UNL     1      45.781   1.442   8.669  0.00  0.00    +0.000 C 
ATOM     29  C   UNL     1      46.856   1.423   7.584  0.00  0.00    +0.000 C 
ATOM     30  N   UNL     1      47.259   2.769   7.181  0.00  0.00    +0.000 NA
ATOM     31  C   UNL     1      46.111   3.528   6.684  0.00  0.00    +0.000 C 
ATOM     32  H   UNL     1      47.962   2.704   6.445  0.00  0.00    +0.000 HD
ENDBRANCH  25  26
ENDBRANCH  22  25
ENDBRANCH   4  22
TORSDOF 8
ENDMDL
MODEL 4
REMARK VINA RESULT:    -7.206      2.920      9.198
REMARK INTER + INTRA:         -11.230
REMARK INTER:                 -10.240
REMARK INTRA:                  -0.991
REMARK UNBOUND:                -0.865
REMARK  Name = 
REMARK  8 active torsions:
REMARK  status: ('A' for Active; 'I' for Inactive)
REMARK    1  A    between atoms: C_2  and  O_3
REMARK    2  A    between atoms: C_2  and  C_20
REMARK    3  A    between atoms: O_3  and  C_4
REMARK    4  A    between atoms: C_4  and  C_5
REMARK    5  A    between atoms: C_8  and  C_9
REMARK    6  A    between atoms: C_9  and  O_10
REMARK    7  A    between atoms: C_9  and  C_11
REMARK    8  A    between atoms: C_11  and  C_12
REMARK                            x       y       z     vdW  Elec       q    Type
REMARK                         _______ _______ _______ _____ _____    ______ ____
ROOT
ATOM      1  C   UNL     1      47.915   5.929  14.195  0.00  0.00    +0.000 A 
ATOM      2  C   UNL     1      48.617   6.304  15.321  0.00  0.00    +0.000 A 
ATOM      3  N   UNL     1      48.485   5.699  16.514  0.00  0.00    +0.000 NA
ATOM      4  C   UNL     1      47.614   4.676  16.576  0.00  0.00    +0.000 A 
ATOM      5  N   UNL     1      46.857   4.258  15.547  0.00  0.00    +0.000 NA
ATOM      6  C   UNL     1      47.055   4.871  14.360  0.00  0.00    +0.000 A 
ENDROOT
BRANCH   1   7
ATOM      7  C   UNL     1      48.073   6.650  12.906  0.00  0.00    +0.000 C 
BRANCH   7   8
ATOM      8  O   UNL     1      47.217   6.121  11.899  0.00  0.00    +0.000 OA
BRANCH   8  10
ATOM      9  O   UNL     1      46.057   8.069  11.572  0.00  0.00    +0.000 OA
ATOM     10  C   UNL     1      46.112   6.848  11.587  0.00  0.00    +0.000 C 
BRANCH  10  11
ATOM     11  C   UNL     1      44.944   5.980  11.513  0.00  0.00    +0.000 A 
ATOM     12  C   UNL     1      43.952   5.962  12.477  0.00  0.00    +0.000 A 
ATOM     13  S   UNL     1      42.985   4.549  12.378  0.00  0.00    +0.000 S 
ATOM     14  C   UNL     1      43.870   3.972  11.040  0.00  0.00    +0.000 A 
ATOM     15  N   UNL     1      43.743   2.704  10.569  0.00  0.00    +0.000 NA
ATOM     16  C   UNL     1      44.511   2.433   9.564  0.00  0.00    +0.000 A 
ATOM     17  N   UNL     1      45.327   3.337   8.928  0.00  0.00    +0.000 N 
ATOM     18  C   UNL     1      45.425   4.650   9.319  0.00  0.00    +0.000 A 
ATOM     19  O   UNL     1      46.027   5.484   8.649  0.00  0.00    +0.000 OA
ATOM     20  C   UNL     1      44.735   4.931  10.559  0.00  0.00    +0.000 A 
ATOM     21  H   UNL     1      45.819   3.090   8.082  0.00  0.00    +0.000 HD
ENDBRANCH  10  11
ENDBRANCH   8  10
ENDBRANCH   7   8
ENDBRANCH   1   7
BRANCH   4  22
ATOM     22  C   UNL     1      47.397   4.030  17.938  0.00  0.00    +0.000 C 
BRANCH  22  23
ATOM     23  O   UNL     1      46.693   2.785  17.799  0.00  0.00    +0.000 OA
ATOM     24  H   UNL     1      47.163   2.295  17.101  0.00  0.00    +0.000 HD
ENDBRANCH  22  23
BRANCH  22  25
ATOM     25  C   UNL     1      48.726   3.761  18.655  0.00  0.00    +0.000 C 
BRANCH  25  26
ATOM     26  C   UNL     1      48.847   4.446  20.034  0.00  0.00    +0.000 C 
ATOM     27  C   UNL     1      47.700   5.417  20.355  0.00  0.00    +0.000 C 
ATOM     28  C   UNL     1      47.807   6.737  19.594  0.00  0.00    +0.000 C 
ATOM     29  C   UNL     1      49.217   7.325  19.632  0.00  0.00    +0.000 C 
ATOM     30  N   UNL     1      50.235   6.347  19.252  0.00  0.00    +0.000 NA
ATOM     31  C   UNL     1      50.192   5.183  20.138  0.00  0.00    +0.000 C 
ATOM     32  H   UNL     1      51.156   6.779  19.310  0.00  0.00    +0.000 HD
ENDBRANCH  25  26
ENDBRANCH  22  25
ENDBRANCH   4  22
TORSDOF 8
ENDMDL
MODEL 5
REMARK VINA RESULT:    -6.994      3.429      9.441
REMARK INTER + INTRA:         -10.926
REMARK INTER:                 -10.276
REMARK INTRA:                  -0.650
REMARK UNBOUND:                -0.865
REMARK  Name = 
REMARK  8 active torsions:
REMARK  status: ('A' for Active; 'I' for Inactive)
REMARK    1  A    between atoms: C_2  and  O_3
REMARK    2  A    between atoms: C_2  and  C_20
REMARK    3  A    between atoms: O_3  and  C_4
REMARK    4  A    between atoms: C_4  and  C_5
REMARK    5  A    between atoms: C_8  and  C_9
REMARK    6  A    between atoms: C_9  and  O_10
REMARK    7  A    between atoms: C_9  and  C_11
REMARK    8  A    between atoms: C_11  and  C_12
REMARK                            x       y       z     vdW  Elec       q    Type
REMARK                         _______ _______ _______ _____ _____    ______ ____
ROOT
ATOM      1  C   UNL     1      48.448   3.645  16.797  0.00  0.00    +0.000 A 
ATOM      2  C   UNL     1      48.980   2.389  16.593  0.00  0.00    +0.000 A 
ATOM      3  N   UNL     1      50.230   2.045  16.949  0.00  0.00    +0.000 NA
ATOM      4  C   UNL     1      50.972   3.001  17.536  0.00  0.00    +0.000 A 
ATOM      5  N   UNL     1      50.559   4.263  17.746  0.00  0.00    +0.000 NA
ATOM      6  C   UNL     1      49.283   4.548  17.407  0.00  0.00    +0.000 A 
ENDROOT
BRANCH   1   7
ATOM      7  C   UNL     1      47.071   3.985  16.356  0.00  0.00    +0.000 C 
BRANCH   7   8
ATOM      8  O   UNL     1      47.077   4.728  15.141  0.00  0.00    +0.000 OA
BRANCH   8  10
ATOM      9  O   UNL     1      47.025   2.879  13.791  0.00  0.00    +0.000 OA
ATOM     10  C   UNL     1      46.760   4.053  14.006  0.00  0.00    +0.000 C 
BRANCH  10  11
ATOM     11  C   UNL     1      46.281   4.978  12.987  0.00  0.00    +0.000 A 
ATOM     12  C   UNL     1      46.960   6.129  12.629  0.00  0.00    +0.000 A 
ATOM     13  S   UNL     1      45.956   7.232  11.785  0.00  0.00    +0.000 S 
ATOM     14  C   UNL     1      44.624   6.171  11.874  0.00  0.00    +0.000 A 
ATOM     15  N   UNL     1      43.360   6.553  11.555  0.00  0.00    +0.000 NA
ATOM     16  C   UNL     1      42.472   5.625  11.706  0.00  0.00    +0.000 A 
ATOM     17  N   UNL     1      42.742   4.324  12.058  0.00  0.00    +0.000 N 
ATOM     18  C   UNL     1      44.015   3.874  12.309  0.00  0.00    +0.000 A 
ATOM     19  O   UNL     1      44.263   2.681  12.462  0.00  0.00    +0.000 OA
ATOM     20  C   UNL     1      45.001   4.932  12.345  0.00  0.00    +0.000 A 
ATOM     21  H   UNL     1      42.017   3.622  12.053  0.00  0.00    +0.000 HD
ENDBRANCH  10  11
ENDBRANCH   8  10
ENDBRANCH   7   8
ENDBRANCH   1   7
BRANCH   4  22
ATOM     22  C   UNL     1      52.415   2.650  17.876  0.00  0.00    +0.000 C 
BRANCH  22  23
ATOM     23  O   UNL     1      52.719   3.029  19.228  0.00  0.00    +0.000 OA
ATOM     24  H   UNL     1      52.448   3.961  19.307  0.00  0.00    +0.000 HD
ENDBRANCH  22  23
BRANCH  22  25
ATOM     25  C   UNL     1      52.682   1.148  17.719  0.00  0.00    +0.000 C 
BRANCH  25  26
ATOM     26  C   UNL     1      54.079   0.704  18.205  0.00  0.00    +0.000 C 
ATOM     27  C   UNL     1      55.243   1.462  17.547  0.00  0.00    +0.000 C 
ATOM     28  C   UNL     1      55.507   1.017  16.110  0.00  0.00    +0.000 C 
ATOM     29  C   UNL     1      55.524  -0.503  15.959  0.00  0.00    +0.000 C 
ATOM     30  N   UNL     1      54.348  -1.132  16.559  0.00  0.00    +0.000 NA
ATOM     31  C   UNL     1      54.257  -0.807  17.983  0.00  0.00    +0.000 C 
ATOM     32  H   UNL     1      54.414  -2.143  16.449  0.00  0.00    +0.000 HD
ENDBRANCH  25  26
ENDBRANCH  22  25
ENDBRANCH   4  22
TORSDOF 8
ENDMDL
MODEL 6
REMARK VINA RESULT:    -6.974      2.004      3.006
REMARK INTER + INTRA:         -10.897
REMARK INTER:                 -10.234
REMARK INTRA:                  -0.663
REMARK UNBOUND:                -0.865
REMARK  Name = 
REMARK  8 active torsions:
REMARK  status: ('A' for Active; 'I' for Inactive)
REMARK    1  A    between atoms: C_2  and  O_3
REMARK    2  A    between atoms: C_2  and  C_20
REMARK    3  A    between atoms: O_3  and  C_4
REMARK    4  A    between atoms: C_4  and  C_5
REMARK    5  A    between atoms: C_8  and  C_9
REMARK    6  A    between atoms: C_9  and  O_10
REMARK    7  A    between atoms: C_9  and  C_11
REMARK    8  A    between atoms: C_11  and  C_12
REMARK                            x       y       z     vdW  Elec       q    Type
REMARK                         _______ _______ _______ _____ _____    ______ ____
ROOT
ATOM      1  C   UNL     1      47.355   7.150  13.205  0.00  0.00    +0.000 A 
ATOM      2  C   UNL     1      46.635   6.050  13.619  0.00  0.00    +0.000 A 
ATOM      3  N   UNL     1      45.427   5.724  13.127  0.00  0.00    +0.000 NA
ATOM      4  C   UNL     1      44.925   6.537  12.181  0.00  0.00    +0.000 A 
ATOM      5  N   UNL     1      45.530   7.652  11.736  0.00  0.00    +0.000 NA
ATOM      6  C   UNL     1      46.759   7.914  12.232  0.00  0.00    +0.000 A 
ENDROOT
BRANCH   1   7
ATOM      7  C   UNL     1      48.672   7.485  13.803  0.00  0.00    +0.000 C 
BRANCH   7   8
ATOM      8  O   UNL     1      49.062   6.530  14.785  0.00  0.00    +0.000 OA
BRANCH   8  10
ATOM      9  O   UNL     1      48.649   8.025  16.470  0.00  0.00    +0.000 OA
ATOM     10  C   UNL     1      49.067   6.945  16.078  0.00  0.00    +0.000 C 
BRANCH  10  11
ATOM     11  C   UNL     1      49.858   6.034  16.896  0.00  0.00    +0.000 A 
ATOM     12  C   UNL     1      51.098   6.362  17.412  0.00  0.00    +0.000 A 
ATOM     13  S   UNL     1      51.977   4.976  17.907  0.00  0.00    +0.000 S 
ATOM     14  C   UNL     1      50.699   3.940  17.457  0.00  0.00    +0.000 A 
ATOM     15  N   UNL     1      50.840   2.590  17.388  0.00  0.00    +0.000 NA
ATOM     16  C   UNL     1      49.774   1.966  17.003  0.00  0.00    +0.000 A 
ATOM     17  N   UNL     1      48.555   2.555  16.771  0.00  0.00    +0.000 N 
ATOM     18  C   UNL     1      48.347   3.905  16.909  0.00  0.00    +0.000 A 
ATOM     19  O   UNL     1      47.223   4.398  16.858  0.00  0.00    +0.000 OA
ATOM     20  C   UNL     1      49.563   4.653  17.139  0.00  0.00    +0.000 A 
ATOM     21  H   UNL     1      47.735   1.998  16.579  0.00  0.00    +0.000 HD
ENDBRANCH  10  11
ENDBRANCH   8  10
ENDBRANCH   7   8
ENDBRANCH   1   7
BRANCH   4  22
ATOM     22  C   UNL     1      43.525   6.225  11.668  0.00  0.00    +0.000 C 
BRANCH  22  23
ATOM     23  O   UNL     1      42.937   7.391  11.068  0.00  0.00    +0.000 OA
ATOM     24  H   UNL     1      42.882   7.196  10.115  0.00  0.00    +0.000 HD
ENDBRANCH  22  23
BRANCH  22  25
ATOM     25  C   UNL     1      43.542   5.098  10.627  0.00  0.00    +0.000 C 
BRANCH  25  26
ATOM     26  C   UNL     1      44.940   4.485  10.388  0.00  0.00    +0.000 C 
ATOM     27  C   UNL     1      45.397   4.520   8.921  0.00  0.00    +0.000 C 
ATOM     28  C   UNL     1      44.695   3.477   8.053  0.00  0.00    +0.000 C 
ATOM     29  C   UNL     1      44.651   2.099   8.711  0.00  0.00    +0.000 C 
ATOM     30  N   UNL     1      44.145   2.156  10.082  0.00  0.00    +0.000 NA
ATOM     31  C   UNL     1      44.974   3.037  10.905  0.00  0.00    +0.000 C 
ATOM     32  H   UNL     1      44.151   1.218  10.482  0.00  0.00    +0.000 HD
ENDBRANCH  25  26
ENDBRANCH  22  25
ENDBRANCH   4  22
TORSDOF 8
ENDMDL
MODEL 7
REMARK VINA RESULT:    -6.922      2.155      3.126
REMARK INTER + INTRA:         -10.823
REMARK INTER:                 -10.161
REMARK INTRA:                  -0.662
REMARK UNBOUND:                -0.865
REMARK  Name = 
REMARK  8 active torsions:
REMARK  status: ('A' for Active; 'I' for Inactive)
REMARK    1  A    between atoms: C_2  and  O_3
REMARK    2  A    between atoms: C_2  and  C_20
REMARK    3  A    between atoms: O_3  and  C_4
REMARK    4  A    between atoms: C_4  and  C_5
REMARK    5  A    between atoms: C_8  and  C_9
REMARK    6  A    between atoms: C_9  and  O_10
REMARK    7  A    between atoms: C_9  and  C_11
REMARK    8  A    between atoms: C_11  and  C_12
REMARK                            x       y       z     vdW  Elec       q    Type
REMARK                         _______ _______ _______ _____ _____    ______ ____
ROOT
ATOM      1  C   UNL     1      47.237   7.073  13.269  0.00  0.00    +0.000 A 
ATOM      2  C   UNL     1      46.517   5.965  13.661  0.00  0.00    +0.000 A 
ATOM      3  N   UNL     1      45.320   5.636  13.147  0.00  0.00    +0.000 NA
ATOM      4  C   UNL     1      44.828   6.455  12.199  0.00  0.00    +0.000 A 
ATOM      5  N   UNL     1      45.434   7.577  11.774  0.00  0.00    +0.000 NA
ATOM      6  C   UNL     1      46.653   7.842  12.293  0.00  0.00    +0.000 A 
ENDROOT
BRANCH   1   7
ATOM      7  C   UNL     1      48.543   7.410  13.892  0.00  0.00    +0.000 C 
BRANCH   7   8
ATOM      8  O   UNL     1      49.038   6.338  14.687  0.00  0.00    +0.000 OA
BRANCH   8  10
ATOM      9  O   UNL     1      51.040   6.671  15.749  0.00  0.00    +0.000 OA
ATOM     10  C   UNL     1      49.818   6.670  15.749  0.00  0.00    +0.000 C 
BRANCH  10  11
ATOM     11  C   UNL     1      49.005   6.785  16.953  0.00  0.00    +0.000 A 
ATOM     12  C   UNL     1      48.537   7.992  17.438  0.00  0.00    +0.000 A 
ATOM     13  S   UNL     1      48.039   7.879  19.075  0.00  0.00    +0.000 S 
ATOM     14  C   UNL     1      48.424   6.219  19.133  0.00  0.00    +0.000 A 
ATOM     15  N   UNL     1      48.467   5.517  20.295  0.00  0.00    +0.000 NA
ATOM     16  C   UNL     1      48.803   4.276  20.152  0.00  0.00    +0.000 A 
ATOM     17  N   UNL     1      49.009   3.648  18.947  0.00  0.00    +0.000 N 
ATOM     18  C   UNL     1      48.896   4.299  17.744  0.00  0.00    +0.000 A 
ATOM     19  O   UNL     1      48.921   3.697  16.674  0.00  0.00    +0.000 OA
ATOM     20  C   UNL     1      48.721   5.729  17.879  0.00  0.00    +0.000 A 
ATOM     21  H   UNL     1      49.162   2.651  18.898  0.00  0.00    +0.000 HD
ENDBRANCH  10  11
ENDBRANCH   8  10
ENDBRANCH   7   8
ENDBRANCH   1   7
BRANCH   4  22
ATOM     22  C   UNL     1      43.439   6.139  11.660  0.00  0.00    +0.000 C 
BRANCH  22  23
ATOM     23  O   UNL     1      42.862   7.302  11.044  0.00  0.00    +0.000 OA
ATOM     24  H   UNL     1      43.016   7.196  10.089  0.00  0.00    +0.000 HD
ENDBRANCH  22  23
BRANCH  22  25
ATOM     25  C   UNL     1      43.478   5.007  10.625  0.00  0.00    +0.000 C 
BRANCH  25  26
ATOM     26  C   UNL     1      44.887   4.420  10.389  0.00  0.00    +0.000 C 
ATOM     27  C   UNL     1      45.357   4.486   8.927  0.00  0.00    +0.000 C 
ATOM     28  C   UNL     1      44.679   3.447   8.036  0.00  0.00    +0.000 C 
ATOM     29  C   UNL     1      44.651   2.057   8.670  0.00  0.00    +0.000 C 
ATOM     30  N   UNL     1      44.131   2.084  10.037  0.00  0.00    +0.000 NA
ATOM     31  C   UNL     1      44.939   2.965  10.882  0.00  0.00    +0.000 C 
ATOM     32  H   UNL     1      44.148   1.141  10.423  0.00  0.00    +0.000 HD
ENDBRANCH  25  26
ENDBRANCH  22  25
ENDBRANCH   4  22
TORSDOF 8
ENDMDL
MODEL 8
REMARK VINA RESULT:    -6.817      2.441      3.509
REMARK INTER + INTRA:         -10.672
REMARK INTER:                  -9.566
REMARK INTRA:                  -1.106
REMARK UNBOUND:                -0.865
REMARK  Name = 
REMARK  8 active torsions:
REMARK  status: ('A' for Active; 'I' for Inactive)
REMARK    1  A    between atoms: C_2  and  O_3
REMARK    2  A    between atoms: C_2  and  C_20
REMARK    3  A    between atoms: O_3  and  C_4
REMARK    4  A    between atoms: C_4  and  C_5
REMARK    5  A    between atoms: C_8  and  C_9
REMARK    6  A    between atoms: C_9  and  O_10
REMARK    7  A    between atoms: C_9  and  C_11
REMARK    8  A    between atoms: C_11  and  C_12
REMARK                            x       y       z     vdW  Elec       q    Type
REMARK                         _______ _______ _______ _____ _____    ______ ____
ROOT
ATOM      1  C   UNL     1      48.257   6.992  14.366  0.00  0.00    +0.000 A 
ATOM      2  C   UNL     1      47.710   8.131  13.814  0.00  0.00    +0.000 A 
ATOM      3  N   UNL     1      46.618   8.125  13.030  0.00  0.00    +0.000 NA
ATOM      4  C   UNL     1      46.054   6.927  12.794  0.00  0.00    +0.000 A 
ATOM      5  N   UNL     1      46.532   5.758  13.255  0.00  0.00    +0.000 NA
ATOM      6  C   UNL     1      47.606   5.820  14.070  0.00  0.00    +0.000 A 
ENDROOT
BRANCH   1   7
ATOM      7  C   UNL     1      49.485   7.049  15.201  0.00  0.00    +0.000 C 
BRANCH   7   8
ATOM      8  O   UNL     1      49.288   7.831  16.374  0.00  0.00    +0.000 OA
BRANCH   8  10
ATOM      9  O   UNL     1      47.925   7.633  18.204  0.00  0.00    +0.000 OA
ATOM     10  C   UNL     1      48.792   7.190  17.464  0.00  0.00    +0.000 C 
BRANCH  10  11
ATOM     11  C   UNL     1      49.602   6.018  17.771  0.00  0.00    +0.000 A 
ATOM     12  C   UNL     1      50.944   6.089  18.096  0.00  0.00    +0.000 A 
ATOM     13  S   UNL     1      51.726   4.572  17.935  0.00  0.00    +0.000 S 
ATOM     14  C   UNL     1      50.275   3.814  17.455  0.00  0.00    +0.000 A 
ATOM     15  N   UNL     1      50.241   2.559  16.936  0.00  0.00    +0.000 NA
ATOM     16  C   UNL     1      49.057   2.156  16.604  0.00  0.00    +0.000 A 
ATOM     17  N   UNL     1      47.894   2.854  16.827  0.00  0.00    +0.000 N 
ATOM     18  C   UNL     1      47.875   4.091  17.423  0.00  0.00    +0.000 A 
ATOM     19  O   UNL     1      46.827   4.632  17.764  0.00  0.00    +0.000 OA
ATOM     20  C   UNL     1      49.194   4.653  17.621  0.00  0.00    +0.000 A 
ATOM     21  H   UNL     1      46.993   2.438  16.643  0.00  0.00    +0.000 HD
ENDBRANCH  10  11
ENDBRANCH   8  10
ENDBRANCH   7   8
ENDBRANCH   1   7
BRANCH   4  22
ATOM     22  C   UNL     1      44.862   6.894  11.847  0.00  0.00    +0.000 C 
BRANCH  22  23
ATOM     23  O   UNL     1      44.719   8.155  11.174  0.00  0.00    +0.000 OA
ATOM     24  H   UNL     1      44.998   8.829  11.819  0.00  0.00    +0.000 HD
ENDBRANCH  22  23
BRANCH  22  25
ATOM     25  C   UNL     1      45.010   5.791  10.790  0.00  0.00    +0.000 C 
BRANCH  25  26
ATOM     26  C   UNL     1      43.729   4.959  10.566  0.00  0.00    +0.000 C 
ATOM     27  C   UNL     1      42.736   5.007  11.739  0.00  0.00    +0.000 C 
ATOM     28  C   UNL     1      43.181   4.162  12.931  0.00  0.00    +0.000 C 
ATOM     29  C   UNL     1      43.667   2.774  12.519  0.00  0.00    +0.000 C 
ATOM     30  N   UNL     1      44.654   2.831  11.442  0.00  0.00    +0.000 NA
ATOM     31  C   UNL     1      44.098   3.498  10.263  0.00  0.00    +0.000 C 
ATOM     32  H   UNL     1      44.934   1.883  11.191  0.00  0.00    +0.000 HD
ENDBRANCH  25  26
ENDBRANCH  22  25
ENDBRANCH   4  22
TORSDOF 8
ENDMDL
MODEL 9
REMARK VINA RESULT:    -6.578      2.610      3.734
REMARK INTER + INTRA:         -10.328
REMARK INTER:                  -9.373
REMARK INTRA:                  -0.955
REMARK UNBOUND:                -0.865
REMARK  Name = 
REMARK  8 active torsions:
REMARK  status: ('A' for Active; 'I' for Inactive)
REMARK    1  A    between atoms: C_2  and  O_3
REMARK    2  A    between atoms: C_2  and  C_20
REMARK    3  A    between atoms: O_3  and  C_4
REMARK    4  A    between atoms: C_4  and  C_5
REMARK    5  A    between atoms: C_8  and  C_9
REMARK    6  A    between atoms: C_9  and  O_10
REMARK    7  A    between atoms: C_9  and  C_11
REMARK    8  A    between atoms: C_11  and  C_12
REMARK                            x       y       z     vdW  Elec       q    Type
REMARK                         _______ _______ _______ _____ _____    ______ ____
ROOT
ATOM      1  C   UNL     1      47.393   6.892  13.679  0.00  0.00    +0.000 A 
ATOM      2  C   UNL     1      46.401   7.586  13.020  0.00  0.00    +0.000 A 
ATOM      3  N   UNL     1      45.222   7.044  12.670  0.00  0.00    +0.000 NA
ATOM      4  C   UNL     1      45.034   5.753  12.998  0.00  0.00    +0.000 A 
ATOM      5  N   UNL     1      45.951   4.981  13.607  0.00  0.00    +0.000 NA
ATOM      6  C   UNL     1      47.103   5.583  13.973  0.00  0.00    +0.000 A 
ENDROOT
BRANCH   1   7
ATOM      7  C   UNL     1      48.692   7.529  14.016  0.00  0.00    +0.000 C 
BRANCH   7   8
ATOM      8  O   UNL     1      49.576   6.614  14.656  0.00  0.00    +0.000 OA
BRANCH   8  10
ATOM      9  O   UNL     1      51.398   7.919  15.130  0.00  0.00    +0.000 OA
ATOM     10  C   UNL     1      50.519   7.144  15.478  0.00  0.00    +0.000 C 
BRANCH  10  11
ATOM     11  C   UNL     1      50.489   6.477  16.773  0.00  0.00    +0.000 A 
ATOM     12  C   UNL     1      51.377   5.480  17.133  0.00  0.00    +0.000 A 
ATOM     13  S   UNL     1      50.819   4.575  18.477  0.00  0.00    +0.000 S 
ATOM     14  C   UNL     1      49.406   5.522  18.597  0.00  0.00    +0.000 A 
ATOM     15  N   UNL     1      48.355   5.173  19.384  0.00  0.00    +0.000 NA
ATOM     16  C   UNL     1      47.358   5.996  19.331  0.00  0.00    +0.000 A 
ATOM     17  N   UNL     1      47.350   7.182  18.635  0.00  0.00    +0.000 N 
ATOM     18  C   UNL     1      48.421   7.612  17.892  0.00  0.00    +0.000 A 
ATOM     19  O   UNL     1      48.466   8.741  17.411  0.00  0.00    +0.000 OA
ATOM     20  C   UNL     1      49.469   6.623  17.770  0.00  0.00    +0.000 A 
ATOM     21  H   UNL     1      46.582   7.831  18.722  0.00  0.00    +0.000 HD
ENDBRANCH  10  11
ENDBRANCH   8  10
ENDBRANCH   7   8
ENDBRANCH   1   7
BRANCH   4  22
ATOM     22  C   UNL     1      43.734   5.102  12.542  0.00  0.00    +0.000 C 
BRANCH  22  23
ATOM     23  O   UNL     1      42.614   5.948  12.846  0.00  0.00    +0.000 OA
ATOM     24  H   UNL     1      42.315   5.678  13.733  0.00  0.00    +0.000 HD
ENDBRANCH  22  23
BRANCH  22  25
ATOM     25  C   UNL     1      43.741   4.825  11.033  0.00  0.00    +0.000 C 
BRANCH  25  26
ATOM     26  C   UNL     1      45.105   4.349  10.486  0.00  0.00    +0.000 C 
ATOM     27  C   UNL     1      45.296   4.589   8.980  0.00  0.00    +0.000 C 
ATOM     28  C   UNL     1      44.509   3.605   8.116  0.00  0.00    +0.000 C 
ATOM     29  C   UNL     1      44.653   2.160   8.591  0.00  0.00    +0.000 C 
ATOM     30  N   UNL     1      44.392   2.020  10.023  0.00  0.00    +0.000 NA
ATOM     31  C   UNL     1      45.305   2.858  10.801  0.00  0.00    +0.000 C 
ATOM     32  H   UNL     1      44.517   1.045  10.294  0.00  0.00    +0.000 HD
ENDBRANCH  25  26
ENDBRANCH  22  25
ENDBRANCH   4  22
TORSDOF 8
ENDMDL
