MODEL 1
REMARK VINA RESULT:    -7.272      0.000      0.000
REMARK INTER + INTRA:         -10.969
REMARK INTER:                 -10.248
REMARK INTRA:                  -0.721
REMARK UNBOUND:                -0.721
REMARK  Name = 
REMARK  7 active torsions:
REMARK  status: ('A' for Active; 'I' for Inactive)
REMARK    1  A    between atoms: C_2  and  C_20
REMARK    2  A    between atoms: N_3  and  C_4
REMARK    3  A    between atoms: C_4  and  C_5
REMARK    4  A    between atoms: C_8  and  O_9
REMARK    5  A    between atoms: O_9  and  C_10
REMARK    6  A    between atoms: C_10  and  C_11
REMARK    7  A    between atoms: C_11  and  N_12
REMARK                            x       y       z     vdW  Elec       q    Type
REMARK                         _______ _______ _______ _____ _____    ______ ____
ROOT
ATOM      1  C   UNL     1      47.965   7.170  13.666  0.00  0.00    +0.000 C 
ENDROOT
BRANCH   1   2
ATOM      2  C   UNL     1      46.831   6.222  13.413  0.00  0.00    +0.000 A 
ATOM      3  C   UNL     1      45.672   6.619  12.739  0.00  0.00    +0.000 A 
ATOM      4  C   UNL     1      44.619   5.719  12.577  0.00  0.00    +0.000 A 
ATOM      5  C   UNL     1      44.758   4.452  13.113  0.00  0.00    +0.000 A 
ATOM      6  N   UNL     1      45.882   4.022  13.730  0.00  0.00    +0.000 NA
ATOM      7  C   UNL     1      46.881   4.915  13.880  0.00  0.00    +0.000 A 
BRANCH   5   8
ATOM      8  O   UNL     1      43.653   3.613  13.057  0.00  0.00    +0.000 OA
BRANCH   8   9
ATOM      9  C   UNL     1      43.343   3.302  11.692  0.00  0.00    +0.000 C 
BRANCH   9  10
ATOM     10  C   UNL     1      44.570   2.782  10.924  0.00  0.00    +0.000 C 
BRANCH  10  11
ATOM     11  N   UNL     1      44.277   2.734   9.486  0.00  0.00    +0.000 NA
ATOM     12  C   UNL     1      44.938   1.643   8.744  0.00  0.00    +0.000 C 
ATOM     13  C   UNL     1      46.280   1.984   8.069  0.00  0.00    +0.000 C 
ATOM     14  O   UNL     1      46.252   3.238   7.383  0.00  0.00    +0.000 OA
ATOM     15  C   UNL     1      45.854   4.277   8.281  0.00  0.00    +0.000 C 
ATOM     16  C   UNL     1      44.434   4.018   8.791  0.00  0.00    +0.000 C 
ENDBRANCH  10  11
ENDBRANCH   9  10
ENDBRANCH   8   9
ENDBRANCH   5   8
ENDBRANCH   1   2
BRANCH   1  19
ATOM     17  O   UNL     1      49.910   6.325  15.499  0.00  0.00    +0.000 OA
ATOM     18  C   UNL     1      49.041   7.102  15.884  0.00  0.00    +0.000 C 
ATOM     19  N   UNL     1      48.044   7.550  15.055  0.00  0.00    +0.000 N 
ATOM     20  H   UNL     1      47.445   8.310  15.362  0.00  0.00    +0.000 HD
BRANCH  18  21
ATOM     21  C   UNL     1      48.989   7.556  17.281  0.00  0.00    +0.000 A 
ATOM     22  C   UNL     1      49.599   8.754  17.632  0.00  0.00    +0.000 A 
ATOM     23  S   UNL     1      49.446   9.143  19.285  0.00  0.00    +0.000 S 
ATOM     24  C   UNL     1      48.524   7.744  19.584  0.00  0.00    +0.000 A 
ATOM     25  N   UNL     1      48.027   7.488  20.824  0.00  0.00    +0.000 NA
ATOM     26  C   UNL     1      47.315   6.413  20.900  0.00  0.00    +0.000 A 
ATOM     27  N   UNL     1      47.071   5.561  19.855  0.00  0.00    +0.000 N 
ATOM     28  C   UNL     1      47.620   5.738  18.606  0.00  0.00    +0.000 A 
ATOM     29  O   UNL     1      47.505   4.886  17.731  0.00  0.00    +0.000 OA
ATOM     30  C   UNL     1      48.374   6.969  18.448  0.00  0.00    +0.000 A 
ATOM     31  H   UNL     1      46.539   4.715  19.992  0.00  0.00    +0.000 HD
ENDBRANCH  18  21
ENDBRANCH   1  19
TORSDOF 7
ENDMDL
MODEL 2
REMARK VINA RESULT:    -7.155      1.963      2.252
REMARK INTER + INTRA:         -10.804
REMARK INTER:                 -10.139
REMARK INTRA:                  -0.665
REMARK UNBOUND:                -0.721
REMARK  Name = 
REMARK  7 active torsions:
REMARK  status: ('A' for Active; 'I' for Inactive)
REMARK    1  A    between atoms: C_2  and  C_20
REMARK    2  A    between atoms: N_3  and  C_4
REMARK    3  A    between atoms: C_4  and  C_5
REMARK    4  A    between atoms: C_8  and  O_9
REMARK    5  A    between atoms: O_9  and  C_10
REMARK    6  A    between atoms: C_10  and  C_11
REMARK    7  A    between atoms: C_11  and  N_12
REMARK                            x       y       z     vdW  Elec       q    Type
REMARK                         _______ _______ _______ _____ _____    ______ ____
ROOT
ATOM      1  C   UNL     1      47.011   8.074  13.342  0.00  0.00    +0.000 C 
ENDROOT
BRANCH   1   2
ATOM      2  C   UNL     1      45.986   7.153  12.754  0.00  0.00    +0.000 A 
ATOM      3  C   UNL     1      45.736   5.886  13.292  0.00  0.00    +0.000 A 
ATOM      4  C   UNL     1      44.813   5.040  12.678  0.00  0.00    +0.000 A 
ATOM      5  C   UNL     1      44.181   5.487  11.532  0.00  0.00    +0.000 A 
ATOM      6  N   UNL     1      44.366   6.722  11.013  0.00  0.00    +0.000 NA
ATOM      7  C   UNL     1      45.270   7.516  11.621  0.00  0.00    +0.000 A 
BRANCH   5   8
ATOM      8  O   UNL     1      43.365   4.586  10.862  0.00  0.00    +0.000 OA
BRANCH   8   9
ATOM      9  C   UNL     1      43.823   3.247  11.092  0.00  0.00    +0.000 C 
BRANCH   9  10
ATOM     10  C   UNL     1      45.115   2.937  10.318  0.00  0.00    +0.000 C 
BRANCH  10  11
ATOM     11  N   UNL     1      44.792   2.546   8.939  0.00  0.00    +0.000 NA
ATOM     12  C   UNL     1      45.432   1.302   8.470  0.00  0.00    +0.000 C 
ATOM     13  C   UNL     1      46.762   1.457   7.707  0.00  0.00    +0.000 C 
ATOM     14  O   UNL     1      46.724   2.509   6.740  0.00  0.00    +0.000 OA
ATOM     15  C   UNL     1      46.351   3.738   7.368  0.00  0.00    +0.000 C 
ATOM     16  C   UNL     1      44.941   3.623   7.953  0.00  0.00    +0.000 C 
ENDBRANCH  10  11
ENDBRANCH   9  10
ENDBRANCH   8   9
ENDBRANCH   5   8
ENDBRANCH   1   2
BRANCH   1  19
ATOM     17  O   UNL     1      49.409   6.676  13.732  0.00  0.00    +0.000 OA
ATOM     18  C   UNL     1      48.707   6.918  14.710  0.00  0.00    +0.000 C 
ATOM     19  N   UNL     1      47.511   7.582  14.603  0.00  0.00    +0.000 N 
ATOM     20  H   UNL     1      47.043   7.903  15.444  0.00  0.00    +0.000 HD
BRANCH  18  21
ATOM     21  C   UNL     1      49.086   6.458  16.053  0.00  0.00    +0.000 A 
ATOM     22  C   UNL     1      49.865   7.277  16.860  0.00  0.00    +0.000 A 
ATOM     23  S   UNL     1      50.214   6.604  18.388  0.00  0.00    +0.000 S 
ATOM     24  C   UNL     1      49.301   5.209  18.041  0.00  0.00    +0.000 A 
ATOM     25  N   UNL     1      49.152   4.225  18.968  0.00  0.00    +0.000 NA
ATOM     26  C   UNL     1      48.404   3.243  18.586  0.00  0.00    +0.000 A 
ATOM     27  N   UNL     1      47.809   3.147  17.356  0.00  0.00    +0.000 N 
ATOM     28  C   UNL     1      47.998   4.079  16.361  0.00  0.00    +0.000 A 
ATOM     29  O   UNL     1      47.574   3.896  15.225  0.00  0.00    +0.000 OA
ATOM     30  C   UNL     1      48.776   5.238  16.761  0.00  0.00    +0.000 A 
ATOM     31  H   UNL     1      47.269   2.332  17.106  0.00  0.00    +0.000 HD
ENDBRANCH  18  21
ENDBRANCH   1  19
TORSDOF 7
ENDMDL
MODEL 3
REMARK VINA RESULT:    -7.022      4.961      6.092
REMARK INTER + INTRA:         -10.617
REMARK INTER:                  -9.583
REMARK INTRA:                  -1.034
REMARK UNBOUND:                -0.721
REMARK  Name = 
REMARK  7 active torsions:
REMARK  status: ('A' for Active; 'I' for Inactive)
REMARK    1  A    between atoms: C_2  and  C_20
REMARK    2  A    between atoms: N_3  and  C_4
REMARK    3  A    between atoms: C_4  and  C_5
REMARK    4  A    between atoms: C_8  and  O_9
REMARK    5  A    between atoms: O_9  and  C_10
REMARK    6  A    between atoms: C_10  and  C_11
REMARK    7  A    between atoms: C_11  and  N_12
REMARK                            x       y       z     vdW  Elec       q    Type
REMARK                         _______ _______ _______ _____ _____    ______ ____
ROOT
ATOM      1  C   UNL     1      49.862   4.934  19.382  0.00  0.00    +0.000 C 
ENDROOT
BRANCH   1   2
ATOM      2  C   UNL     1      48.976   4.638  18.209  0.00  0.00    +0.000 A 
ATOM      3  C   UNL     1      48.141   3.517  18.177  0.00  0.00    +0.000 A 
ATOM      4  C   UNL     1      47.377   3.251  17.041  0.00  0.00    +0.000 A 
ATOM      5  C   UNL     1      47.489   4.113  15.965  0.00  0.00    +0.000 A 
ATOM      6  N   UNL     1      48.251   5.230  15.980  0.00  0.00    +0.000 NA
ATOM      7  C   UNL     1      48.986   5.457  17.088  0.00  0.00    +0.000 A 
BRANCH   5   8
ATOM      8  O   UNL     1      46.823   3.763  14.798  0.00  0.00    +0.000 OA
BRANCH   8   9
ATOM      9  C   UNL     1      46.961   4.805  13.824  0.00  0.00    +0.000 C 
BRANCH   9  10
ATOM     10  C   UNL     1      45.598   5.347  13.361  0.00  0.00    +0.000 C 
BRANCH  10  11
ATOM     11  N   UNL     1      44.638   4.243  13.230  0.00  0.00    +0.000 NA
ATOM     12  C   UNL     1      44.951   3.256  12.179  0.00  0.00    +0.000 C 
ATOM     13  C   UNL     1      44.293   3.481  10.805  0.00  0.00    +0.000 C 
ATOM     14  O   UNL     1      42.909   3.826  10.904  0.00  0.00    +0.000 OA
ATOM     15  C   UNL     1      42.751   4.976  11.740  0.00  0.00    +0.000 C 
ATOM     16  C   UNL     1      43.234   4.665  13.159  0.00  0.00    +0.000 C 
ENDBRANCH  10  11
ENDBRANCH   9  10
ENDBRANCH   8   9
ENDBRANCH   5   8
ENDBRANCH   1   2
BRANCH   1  19
ATOM     17  O   UNL     1      52.435   5.610  18.503  0.00  0.00    +0.000 OA
ATOM     18  C   UNL     1      52.252   4.490  18.970  0.00  0.00    +0.000 C 
ATOM     19  N   UNL     1      51.020   4.074  19.406  0.00  0.00    +0.000 N 
ATOM     20  H   UNL     1      50.943   3.208  19.930  0.00  0.00    +0.000 HD
BRANCH  18  21
ATOM     21  C   UNL     1      53.341   3.505  19.036  0.00  0.00    +0.000 A 
ATOM     22  C   UNL     1      54.528   3.842  19.674  0.00  0.00    +0.000 A 
ATOM     23  S   UNL     1      55.687   2.591  19.671  0.00  0.00    +0.000 S 
ATOM     24  C   UNL     1      54.629   1.539  18.853  0.00  0.00    +0.000 A 
ATOM     25  N   UNL     1      54.997   0.261  18.569  0.00  0.00    +0.000 NA
ATOM     26  C   UNL     1      54.084  -0.438  17.980  0.00  0.00    +0.000 A 
ATOM     27  N   UNL     1      52.845   0.031  17.631  0.00  0.00    +0.000 N 
ATOM     28  C   UNL     1      52.460   1.338  17.826  0.00  0.00    +0.000 A 
ATOM     29  O   UNL     1      51.404   1.767  17.373  0.00  0.00    +0.000 OA
ATOM     30  C   UNL     1      53.425   2.149  18.546  0.00  0.00    +0.000 A 
ATOM     31  H   UNL     1      52.192  -0.557  17.135  0.00  0.00    +0.000 HD
ENDBRANCH  18  21
ENDBRANCH   1  19
TORSDOF 7
ENDMDL
MODEL 4
REMARK VINA RESULT:    -6.970      3.044      8.599
REMARK INTER + INTRA:         -10.542
REMARK INTER:                  -9.188
REMARK INTRA:                  -1.354
REMARK UNBOUND:                -0.721
REMARK  Name = 
REMARK  7 active torsions:
REMARK  status: ('A' for Active; 'I' for Inactive)
REMARK    1  A    between atoms: C_2  and  C_20
REMARK    2  A    between atoms: N_3  and  C_4
REMARK    3  A    between atoms: C_4  and  C_5
REMARK    4  A    between atoms: C_8  and  O_9
REMARK    5  A    between atoms: O_9  and  C_10
REMARK    6  A    between atoms: C_10  and  C_11
REMARK    7  A    between atoms: C_11  and  N_12
REMARK                            x       y       z     vdW  Elec       q    Type
REMARK                         _______ _______ _______ _____ _____    ______ ____
ROOT
ATOM      1  C   UNL     1      47.896   8.062  11.782  0.00  0.00    +0.000 C 
ENDROOT
BRANCH   1   2
ATOM      2  C   UNL     1      48.533   8.203  13.132  0.00  0.00    +0.000 A 
ATOM      3  C   UNL     1      49.799   7.677  13.410  0.00  0.00    +0.000 A 
ATOM      4  C   UNL     1      50.328   7.782  14.696  0.00  0.00    +0.000 A 
ATOM      5  C   UNL     1      49.561   8.401  15.667  0.00  0.00    +0.000 A 
ATOM      6  N   UNL     1      48.355   8.960  15.421  0.00  0.00    +0.000 NA
ATOM      7  C   UNL     1      47.863   8.835  14.171  0.00  0.00    +0.000 A 
BRANCH   5   8
ATOM      8  O   UNL     1      50.046   8.382  16.968  0.00  0.00    +0.000 OA
BRANCH   8   9
ATOM      9  C   UNL     1      50.651   7.112  17.247  0.00  0.00    +0.000 C 
BRANCH   9  10
ATOM     10  C   UNL     1      49.653   6.122  17.870  0.00  0.00    +0.000 C 
BRANCH  10  11
ATOM     11  N   UNL     1      49.444   4.984  16.965  0.00  0.00    +0.000 NA
ATOM     12  C   UNL     1      48.135   4.949  16.286  0.00  0.00    +0.000 C 
ATOM     13  C   UNL     1      47.029   4.119  16.963  0.00  0.00    +0.000 C 
ATOM     14  O   UNL     1      47.494   2.848  17.422  0.00  0.00    +0.000 OA
ATOM     15  C   UNL     1      48.610   3.023  18.300  0.00  0.00    +0.000 C 
ATOM     16  C   UNL     1      49.773   3.677  17.548  0.00  0.00    +0.000 C 
ENDBRANCH  10  11
ENDBRANCH   9  10
ENDBRANCH   8   9
ENDBRANCH   5   8
ENDBRANCH   1   2
BRANCH   1  19
ATOM     17  O   UNL     1      45.103   7.844  11.871  0.00  0.00    +0.000 OA
ATOM     18  C   UNL     1      45.765   6.823  11.714  0.00  0.00    +0.000 C 
ATOM     19  N   UNL     1      47.136   6.840  11.676  0.00  0.00    +0.000 N 
ATOM     20  H   UNL     1      47.637   6.007  11.386  0.00  0.00    +0.000 HD
BRANCH  18  21
ATOM     21  C   UNL     1      45.121   5.506  11.611  0.00  0.00    +0.000 A 
ATOM     22  C   UNL     1      44.451   4.985  12.711  0.00  0.00    +0.000 A 
ATOM     23  S   UNL     1      43.755   3.455  12.430  0.00  0.00    +0.000 S 
ATOM     24  C   UNL     1      44.288   3.449  10.813  0.00  0.00    +0.000 A 
ATOM     25  N   UNL     1      43.984   2.417   9.981  0.00  0.00    +0.000 NA
ATOM     26  C   UNL     1      44.420   2.560   8.774  0.00  0.00    +0.000 A 
ATOM     27  N   UNL     1      45.148   3.632   8.328  0.00  0.00    +0.000 N 
ATOM     28  C   UNL     1      45.547   4.657   9.154  0.00  0.00    +0.000 A 
ATOM     29  O   UNL     1      46.320   5.527   8.765  0.00  0.00    +0.000 OA
ATOM     30  C   UNL     1      45.026   4.579  10.507  0.00  0.00    +0.000 A 
ATOM     31  H   UNL     1      45.493   3.663   7.380  0.00  0.00    +0.000 HD
ENDBRANCH  18  21
ENDBRANCH   1  19
TORSDOF 7
ENDMDL
MODEL 5
REMARK VINA RESULT:    -6.965      3.256      7.960
REMARK INTER + INTRA:         -10.537
REMARK INTER:                  -9.242
REMARK INTRA:                  -1.295
REMARK UNBOUND:                -0.721
REMARK  Name = 
REMARK  7 active torsions:
REMARK  status: ('A' for Active; 'I' for Inactive)
REMARK    1  A    between atoms: C_2  and  C_20
REMARK    2  A    between atoms: N_3  and  C_4
REMARK    3  A    between atoms: C_4  and  C_5
REMARK    4  A    between atoms: C_8  and  O_9
REMARK    5  A    between atoms: O_9  and  C_10
REMARK    6  A    between atoms: C_10  and  C_11
REMARK    7  A    between atoms: C_11  and  N_12
REMARK                            x       y       z     vdW  Elec       q    Type
REMARK                         _______ _______ _______ _____ _____    ______ ____
ROOT
ATOM      1  C   UNL     1      48.044   8.280  12.085  0.00  0.00    +0.000 C 
ENDROOT
BRANCH   1   2
ATOM      2  C   UNL     1      48.416   8.062  13.521  0.00  0.00    +0.000 A 
ATOM      3  C   UNL     1      47.896   8.854  14.549  0.00  0.00    +0.000 A 
ATOM      4  C   UNL     1      48.315   8.652  15.863  0.00  0.00    +0.000 A 
ATOM      5  C   UNL     1      49.257   7.668  16.102  0.00  0.00    +0.000 A 
ATOM      6  N   UNL     1      49.746   6.854  15.139  0.00  0.00    +0.000 NA
ATOM      7  C   UNL     1      49.331   7.078  13.875  0.00  0.00    +0.000 A 
BRANCH   5   8
ATOM      8  O   UNL     1      49.758   7.567  17.392  0.00  0.00    +0.000 OA
BRANCH   8   9
ATOM      9  C   UNL     1      48.871   6.786  18.203  0.00  0.00    +0.000 C 
BRANCH   9  10
ATOM     10  C   UNL     1      49.402   5.362  18.436  0.00  0.00    +0.000 C 
BRANCH  10  11
ATOM     11  N   UNL     1      48.299   4.396  18.359  0.00  0.00    +0.000 NA
ATOM     12  C   UNL     1      48.701   2.994  18.137  0.00  0.00    +0.000 C 
ATOM     13  C   UNL     1      48.720   2.506  16.676  0.00  0.00    +0.000 C 
ATOM     14  O   UNL     1      47.564   2.917  15.941  0.00  0.00    +0.000 OA
ATOM     15  C   UNL     1      47.426   4.339  16.003  0.00  0.00    +0.000 C 
ATOM     16  C   UNL     1      47.213   4.785  17.451  0.00  0.00    +0.000 C 
ENDBRANCH  10  11
ENDBRANCH   9  10
ENDBRANCH   8   9
ENDBRANCH   5   8
ENDBRANCH   1   2
BRANCH   1  19
ATOM     17  O   UNL     1      45.281   7.938  11.761  0.00  0.00    +0.000 OA
ATOM     18  C   UNL     1      46.030   7.042  11.383  0.00  0.00    +0.000 C 
ATOM     19  N   UNL     1      47.392   7.124  11.521  0.00  0.00    +0.000 N 
ATOM     20  H   UNL     1      47.982   6.442  11.054  0.00  0.00    +0.000 HD
BRANCH  18  21
ATOM     21  C   UNL     1      45.500   5.798  10.806  0.00  0.00    +0.000 A 
ATOM     22  C   UNL     1      45.779   5.487   9.482  0.00  0.00    +0.000 A 
ATOM     23  S   UNL     1      45.099   4.011   8.966  0.00  0.00    +0.000 S 
ATOM     24  C   UNL     1      44.440   3.714  10.507  0.00  0.00    +0.000 A 
ATOM     25  N   UNL     1      43.753   2.568  10.763  0.00  0.00    +0.000 NA
ATOM     26  C   UNL     1      43.342   2.456  11.982  0.00  0.00    +0.000 A 
ATOM     27  N   UNL     1      43.539   3.392  12.963  0.00  0.00    +0.000 N 
ATOM     28  C   UNL     1      44.156   4.599  12.728  0.00  0.00    +0.000 A 
ATOM     29  O   UNL     1      44.189   5.477  13.584  0.00  0.00    +0.000 OA
ATOM     30  C   UNL     1      44.698   4.748  11.389  0.00  0.00    +0.000 A 
ATOM     31  H   UNL     1      43.155   3.260  13.887  0.00  0.00    +0.000 HD
ENDBRANCH  18  21
ENDBRANCH   1  19
TORSDOF 7
ENDMDL
MODEL 6
REMARK VINA RESULT:    -6.938      4.095      4.975
REMARK INTER + INTRA:         -10.497
REMARK INTER:                  -9.646
REMARK INTRA:                  -0.852
REMARK UNBOUND:                -0.721
REMARK  Name = 
REMARK  7 active torsions:
REMARK  status: ('A' for Active; 'I' for Inactive)
REMARK    1  A    between atoms: C_2  and  C_20
REMARK    2  A    between atoms: N_3  and  C_4
REMARK    3  A    between atoms: C_4  and  C_5
REMARK    4  A    between atoms: C_8  and  O_9
REMARK    5  A    between atoms: O_9  and  C_10
REMARK    6  A    between atoms: C_10  and  C_11
REMARK    7  A    between atoms: C_11  and  N_12
REMARK                            x       y       z     vdW  Elec       q    Type
REMARK                         _______ _______ _______ _____ _____    ______ ____
ROOT
ATOM      1  C   UNL     1      48.310   5.157  18.036  0.00  0.00    +0.000 C 
ENDROOT
BRANCH   1   2
ATOM      2  C   UNL     1      47.940   5.110  16.583  0.00  0.00    +0.000 A 
ATOM      3  C   UNL     1      48.358   6.093  15.682  0.00  0.00    +0.000 A 
ATOM      4  C   UNL     1      47.943   6.039  14.352  0.00  0.00    +0.000 A 
ATOM      5  C   UNL     1      47.106   5.006  13.972  0.00  0.00    +0.000 A 
ATOM      6  N   UNL     1      46.720   4.014  14.807  0.00  0.00    +0.000 NA
ATOM      7  C   UNL     1      47.129   4.096  16.089  0.00  0.00    +0.000 A 
BRANCH   5   8
ATOM      8  O   UNL     1      46.599   5.039  12.681  0.00  0.00    +0.000 OA
BRANCH   8   9
ATOM      9  C   UNL     1      45.452   5.897  12.627  0.00  0.00    +0.000 C 
BRANCH   9  10
ATOM     10  C   UNL     1      44.983   6.146  11.184  0.00  0.00    +0.000 C 
BRANCH  10  11
ATOM     11  N   UNL     1      43.720   5.437  10.938  0.00  0.00    +0.000 NA
ATOM     12  C   UNL     1      43.057   4.893  12.139  0.00  0.00    +0.000 C 
ATOM     13  C   UNL     1      43.367   3.425  12.490  0.00  0.00    +0.000 C 
ATOM     14  O   UNL     1      43.332   2.564  11.349  0.00  0.00    +0.000 OA
ATOM     15  C   UNL     1      44.227   3.048  10.344  0.00  0.00    +0.000 C 
ATOM     16  C   UNL     1      43.785   4.434   9.868  0.00  0.00    +0.000 C 
ENDBRANCH  10  11
ENDBRANCH   9  10
ENDBRANCH   8   9
ENDBRANCH   5   8
ENDBRANCH   1   2
BRANCH   1  19
ATOM     17  O   UNL     1      50.900   6.221  18.157  0.00  0.00    +0.000 OA
ATOM     18  C   UNL     1      50.750   5.020  18.360  0.00  0.00    +0.000 C 
ATOM     19  N   UNL     1      49.519   4.418  18.303  0.00  0.00    +0.000 N 
ATOM     20  H   UNL     1      49.416   3.464  18.633  0.00  0.00    +0.000 HD
BRANCH  18  21
ATOM     21  C   UNL     1      51.900   4.143  18.625  0.00  0.00    +0.000 A 
ATOM     22  C   UNL     1      52.939   4.603  19.424  0.00  0.00    +0.000 A 
ATOM     23  S   UNL     1      54.193   3.468  19.640  0.00  0.00    +0.000 S 
ATOM     24  C   UNL     1      53.373   2.304  18.707  0.00  0.00    +0.000 A 
ATOM     25  N   UNL     1      53.894   1.061  18.526  0.00  0.00    +0.000 NA
ATOM     26  C   UNL     1      53.150   0.268  17.830  0.00  0.00    +0.000 A 
ATOM     27  N   UNL     1      51.942   0.611  17.281  0.00  0.00    +0.000 N 
ATOM     28  C   UNL     1      51.416   1.879  17.370  0.00  0.00    +0.000 A 
ATOM     29  O   UNL     1      50.408   2.198  16.748  0.00  0.00    +0.000 OA
ATOM     30  C   UNL     1      52.181   2.792  18.200  0.00  0.00    +0.000 A 
ATOM     31  H   UNL     1      51.428  -0.046  16.712  0.00  0.00    +0.000 HD
ENDBRANCH  18  21
ENDBRANCH   1  19
TORSDOF 7
ENDMDL
MODEL 7
REMARK VINA RESULT:    -6.583      3.249      8.447
REMARK INTER + INTRA:          -9.998
REMARK INTER:                  -8.699
REMARK INTRA:                  -1.299
REMARK UNBOUND:                -0.721
REMARK  Name = 
REMARK  7 active torsions:
REMARK  status: ('A' for Active; 'I' for Inactive)
REMARK    1  A    between atoms: C_2  and  C_20
REMARK    2  A    between atoms: N_3  and  C_4
REMARK    3  A    between atoms: C_4  and  C_5
REMARK    4  A    between atoms: C_8  and  O_9
REMARK    5  A    between atoms: O_9  and  C_10
REMARK    6  A    between atoms: C_10  and  C_11
REMARK    7  A    between atoms: C_11  and  N_12
REMARK                            x       y       z     vdW  Elec       q    Type
REMARK                         _______ _______ _______ _____ _____    ______ ____
ROOT
ATOM      1  C   UNL     1      47.306   3.540  16.562  0.00  0.00    +0.000 C 
ENDROOT
BRANCH   1   2
ATOM      2  C   UNL     1      48.051   4.248  17.654  0.00  0.00    +0.000 A 
ATOM      3  C   UNL     1      47.449   5.235  18.440  0.00  0.00    +0.000 A 
ATOM      4  C   UNL     1      48.197   5.907  19.406  0.00  0.00    +0.000 A 
ATOM      5  C   UNL     1      49.533   5.576  19.541  0.00  0.00    +0.000 A 
ATOM      6  N   UNL     1      50.134   4.595  18.830  0.00  0.00    +0.000 NA
ATOM      7  C   UNL     1      49.390   3.968  17.897  0.00  0.00    +0.000 A 
BRANCH   5   8
ATOM      8  O   UNL     1      50.293   6.342  20.415  0.00  0.00    +0.000 OA
BRANCH   8   9
ATOM      9  C   UNL     1      50.445   7.670  19.896  0.00  0.00    +0.000 C 
BRANCH   9  10
ATOM     10  C   UNL     1      51.598   7.766  18.884  0.00  0.00    +0.000 C 
BRANCH  10  11
ATOM     11  N   UNL     1      51.188   8.581  17.732  0.00  0.00    +0.000 NA
ATOM     12  C   UNL     1      49.789   8.403  17.299  0.00  0.00    +0.000 C 
ATOM     13  C   UNL     1      49.541   7.380  16.175  0.00  0.00    +0.000 C 
ATOM     14  O   UNL     1      50.485   7.492  15.107  0.00  0.00    +0.000 OA
ATOM     15  C   UNL     1      51.816   7.377  15.617  0.00  0.00    +0.000 C 
ATOM     16  C   UNL     1      52.108   8.523  16.589  0.00  0.00    +0.000 C 
ENDBRANCH  10  11
ENDBRANCH   9  10
ENDBRANCH   8   9
ENDBRANCH   5   8
ENDBRANCH   1   2
BRANCH   1  19
ATOM     17  O   UNL     1      47.355   3.328  13.768  0.00  0.00    +0.000 OA
ATOM     18  C   UNL     1      46.771   4.283  14.272  0.00  0.00    +0.000 C 
ATOM     19  N   UNL     1      46.715   4.469  15.630  0.00  0.00    +0.000 N 
ATOM     20  H   UNL     1      46.093   5.175  16.011  0.00  0.00    +0.000 HD
BRANCH  18  21
ATOM     21  C   UNL     1      46.141   5.317  13.439  0.00  0.00    +0.000 A 
ATOM     22  C   UNL     1      46.852   6.468  13.127  0.00  0.00    +0.000 A 
ATOM     23  S   UNL     1      45.987   7.566  12.151  0.00  0.00    +0.000 S 
ATOM     24  C   UNL     1      44.643   6.523  12.076  0.00  0.00    +0.000 A 
ATOM     25  N   UNL     1      43.544   6.853  11.346  0.00  0.00    +0.000 NA
ATOM     26  C   UNL     1      42.616   5.954  11.347  0.00  0.00    +0.000 A 
ATOM     27  N   UNL     1      42.678   4.767  12.027  0.00  0.00    +0.000 N 
ATOM     28  C   UNL     1      43.734   4.429  12.843  0.00  0.00    +0.000 A 
ATOM     29  O   UNL     1      43.699   3.430  13.553  0.00  0.00    +0.000 OA
ATOM     30  C   UNL     1      44.836   5.375  12.824  0.00  0.00    +0.000 A 
ATOM     31  H   UNL     1      41.899   4.126  12.019  0.00  0.00    +0.000 HD
ENDBRANCH  18  21
ENDBRANCH   1  19
TORSDOF 7
ENDMDL
MODEL 8
REMARK VINA RESULT:    -6.377      3.412      7.734
REMARK INTER + INTRA:          -9.707
REMARK INTER:                  -7.996
REMARK INTRA:                  -1.712
REMARK UNBOUND:                -0.721
REMARK  Name = 
REMARK  7 active torsions:
REMARK  status: ('A' for Active; 'I' for Inactive)
REMARK    1  A    between atoms: C_2  and  C_20
REMARK    2  A    between atoms: N_3  and  C_4
REMARK    3  A    between atoms: C_4  and  C_5
REMARK    4  A    between atoms: C_8  and  O_9
REMARK    5  A    between atoms: O_9  and  C_10
REMARK    6  A    between atoms: C_10  and  C_11
REMARK    7  A    between atoms: C_11  and  N_12
REMARK                            x       y       z     vdW  Elec       q    Type
REMARK                         _______ _______ _______ _____ _____    ______ ____
ROOT
ATOM      1  C   UNL     1      48.119   9.202  14.564  0.00  0.00    +0.000 C 
ENDROOT
BRANCH   1   2
ATOM      2  C   UNL     1      49.159   8.531  15.411  0.00  0.00    +0.000 A 
ATOM      3  C   UNL     1      50.352   8.044  14.869  0.00  0.00    +0.000 A 
ATOM      4  C   UNL     1      51.265   7.376  15.684  0.00  0.00    +0.000 A 
ATOM      5  C   UNL     1      50.942   7.204  17.018  0.00  0.00    +0.000 A 
ATOM      6  N   UNL     1      49.819   7.702  17.584  0.00  0.00    +0.000 NA
ATOM      7  C   UNL     1      48.950   8.335  16.770  0.00  0.00    +0.000 A 
BRANCH   5   8
ATOM      8  O   UNL     1      51.799   6.426  17.785  0.00  0.00    +0.000 OA
BRANCH   8   9
ATOM      9  C   UNL     1      51.053   5.423  18.487  0.00  0.00    +0.000 C 
BRANCH   9  10
ATOM     10  C   UNL     1      50.718   4.218  17.591  0.00  0.00    +0.000 C 
BRANCH  10  11
ATOM     11  N   UNL     1      49.567   3.489  18.140  0.00  0.00    +0.000 NA
ATOM     12  C   UNL     1      49.030   2.418  17.280  0.00  0.00    +0.000 C 
ATOM     13  C   UNL     1      47.858   2.800  16.355  0.00  0.00    +0.000 C 
ATOM     14  O   UNL     1      46.865   3.586  17.017  0.00  0.00    +0.000 OA
ATOM     15  C   UNL     1      47.465   4.752  17.589  0.00  0.00    +0.000 C 
ATOM     16  C   UNL     1      48.492   4.349  18.650  0.00  0.00    +0.000 C 
ENDBRANCH  10  11
ENDBRANCH   9  10
ENDBRANCH   8   9
ENDBRANCH   5   8
ENDBRANCH   1   2
BRANCH   1  19
ATOM     17  O   UNL     1      47.439   8.794  11.876  0.00  0.00    +0.000 OA
ATOM     18  C   UNL     1      46.882   8.111  12.731  0.00  0.00    +0.000 C 
ATOM     19  N   UNL     1      47.145   8.260  14.069  0.00  0.00    +0.000 N 
ATOM     20  H   UNL     1      46.788   7.574  14.726  0.00  0.00    +0.000 HD
BRANCH  18  21
ATOM     21  C   UNL     1      45.854   7.126  12.368  0.00  0.00    +0.000 A 
ATOM     22  C   UNL     1      44.728   7.540  11.668  0.00  0.00    +0.000 A 
ATOM     23  S   UNL     1      43.634   6.280  11.319  0.00  0.00    +0.000 S 
ATOM     24  C   UNL     1      44.645   5.126  12.055  0.00  0.00    +0.000 A 
ATOM     25  N   UNL     1      44.308   3.808  12.067  0.00  0.00    +0.000 NA
ATOM     26  C   UNL     1      45.183   3.039  12.625  0.00  0.00    +0.000 A 
ATOM     27  N   UNL     1      46.355   3.470  13.190  0.00  0.00    +0.000 N 
ATOM     28  C   UNL     1      46.697   4.800  13.273  0.00  0.00    +0.000 A 
ATOM     29  O   UNL     1      47.678   5.169  13.911  0.00  0.00    +0.000 OA
ATOM     30  C   UNL     1      45.779   5.702  12.600  0.00  0.00    +0.000 A 
ATOM     31  H   UNL     1      46.977   2.821  13.647  0.00  0.00    +0.000 HD
ENDBRANCH  18  21
ENDBRANCH   1  19
TORSDOF 7
ENDMDL
MODEL 9
REMARK VINA RESULT:    -6.290      4.159      9.144
REMARK INTER + INTRA:          -9.584
REMARK INTER:                  -8.578
REMARK INTRA:                  -1.006
REMARK UNBOUND:                -0.721
REMARK  Name = 
REMARK  7 active torsions:
REMARK  status: ('A' for Active; 'I' for Inactive)
REMARK    1  A    between atoms: C_2  and  C_20
REMARK    2  A    between atoms: N_3  and  C_4
REMARK    3  A    between atoms: C_4  and  C_5
REMARK    4  A    between atoms: C_8  and  O_9
REMARK    5  A    between atoms: O_9  and  C_10
REMARK    6  A    between atoms: C_10  and  C_11
REMARK    7  A    between atoms: C_11  and  N_12
REMARK                            x       y       z     vdW  Elec       q    Type
REMARK                         _______ _______ _______ _____ _____    ______ ____
ROOT
ATOM      1  C   UNL     1      47.380   3.650  16.660  0.00  0.00    +0.000 C 
ENDROOT
BRANCH   1   2
ATOM      2  C   UNL     1      48.302   4.379  17.590  0.00  0.00    +0.000 A 
ATOM      3  C   UNL     1      48.920   5.580  17.227  0.00  0.00    +0.000 A 
ATOM      4  C   UNL     1      49.815   6.194  18.102  0.00  0.00    +0.000 A 
ATOM      5  C   UNL     1      50.074   5.572  19.311  0.00  0.00    +0.000 A 
ATOM      6  N   UNL     1      49.460   4.436  19.711  0.00  0.00    +0.000 NA
ATOM      7  C   UNL     1      48.606   3.859  18.841  0.00  0.00    +0.000 A 
BRANCH   5   8
ATOM      8  O   UNL     1      51.062   6.127  20.112  0.00  0.00    +0.000 OA
BRANCH   8   9
ATOM      9  C   UNL     1      52.125   5.184  20.303  0.00  0.00    +0.000 C 
BRANCH   9  10
ATOM     10  C   UNL     1      53.314   5.458  19.367  0.00  0.00    +0.000 C 
BRANCH  10  11
ATOM     11  N   UNL     1      53.260   4.555  18.209  0.00  0.00    +0.000 NA
ATOM     12  C   UNL     1      52.791   3.186  18.498  0.00  0.00    +0.000 C 
ATOM     13  C   UNL     1      53.877   2.132  18.784  0.00  0.00    +0.000 C 
ATOM     14  O   UNL     1      54.973   2.204  17.868  0.00  0.00    +0.000 OA
ATOM     15  C   UNL     1      55.527   3.523  17.873  0.00  0.00    +0.000 C 
ATOM     16  C   UNL     1      54.482   4.535  17.397  0.00  0.00    +0.000 C 
ENDBRANCH  10  11
ENDBRANCH   9  10
ENDBRANCH   8   9
ENDBRANCH   5   8
ENDBRANCH   1   2
BRANCH   1  19
ATOM     17  O   UNL     1      47.248   3.230  13.892  0.00  0.00    +0.000 OA
ATOM     18  C   UNL     1      46.746   4.251  14.354  0.00  0.00    +0.000 C 
ATOM     19  N   UNL     1      46.782   4.539  15.694  0.00  0.00    +0.000 N 
ATOM     20  H   UNL     1      46.221   5.304  16.054  0.00  0.00    +0.000 HD
BRANCH  18  21
ATOM     21  C   UNL     1      46.121   5.255  13.481  0.00  0.00    +0.000 A 
ATOM     22  C   UNL     1      46.830   6.399  13.140  0.00  0.00    +0.000 A 
ATOM     23  S   UNL     1      45.970   7.461  12.120  0.00  0.00    +0.000 S 
ATOM     24  C   UNL     1      44.632   6.409  12.064  0.00  0.00    +0.000 A 
ATOM     25  N   UNL     1      43.540   6.709  11.311  0.00  0.00    +0.000 NA
ATOM     26  C   UNL     1      42.616   5.807  11.330  0.00  0.00    +0.000 A 
ATOM     27  N   UNL     1      42.677   4.642  12.049  0.00  0.00    +0.000 N 
ATOM     28  C   UNL     1      43.725   4.336  12.886  0.00  0.00    +0.000 A 
ATOM     29  O   UNL     1      43.687   3.360  13.627  0.00  0.00    +0.000 OA
ATOM     30  C   UNL     1      44.822   5.286  12.849  0.00  0.00    +0.000 A 
ATOM     31  H   UNL     1      41.901   3.996  12.052  0.00  0.00    +0.000 HD
ENDBRANCH  18  21
ENDBRANCH   1  19
TORSDOF 7
ENDMDL
