MODEL 1
REMARK VINA RESULT:    -8.822      0.000      0.000
REMARK INTER + INTRA:         -12.948
REMARK INTER:                 -11.917
REMARK INTRA:                  -1.031
REMARK UNBOUND:                -1.031
REMARK  Name = 
REMARK  7 active torsions:
REMARK  status: ('A' for Active; 'I' for Inactive)
REMARK    1  A    between atoms: C_1  and  C_2
REMARK    2  A    between atoms: C_7  and  C_8
REMARK    3  A    between atoms: C_8  and  C_9
REMARK    4  A    between atoms: C_9  and  N_10
REMARK    5  A    between atoms: C_14  and  C_15
REMARK    6  A    between atoms: C_15  and  N_16
REMARK    7  A    between atoms: C_17  and  C_19
REMARK                            x       y       z     vdW  Elec       q    Type
REMARK                         _______ _______ _______ _____ _____    ______ ____
ROOT
ATOM      1  N   UNL     1      44.410   2.846  11.339  0.00  0.00    +0.000 N 
ATOM      2  C   UNL     1      45.201   3.832  11.933  0.00  0.00    +0.000 A 
ATOM      3  N   UNL     1      45.301   5.034  11.353  0.00  0.00    +0.000 NA
ATOM      4  C   UNL     1      46.148   5.922  11.902  0.00  0.00    +0.000 A 
ATOM      5  C   UNL     1      46.908   5.666  13.019  0.00  0.00    +0.000 A 
ATOM      6  C   UNL     1      46.693   4.425  13.576  0.00  0.00    +0.000 A 
ATOM      7  N   UNL     1      45.863   3.493  13.049  0.00  0.00    +0.000 NA
ATOM      8  H   UNL     1      44.756   1.960  11.690  0.00  0.00    +0.000 HD
ENDROOT
BRANCH   1   9
ATOM      9  C   UNL     1      44.338   2.976   9.884  0.00  0.00    +0.000 C 
BRANCH   9  10
ATOM     10  C   UNL     1      44.929   1.749   9.179  0.00  0.00    +0.000 C 
BRANCH  10  17
ATOM     11  C   UNL     1      46.697  -0.259   7.710  0.00  0.00    +0.000 C 
ATOM     12  C   UNL     1      46.721   1.212   7.402  0.00  0.00    +0.000 A 
ATOM     13  C   UNL     1      47.599   1.671   6.403  0.00  0.00    +0.000 A 
ATOM     14  C   UNL     1      47.671   3.023   6.072  0.00  0.00    +0.000 A 
ATOM     15  C   UNL     1      46.870   3.940   6.740  0.00  0.00    +0.000 A 
ATOM     16  C   UNL     1      45.994   3.503   7.734  0.00  0.00    +0.000 A 
ATOM     17  C   UNL     1      45.898   2.141   8.075  0.00  0.00    +0.000 A 
ENDBRANCH  10  17
ENDBRANCH   9  10
ENDBRANCH   1   9
BRANCH   5  18
ATOM     18  C   UNL     1      47.904   6.655  13.526  0.00  0.00    +0.000 C 
BRANCH  18  19
ATOM     19  N   UNL     1      47.862   6.837  14.954  0.00  0.00    +0.000 N 
ATOM     20  C   UNL     1      49.034   6.904  15.673  0.00  0.00    +0.000 C 
ATOM     21  O   UNL     1      50.127   6.814  15.117  0.00  0.00    +0.000 OA
ATOM     22  H   UNL     1      46.999   7.173  15.378  0.00  0.00    +0.000 HD
BRANCH  20  23
ATOM     23  C   UNL     1      48.930   7.004  17.135  0.00  0.00    +0.000 A 
ATOM     24  C   UNL     1      49.210   8.205  17.774  0.00  0.00    +0.000 A 
ATOM     25  S   UNL     1      49.325   8.061  19.471  0.00  0.00    +0.000 S 
ATOM     26  C   UNL     1      48.944   6.404  19.406  0.00  0.00    +0.000 A 
ATOM     27  N   UNL     1      48.969   5.624  20.521  0.00  0.00    +0.000 NA
ATOM     28  C   UNL     1      48.607   4.400  20.321  0.00  0.00    +0.000 A 
ATOM     29  N   UNL     1      48.178   3.896  19.120  0.00  0.00    +0.000 N 
ATOM     30  C   UNL     1      48.106   4.657  17.980  0.00  0.00    +0.000 A 
ATOM     31  O   UNL     1      47.619   4.224  16.940  0.00  0.00    +0.000 OA
ATOM     32  C   UNL     1      48.618   6.004  18.124  0.00  0.00    +0.000 A 
ATOM     33  H   UNL     1      47.831   2.951  19.050  0.00  0.00    +0.000 HD
ENDBRANCH  20  23
ENDBRANCH  18  19
ENDBRANCH   5  18
TORSDOF 6
ENDMDL
MODEL 2
REMARK VINA RESULT:    -8.284      1.687      2.226
REMARK INTER + INTRA:         -12.221
REMARK INTER:                 -11.393
REMARK INTRA:                  -0.828
REMARK UNBOUND:                -1.031
REMARK  Name = 
REMARK  7 active torsions:
REMARK  status: ('A' for Active; 'I' for Inactive)
REMARK    1  A    between atoms: C_1  and  C_2
REMARK    2  A    between atoms: C_7  and  C_8
REMARK    3  A    between atoms: C_8  and  C_9
REMARK    4  A    between atoms: C_9  and  N_10
REMARK    5  A    between atoms: C_14  and  C_15
REMARK    6  A    between atoms: C_15  and  N_16
REMARK    7  A    between atoms: C_17  and  C_19
REMARK                            x       y       z     vdW  Elec       q    Type
REMARK                         _______ _______ _______ _____ _____    ______ ____
ROOT
ATOM      1  N   UNL     1      44.437   5.887  10.354  0.00  0.00    +0.000 N 
ATOM      2  C   UNL     1      45.318   6.611  11.161  0.00  0.00    +0.000 A 
ATOM      3  N   UNL     1      46.636   6.416  11.038  0.00  0.00    +0.000 NA
ATOM      4  C   UNL     1      47.444   7.059  11.900  0.00  0.00    +0.000 A 
ATOM      5  C   UNL     1      46.993   7.900  12.889  0.00  0.00    +0.000 A 
ATOM      6  C   UNL     1      45.628   8.082  12.899  0.00  0.00    +0.000 A 
ATOM      7  N   UNL     1      44.775   7.443  12.062  0.00  0.00    +0.000 NA
ATOM      8  H   UNL     1      43.547   5.888  10.839  0.00  0.00    +0.000 HD
ENDROOT
BRANCH   1   9
ATOM      9  C   UNL     1      44.962   4.574   9.978  0.00  0.00    +0.000 C 
BRANCH   9  10
ATOM     10  C   UNL     1      44.808   4.318   8.473  0.00  0.00    +0.000 C 
BRANCH  10  17
ATOM     11  C   UNL     1      44.530   1.367   9.201  0.00  0.00    +0.000 C 
ATOM     12  C   UNL     1      45.638   1.880   8.324  0.00  0.00    +0.000 A 
ATOM     13  C   UNL     1      46.581   0.958   7.832  0.00  0.00    +0.000 A 
ATOM     14  C   UNL     1      47.634   1.370   7.017  0.00  0.00    +0.000 A 
ATOM     15  C   UNL     1      47.766   2.712   6.686  0.00  0.00    +0.000 A 
ATOM     16  C   UNL     1      46.840   3.640   7.166  0.00  0.00    +0.000 A 
ATOM     17  C   UNL     1      45.764   3.243   7.981  0.00  0.00    +0.000 A 
ENDBRANCH  10  17
ENDBRANCH   9  10
ENDBRANCH   1   9
BRANCH   5  18
ATOM     18  C   UNL     1      47.930   8.510  13.879  0.00  0.00    +0.000 C 
BRANCH  18  19
ATOM     19  N   UNL     1      47.957   7.827  15.146  0.00  0.00    +0.000 N 
ATOM     20  C   UNL     1      49.060   7.085  15.503  0.00  0.00    +0.000 C 
ATOM     21  O   UNL     1      50.033   6.993  14.758  0.00  0.00    +0.000 OA
ATOM     22  H   UNL     1      47.293   8.107  15.865  0.00  0.00    +0.000 HD
BRANCH  20  23
ATOM     23  C   UNL     1      48.997   6.341  16.768  0.00  0.00    +0.000 A 
ATOM     24  C   UNL     1      49.688   6.801  17.883  0.00  0.00    +0.000 A 
ATOM     25  S   UNL     1      49.743   5.670  19.161  0.00  0.00    +0.000 S 
ATOM     26  C   UNL     1      48.795   4.560  18.287  0.00  0.00    +0.000 A 
ATOM     27  N   UNL     1      48.539   3.313  18.766  0.00  0.00    +0.000 NA
ATOM     28  C   UNL     1      47.765   2.604  18.013  0.00  0.00    +0.000 A 
ATOM     29  N   UNL     1      47.184   3.044  16.851  0.00  0.00    +0.000 N 
ATOM     30  C   UNL     1      47.390   4.306  16.352  0.00  0.00    +0.000 A 
ATOM     31  O   UNL     1      46.780   4.723  15.372  0.00  0.00    +0.000 OA
ATOM     32  C   UNL     1      48.349   5.096  17.094  0.00  0.00    +0.000 A 
ATOM     33  H   UNL     1      46.523   2.467  16.353  0.00  0.00    +0.000 HD
ENDBRANCH  20  23
ENDBRANCH  18  19
ENDBRANCH   5  18
TORSDOF 6
ENDMDL
MODEL 3
REMARK VINA RESULT:    -7.508      3.633      9.149
REMARK INTER + INTRA:         -11.173
REMARK INTER:                 -10.240
REMARK INTRA:                  -0.932
REMARK UNBOUND:                -1.031
REMARK  Name = 
REMARK  7 active torsions:
REMARK  status: ('A' for Active; 'I' for Inactive)
REMARK    1  A    between atoms: C_1  and  C_2
REMARK    2  A    between atoms: C_7  and  C_8
REMARK    3  A    between atoms: C_8  and  C_9
REMARK    4  A    between atoms: C_9  and  N_10
REMARK    5  A    between atoms: C_14  and  C_15
REMARK    6  A    between atoms: C_15  and  N_16
REMARK    7  A    between atoms: C_17  and  C_19
REMARK                            x       y       z     vdW  Elec       q    Type
REMARK                         _______ _______ _______ _____ _____    ______ ____
ROOT
ATOM      1  N   UNL     1      49.758   7.248  16.903  0.00  0.00    +0.000 N 
ATOM      2  C   UNL     1      49.077   7.325  15.685  0.00  0.00    +0.000 A 
ATOM      3  N   UNL     1      48.832   6.204  14.995  0.00  0.00    +0.000 NA
ATOM      4  C   UNL     1      48.263   6.331  13.784  0.00  0.00    +0.000 A 
ATOM      5  C   UNL     1      47.919   7.537  13.222  0.00  0.00    +0.000 A 
ATOM      6  C   UNL     1      48.156   8.626  14.031  0.00  0.00    +0.000 A 
ATOM      7  N   UNL     1      48.742   8.548  15.250  0.00  0.00    +0.000 NA
ATOM      8  H   UNL     1      50.159   8.165  17.058  0.00  0.00    +0.000 HD
ENDROOT
BRANCH   1   9
ATOM      9  C   UNL     1      50.689   6.121  16.962  0.00  0.00    +0.000 C 
BRANCH   9  10
ATOM     10  C   UNL     1      50.350   5.172  18.118  0.00  0.00    +0.000 C 
BRANCH  10  17
ATOM     11  C   UNL     1      48.685   2.877  16.987  0.00  0.00    +0.000 C 
ATOM     12  C   UNL     1      50.130   2.713  17.369  0.00  0.00    +0.000 A 
ATOM     13  C   UNL     1      50.725   1.449  17.202  0.00  0.00    +0.000 A 
ATOM     14  C   UNL     1      52.059   1.229  17.540  0.00  0.00    +0.000 A 
ATOM     15  C   UNL     1      52.819   2.270  18.057  0.00  0.00    +0.000 A 
ATOM     16  C   UNL     1      52.245   3.530  18.231  0.00  0.00    +0.000 A 
ATOM     17  C   UNL     1      50.903   3.775  17.885  0.00  0.00    +0.000 A 
ENDBRANCH  10  17
ENDBRANCH   9  10
ENDBRANCH   1   9
BRANCH   5  18
ATOM     18  C   UNL     1      47.379   7.623  11.833  0.00  0.00    +0.000 C 
BRANCH  18  19
ATOM     19  N   UNL     1      46.683   6.436  11.409  0.00  0.00    +0.000 N 
ATOM     20  C   UNL     1      45.339   6.296  11.674  0.00  0.00    +0.000 C 
ATOM     21  O   UNL     1      44.714   7.171  12.269  0.00  0.00    +0.000 OA
ATOM     22  H   UNL     1      47.114   5.845  10.701  0.00  0.00    +0.000 HD
BRANCH  20  23
ATOM     23  C   UNL     1      44.701   5.029  11.295  0.00  0.00    +0.000 A 
ATOM     24  C   UNL     1      43.773   4.435  12.142  0.00  0.00    +0.000 A 
ATOM     25  S   UNL     1      43.361   2.841  11.686  0.00  0.00    +0.000 S 
ATOM     26  C   UNL     1      44.362   2.922  10.312  0.00  0.00    +0.000 A 
ATOM     27  N   UNL     1      44.559   1.840   9.512  0.00  0.00    +0.000 NA
ATOM     28  C   UNL     1      45.303   2.070   8.482  0.00  0.00    +0.000 A 
ATOM     29  N   UNL     1      45.829   3.293   8.152  0.00  0.00    +0.000 N 
ATOM     30  C   UNL     1      45.626   4.416   8.914  0.00  0.00    +0.000 A 
ATOM     31  O   UNL     1      46.011   5.524   8.552  0.00  0.00    +0.000 OA
ATOM     32  C   UNL     1      44.902   4.183  10.146  0.00  0.00    +0.000 A 
ATOM     33  H   UNL     1      46.335   3.423   7.289  0.00  0.00    +0.000 HD
ENDBRANCH  20  23
ENDBRANCH  18  19
ENDBRANCH   5  18
TORSDOF 6
ENDMDL
MODEL 4
REMARK VINA RESULT:    -7.309      3.418      9.023
REMARK INTER + INTRA:         -10.904
REMARK INTER:                  -9.700
REMARK INTRA:                  -1.204
REMARK UNBOUND:                -1.031
REMARK  Name = 
REMARK  7 active torsions:
REMARK  status: ('A' for Active; 'I' for Inactive)
REMARK    1  A    between atoms: C_1  and  C_2
REMARK    2  A    between atoms: C_7  and  C_8
REMARK    3  A    between atoms: C_8  and  C_9
REMARK    4  A    between atoms: C_9  and  N_10
REMARK    5  A    between atoms: C_14  and  C_15
REMARK    6  A    between atoms: C_15  and  N_16
REMARK    7  A    between atoms: C_17  and  C_19
REMARK                            x       y       z     vdW  Elec       q    Type
REMARK                         _______ _______ _______ _____ _____    ______ ____
ROOT
ATOM      1  N   UNL     1      49.931   7.392  16.650  0.00  0.00    +0.000 N 
ATOM      2  C   UNL     1      49.315   7.582  15.411  0.00  0.00    +0.000 A 
ATOM      3  N   UNL     1      48.259   8.400  15.319  0.00  0.00    +0.000 NA
ATOM      4  C   UNL     1      47.635   8.481  14.131  0.00  0.00    +0.000 A 
ATOM      5  C   UNL     1      48.021   7.777  13.014  0.00  0.00    +0.000 A 
ATOM      6  C   UNL     1      49.149   7.008  13.192  0.00  0.00    +0.000 A 
ATOM      7  N   UNL     1      49.801   6.885  14.374  0.00  0.00    +0.000 NA
ATOM      8  H   UNL     1      50.418   6.505  16.587  0.00  0.00    +0.000 HD
ENDROOT
BRANCH   1   9
ATOM      9  C   UNL     1      49.004   7.538  17.772  0.00  0.00    +0.000 C 
BRANCH   9  10
ATOM     10  C   UNL     1      49.130   6.371  18.760  0.00  0.00    +0.000 C 
BRANCH  10  17
ATOM     11  C   UNL     1      51.226   4.234  18.162  0.00  0.00    +0.000 C 
ATOM     12  C   UNL     1      49.772   4.054  17.825  0.00  0.00    +0.000 A 
ATOM     13  C   UNL     1      49.374   2.855  17.204  0.00  0.00    +0.000 A 
ATOM     14  C   UNL     1      48.042   2.627  16.863  0.00  0.00    +0.000 A 
ATOM     15  C   UNL     1      47.086   3.598  17.131  0.00  0.00    +0.000 A 
ATOM     16  C   UNL     1      47.462   4.793  17.745  0.00  0.00    +0.000 A 
ATOM     17  C   UNL     1      48.800   5.038  18.108  0.00  0.00    +0.000 A 
ENDBRANCH  10  17
ENDBRANCH   9  10
ENDBRANCH   1   9
BRANCH   5  18
ATOM     18  C   UNL     1      47.231   7.831  11.749  0.00  0.00    +0.000 C 
BRANCH  18  19
ATOM     19  N   UNL     1      46.611   6.579  11.400  0.00  0.00    +0.000 N 
ATOM     20  C   UNL     1      45.238   6.472  11.393  0.00  0.00    +0.000 C 
ATOM     21  O   UNL     1      44.524   7.431  11.677  0.00  0.00    +0.000 OA
ATOM     22  H   UNL     1      47.167   5.878  10.916  0.00  0.00    +0.000 HD
BRANCH  20  23
ATOM     23  C   UNL     1      44.662   5.149  11.114  0.00  0.00    +0.000 A 
ATOM     24  C   UNL     1      43.725   4.601  11.980  0.00  0.00    +0.000 A 
ATOM     25  S   UNL     1      43.390   2.956  11.665  0.00  0.00    +0.000 S 
ATOM     26  C   UNL     1      44.441   2.947  10.326  0.00  0.00    +0.000 A 
ATOM     27  N   UNL     1      44.709   1.804   9.640  0.00  0.00    +0.000 NA
ATOM     28  C   UNL     1      45.484   1.965   8.620  0.00  0.00    +0.000 A 
ATOM     29  N   UNL     1      45.976   3.173   8.194  0.00  0.00    +0.000 N 
ATOM     30  C   UNL     1      45.702   4.354   8.837  0.00  0.00    +0.000 A 
ATOM     31  O   UNL     1      46.059   5.437   8.384  0.00  0.00    +0.000 OA
ATOM     32  C   UNL     1      44.939   4.208  10.059  0.00  0.00    +0.000 A 
ATOM     33  H   UNL     1      46.510   3.241   7.340  0.00  0.00    +0.000 HD
ENDBRANCH  20  23
ENDBRANCH  18  19
ENDBRANCH   5  18
TORSDOF 6
ENDMDL
MODEL 5
REMARK VINA RESULT:    -7.245      2.990      4.218
REMARK INTER + INTRA:         -10.817
REMARK INTER:                  -9.955
REMARK INTRA:                  -0.862
REMARK UNBOUND:                -1.031
REMARK  Name = 
REMARK  7 active torsions:
REMARK  status: ('A' for Active; 'I' for Inactive)
REMARK    1  A    between atoms: C_1  and  C_2
REMARK    2  A    between atoms: C_7  and  C_8
REMARK    3  A    between atoms: C_8  and  C_9
REMARK    4  A    between atoms: C_9  and  N_10
REMARK    5  A    between atoms: C_14  and  C_15
REMARK    6  A    between atoms: C_15  and  N_16
REMARK    7  A    between atoms: C_17  and  C_19
REMARK                            x       y       z     vdW  Elec       q    Type
REMARK                         _______ _______ _______ _____ _____    ______ ____
ROOT
ATOM      1  N   UNL     1      46.961   6.084  12.182  0.00  0.00    +0.000 N 
ATOM      2  C   UNL     1      47.709   6.362  13.328  0.00  0.00    +0.000 A 
ATOM      3  N   UNL     1      47.619   5.549  14.388  0.00  0.00    +0.000 NA
ATOM      4  C   UNL     1      48.278   5.905  15.504  0.00  0.00    +0.000 A 
ATOM      5  C   UNL     1      49.036   7.047  15.614  0.00  0.00    +0.000 A 
ATOM      6  C   UNL     1      49.115   7.787  14.455  0.00  0.00    +0.000 A 
ATOM      7  N   UNL     1      48.455   7.476  13.313  0.00  0.00    +0.000 NA
ATOM      8  H   UNL     1      46.873   6.962  11.684  0.00  0.00    +0.000 HD
ENDROOT
BRANCH   1   9
ATOM      9  C   UNL     1      45.710   5.385  12.477  0.00  0.00    +0.000 C 
BRANCH   9  10
ATOM     10  C   UNL     1      44.685   5.565  11.349  0.00  0.00    +0.000 C 
BRANCH  10  17
ATOM     11  C   UNL     1      43.480   2.764  11.490  0.00  0.00    +0.000 C 
ATOM     12  C   UNL     1      44.308   3.228  10.324  0.00  0.00    +0.000 A 
ATOM     13  C   UNL     1      44.536   2.327   9.267  0.00  0.00    +0.000 A 
ATOM     14  C   UNL     1      45.298   2.694   8.158  0.00  0.00    +0.000 A 
ATOM     15  C   UNL     1      45.850   3.967   8.092  0.00  0.00    +0.000 A 
ATOM     16  C   UNL     1      45.635   4.873   9.132  0.00  0.00    +0.000 A 
ATOM     17  C   UNL     1      44.860   4.525  10.254  0.00  0.00    +0.000 A 
ENDBRANCH  10  17
ENDBRANCH   9  10
ENDBRANCH   1   9
BRANCH   5  18
ATOM     18  C   UNL     1      49.666   7.441  16.908  0.00  0.00    +0.000 C 
BRANCH  18  19
ATOM     19  N   UNL     1      50.343   6.359  17.575  0.00  0.00    +0.000 N 
ATOM     20  C   UNL     1      51.618   6.007  17.191  0.00  0.00    +0.000 C 
ATOM     21  O   UNL     1      52.198   6.603  16.286  0.00  0.00    +0.000 OA
ATOM     22  H   UNL     1      49.991   6.045  18.477  0.00  0.00    +0.000 HD
BRANCH  20  23
ATOM     23  C   UNL     1      52.227   4.841  17.847  0.00  0.00    +0.000 A 
ATOM     24  C   UNL     1      53.385   4.991  18.600  0.00  0.00    +0.000 A 
ATOM     25  S   UNL     1      54.108   3.506  19.035  0.00  0.00    +0.000 S 
ATOM     26  C   UNL     1      52.862   2.622  18.284  0.00  0.00    +0.000 A 
ATOM     27  N   UNL     1      52.908   1.266  18.194  0.00  0.00    +0.000 NA
ATOM     28  C   UNL     1      51.867   0.735  17.643  0.00  0.00    +0.000 A 
ATOM     29  N   UNL     1      50.765   1.431  17.217  0.00  0.00    +0.000 N 
ATOM     30  C   UNL     1      50.665   2.796  17.321  0.00  0.00    +0.000 A 
ATOM     31  O   UNL     1      49.631   3.394  17.037  0.00  0.00    +0.000 OA
ATOM     32  C   UNL     1      51.857   3.449  17.819  0.00  0.00    +0.000 A 
ATOM     33  H   UNL     1      49.950   0.948  16.870  0.00  0.00    +0.000 HD
ENDBRANCH  20  23
ENDBRANCH  18  19
ENDBRANCH   5  18
TORSDOF 6
ENDMDL
MODEL 6
REMARK VINA RESULT:    -7.207      1.802      2.743
REMARK INTER + INTRA:         -10.766
REMARK INTER:                  -9.829
REMARK INTRA:                  -0.937
REMARK UNBOUND:                -1.031
REMARK  Name = 
REMARK  7 active torsions:
REMARK  status: ('A' for Active; 'I' for Inactive)
REMARK    1  A    between atoms: C_1  and  C_2
REMARK    2  A    between atoms: C_7  and  C_8
REMARK    3  A    between atoms: C_8  and  C_9
REMARK    4  A    between atoms: C_9  and  N_10
REMARK    5  A    between atoms: C_14  and  C_15
REMARK    6  A    between atoms: C_15  and  N_16
REMARK    7  A    between atoms: C_17  and  C_19
REMARK                            x       y       z     vdW  Elec       q    Type
REMARK                         _______ _______ _______ _____ _____    ______ ____
ROOT
ATOM      1  N   UNL     1      44.225   5.421  10.424  0.00  0.00    +0.000 N 
ATOM      2  C   UNL     1      45.106   6.224  11.151  0.00  0.00    +0.000 A 
ATOM      3  N   UNL     1      46.414   5.942  11.144  0.00  0.00    +0.000 NA
ATOM      4  C   UNL     1      47.214   6.679  11.934  0.00  0.00    +0.000 A 
ATOM      5  C   UNL     1      46.767   7.700  12.739  0.00  0.00    +0.000 A 
ATOM      6  C   UNL     1      45.417   7.952  12.633  0.00  0.00    +0.000 A 
ATOM      7  N   UNL     1      44.570   7.226  11.864  0.00  0.00    +0.000 NA
ATOM      8  H   UNL     1      43.313   5.552  10.846  0.00  0.00    +0.000 HD
ENDROOT
BRANCH   1   9
ATOM      9  C   UNL     1      44.685   4.037  10.307  0.00  0.00    +0.000 C 
BRANCH   9  10
ATOM     10  C   UNL     1      44.297   3.429   8.953  0.00  0.00    +0.000 C 
BRANCH  10  17
ATOM     11  C   UNL     1      46.604   4.693   7.406  0.00  0.00    +0.000 C 
ATOM     12  C   UNL     1      46.497   3.209   7.624  0.00  0.00    +0.000 A 
ATOM     13  C   UNL     1      47.499   2.381   7.085  0.00  0.00    +0.000 A 
ATOM     14  C   UNL     1      47.457   0.997   7.249  0.00  0.00    +0.000 A 
ATOM     15  C   UNL     1      46.407   0.418   7.950  0.00  0.00    +0.000 A 
ATOM     16  C   UNL     1      45.404   1.224   8.490  0.00  0.00    +0.000 A 
ATOM     17  C   UNL     1      45.435   2.624   8.346  0.00  0.00    +0.000 A 
ENDBRANCH  10  17
ENDBRANCH   9  10
ENDBRANCH   1   9
BRANCH   5  18
ATOM     18  C   UNL     1      47.687   8.419  13.668  0.00  0.00    +0.000 C 
BRANCH  18  19
ATOM     19  N   UNL     1      47.729   7.855  14.992  0.00  0.00    +0.000 N 
ATOM     20  C   UNL     1      48.745   6.993  15.339  0.00  0.00    +0.000 C 
ATOM     21  O   UNL     1      49.626   6.693  14.537  0.00  0.00    +0.000 OA
ATOM     22  H   UNL     1      47.176   8.293  15.726  0.00  0.00    +0.000 HD
BRANCH  20  23
ATOM     23  C   UNL     1      48.689   6.381  16.674  0.00  0.00    +0.000 A 
ATOM     24  C   UNL     1      48.775   5.001  16.812  0.00  0.00    +0.000 A 
ATOM     25  S   UNL     1      48.398   4.453  18.385  0.00  0.00    +0.000 S 
ATOM     26  C   UNL     1      48.172   6.045  18.940  0.00  0.00    +0.000 A 
ATOM     27  N   UNL     1      47.730   6.302  20.201  0.00  0.00    +0.000 NA
ATOM     28  C   UNL     1      47.656   7.559  20.492  0.00  0.00    +0.000 A 
ATOM     29  N   UNL     1      48.028   8.580  19.656  0.00  0.00    +0.000 N 
ATOM     30  C   UNL     1      48.511   8.362  18.389  0.00  0.00    +0.000 A 
ATOM     31  O   UNL     1      48.942   9.276  17.693  0.00  0.00    +0.000 OA
ATOM     32  C   UNL     1      48.496   6.976  17.971  0.00  0.00    +0.000 A 
ATOM     33  H   UNL     1      48.023   9.537  19.974  0.00  0.00    +0.000 HD
ENDBRANCH  20  23
ENDBRANCH  18  19
ENDBRANCH   5  18
TORSDOF 6
ENDMDL
MODEL 7
REMARK VINA RESULT:    -7.189      3.686      8.638
REMARK INTER + INTRA:         -10.742
REMARK INTER:                  -9.600
REMARK INTRA:                  -1.142
REMARK UNBOUND:                -1.031
REMARK  Name = 
REMARK  7 active torsions:
REMARK  status: ('A' for Active; 'I' for Inactive)
REMARK    1  A    between atoms: C_1  and  C_2
REMARK    2  A    between atoms: C_7  and  C_8
REMARK    3  A    between atoms: C_8  and  C_9
REMARK    4  A    between atoms: C_9  and  N_10
REMARK    5  A    between atoms: C_14  and  C_15
REMARK    6  A    between atoms: C_15  and  N_16
REMARK    7  A    between atoms: C_17  and  C_19
REMARK                            x       y       z     vdW  Elec       q    Type
REMARK                         _______ _______ _______ _____ _____    ______ ____
ROOT
ATOM      1  N   UNL     1      50.453   7.260  17.092  0.00  0.00    +0.000 N 
ATOM      2  C   UNL     1      49.838   7.657  15.903  0.00  0.00    +0.000 A 
ATOM      3  N   UNL     1      48.650   8.272  15.949  0.00  0.00    +0.000 NA
ATOM      4  C   UNL     1      48.046   8.549  14.780  0.00  0.00    +0.000 A 
ATOM      5  C   UNL     1      48.580   8.241  13.551  0.00  0.00    +0.000 A 
ATOM      6  C   UNL     1      49.829   7.664  13.605  0.00  0.00    +0.000 A 
ATOM      7  N   UNL     1      50.467   7.351  14.759  0.00  0.00    +0.000 NA
ATOM      8  H   UNL     1      51.099   6.521  16.841  0.00  0.00    +0.000 HD
ENDROOT
BRANCH   1   9
ATOM      9  C   UNL     1      49.493   6.942  18.149  0.00  0.00    +0.000 C 
BRANCH   9  10
ATOM     10  C   UNL     1      49.899   5.676  18.915  0.00  0.00    +0.000 C 
BRANCH  10  17
ATOM     11  C   UNL     1      52.013   3.612  18.149  0.00  0.00    +0.000 C 
ATOM     12  C   UNL     1      50.566   3.464  17.768  0.00  0.00    +0.000 A 
ATOM     13  C   UNL     1      50.184   2.331  17.025  0.00  0.00    +0.000 A 
ATOM     14  C   UNL     1      48.859   2.136  16.637  0.00  0.00    +0.000 A 
ATOM     15  C   UNL     1      47.895   3.074  16.982  0.00  0.00    +0.000 A 
ATOM     16  C   UNL     1      48.256   4.204  17.717  0.00  0.00    +0.000 A 
ATOM     17  C   UNL     1      49.586   4.413  18.128  0.00  0.00    +0.000 A 
ENDBRANCH  10  17
ENDBRANCH   9  10
ENDBRANCH   1   9
BRANCH   5  18
ATOM     18  C   UNL     1      47.820   8.485  12.290  0.00  0.00    +0.000 C 
BRANCH  18  19
ATOM     19  N   UNL     1      47.379   7.279  11.638  0.00  0.00    +0.000 N 
ATOM     20  C   UNL     1      46.035   7.066  11.426  0.00  0.00    +0.000 C 
ATOM     21  O   UNL     1      45.196   7.891  11.780  0.00  0.00    +0.000 OA
ATOM     22  H   UNL     1      48.058   6.731  11.114  0.00  0.00    +0.000 HD
BRANCH  20  23
ATOM     23  C   UNL     1      45.636   5.781  10.836  0.00  0.00    +0.000 A 
ATOM     24  C   UNL     1      45.824   5.549   9.478  0.00  0.00    +0.000 A 
ATOM     25  S   UNL     1      45.042   4.138   8.916  0.00  0.00    +0.000 S 
ATOM     26  C   UNL     1      44.484   3.765  10.480  0.00  0.00    +0.000 A 
ATOM     27  N   UNL     1      43.648   2.715  10.704  0.00  0.00    +0.000 NA
ATOM     28  C   UNL     1      43.352   2.528  11.947  0.00  0.00    +0.000 A 
ATOM     29  N   UNL     1      43.852   3.265  12.991  0.00  0.00    +0.000 N 
ATOM     30  C   UNL     1      44.723   4.310  12.811  0.00  0.00    +0.000 A 
ATOM     31  O   UNL     1      45.246   4.890  13.758  0.00  0.00    +0.000 OA
ATOM     32  C   UNL     1      44.988   4.637  11.426  0.00  0.00    +0.000 A 
ATOM     33  H   UNL     1      43.644   3.015  13.946  0.00  0.00    +0.000 HD
ENDBRANCH  20  23
ENDBRANCH  18  19
ENDBRANCH   5  18
TORSDOF 6
ENDMDL
MODEL 8
REMARK VINA RESULT:    -6.983      3.946      8.942
REMARK INTER + INTRA:         -10.464
REMARK INTER:                  -9.128
REMARK INTRA:                  -1.336
REMARK UNBOUND:                -1.031
REMARK  Name = 
REMARK  7 active torsions:
REMARK  status: ('A' for Active; 'I' for Inactive)
REMARK    1  A    between atoms: C_1  and  C_2
REMARK    2  A    between atoms: C_7  and  C_8
REMARK    3  A    between atoms: C_8  and  C_9
REMARK    4  A    between atoms: C_9  and  N_10
REMARK    5  A    between atoms: C_14  and  C_15
REMARK    6  A    between atoms: C_15  and  N_16
REMARK    7  A    between atoms: C_17  and  C_19
REMARK                            x       y       z     vdW  Elec       q    Type
REMARK                         _______ _______ _______ _____ _____    ______ ____
ROOT
ATOM      1  N   UNL     1      50.104   7.045  20.094  0.00  0.00    +0.000 N 
ATOM      2  C   UNL     1      49.428   6.137  19.275  0.00  0.00    +0.000 A 
ATOM      3  N   UNL     1      50.107   5.457  18.344  0.00  0.00    +0.000 NA
ATOM      4  C   UNL     1      49.404   4.668  17.513  0.00  0.00    +0.000 A 
ATOM      5  C   UNL     1      48.039   4.520  17.569  0.00  0.00    +0.000 A 
ATOM      6  C   UNL     1      47.437   5.214  18.596  0.00  0.00    +0.000 A 
ATOM      7  N   UNL     1      48.102   6.033  19.446  0.00  0.00    +0.000 NA
ATOM      8  H   UNL     1      49.403   7.692  20.433  0.00  0.00    +0.000 HD
ENDROOT
BRANCH   1   9
ATOM      9  C   UNL     1      51.267   7.643  19.438  0.00  0.00    +0.000 C 
BRANCH   9  10
ATOM     10  C   UNL     1      50.881   8.898  18.645  0.00  0.00    +0.000 C 
BRANCH  10  17
ATOM     11  C   UNL     1      47.984   9.233  17.745  0.00  0.00    +0.000 C 
ATOM     12  C   UNL     1      49.056   8.707  16.832  0.00  0.00    +0.000 A 
ATOM     13  C   UNL     1      48.699   8.351  15.518  0.00  0.00    +0.000 A 
ATOM     14  C   UNL     1      49.645   7.854  14.623  0.00  0.00    +0.000 A 
ATOM     15  C   UNL     1      50.964   7.698  15.030  0.00  0.00    +0.000 A 
ATOM     16  C   UNL     1      51.336   8.044  16.329  0.00  0.00    +0.000 A 
ATOM     17  C   UNL     1      50.398   8.559  17.245  0.00  0.00    +0.000 A 
ENDBRANCH  10  17
ENDBRANCH   9  10
ENDBRANCH   1   9
BRANCH   5  18
ATOM     18  C   UNL     1      47.301   3.706  16.559  0.00  0.00    +0.000 C 
BRANCH  18  19
ATOM     19  N   UNL     1      46.655   4.494  15.541  0.00  0.00    +0.000 N 
ATOM     20  C   UNL     1      46.846   4.189  14.212  0.00  0.00    +0.000 C 
ATOM     21  O   UNL     1      47.560   3.249  13.872  0.00  0.00    +0.000 OA
ATOM     22  H   UNL     1      45.871   5.087  15.808  0.00  0.00    +0.000 HD
BRANCH  20  23
ATOM     23  C   UNL     1      46.232   5.079  13.217  0.00  0.00    +0.000 A 
ATOM     24  C   UNL     1      46.890   6.235  12.816  0.00  0.00    +0.000 A 
ATOM     25  S   UNL     1      45.912   7.286  11.891  0.00  0.00    +0.000 S 
ATOM     26  C   UNL     1      44.604   6.200  11.947  0.00  0.00    +0.000 A 
ATOM     27  N   UNL     1      43.389   6.523  11.429  0.00  0.00    +0.000 NA
ATOM     28  C   UNL     1      42.511   5.578  11.502  0.00  0.00    +0.000 A 
ATOM     29  N   UNL     1      42.751   4.324  12.003  0.00  0.00    +0.000 N 
ATOM     30  C   UNL     1      43.972   3.947  12.505  0.00  0.00    +0.000 A 
ATOM     31  O   UNL     1      44.203   2.792  12.849  0.00  0.00    +0.000 OA
ATOM     32  C   UNL     1      44.953   5.010  12.558  0.00  0.00    +0.000 A 
ATOM     33  H   UNL     1      42.045   3.605  11.957  0.00  0.00    +0.000 HD
ENDBRANCH  20  23
ENDBRANCH  18  19
ENDBRANCH   5  18
TORSDOF 6
ENDMDL
MODEL 9
REMARK VINA RESULT:    -6.897      4.038      9.860
REMARK INTER + INTRA:         -10.347
REMARK INTER:                  -9.134
REMARK INTRA:                  -1.213
REMARK UNBOUND:                -1.031
REMARK  Name = 
REMARK  7 active torsions:
REMARK  status: ('A' for Active; 'I' for Inactive)
REMARK    1  A    between atoms: C_1  and  C_2
REMARK    2  A    between atoms: C_7  and  C_8
REMARK    3  A    between atoms: C_8  and  C_9
REMARK    4  A    between atoms: C_9  and  N_10
REMARK    5  A    between atoms: C_14  and  C_15
REMARK    6  A    between atoms: C_15  and  N_16
REMARK    7  A    between atoms: C_17  and  C_19
REMARK                            x       y       z     vdW  Elec       q    Type
REMARK                         _______ _______ _______ _____ _____    ______ ____
ROOT
ATOM      1  N   UNL     1      51.814   6.275  18.638  0.00  0.00    +0.000 N 
ATOM      2  C   UNL     1      50.739   5.628  18.025  0.00  0.00    +0.000 A 
ATOM      3  N   UNL     1      49.937   6.316  17.203  0.00  0.00    +0.000 NA
ATOM      4  C   UNL     1      48.858   5.683  16.712  0.00  0.00    +0.000 A 
ATOM      5  C   UNL     1      48.537   4.378  17.002  0.00  0.00    +0.000 A 
ATOM      6  C   UNL     1      49.451   3.737  17.808  0.00  0.00    +0.000 A 
ATOM      7  N   UNL     1      50.543   4.339  18.339  0.00  0.00    +0.000 NA
ATOM      8  H   UNL     1      52.040   5.727  19.460  0.00  0.00    +0.000 HD
ENDROOT
BRANCH   1   9
ATOM      9  C   UNL     1      51.566   7.699  18.863  0.00  0.00    +0.000 C 
BRANCH   9  10
ATOM     10  C   UNL     1      50.784   7.935  20.161  0.00  0.00    +0.000 C 
BRANCH  10  17
ATOM     11  C   UNL     1      47.978   6.734  20.240  0.00  0.00    +0.000 C 
ATOM     12  C   UNL     1      48.225   8.189  19.952  0.00  0.00    +0.000 A 
ATOM     13  C   UNL     1      47.115   9.018  19.704  0.00  0.00    +0.000 A 
ATOM     14  C   UNL     1      47.275  10.375  19.428  0.00  0.00    +0.000 A 
ATOM     15  C   UNL     1      48.550  10.924  19.388  0.00  0.00    +0.000 A 
ATOM     16  C   UNL     1      49.663  10.117  19.631  0.00  0.00    +0.000 A 
ATOM     17  C   UNL     1      49.521   8.747  19.923  0.00  0.00    +0.000 A 
ENDBRANCH  10  17
ENDBRANCH   9  10
ENDBRANCH   1   9
BRANCH   5  18
ATOM     18  C   UNL     1      47.274   3.757  16.506  0.00  0.00    +0.000 C 
BRANCH  18  19
ATOM     19  N   UNL     1      46.607   4.535  15.493  0.00  0.00    +0.000 N 
ATOM     20  C   UNL     1      46.812   4.248  14.162  0.00  0.00    +0.000 C 
ATOM     21  O   UNL     1      47.557   3.334  13.815  0.00  0.00    +0.000 OA
ATOM     22  H   UNL     1      45.804   5.099  15.762  0.00  0.00    +0.000 HD
BRANCH  20  23
ATOM     23  C   UNL     1      46.174   5.128  13.172  0.00  0.00    +0.000 A 
ATOM     24  C   UNL     1      46.821   6.281  12.746  0.00  0.00    +0.000 A 
ATOM     25  S   UNL     1      45.820   7.322  11.834  0.00  0.00    +0.000 S 
ATOM     26  C   UNL     1      44.516   6.234  11.930  0.00  0.00    +0.000 A 
ATOM     27  N   UNL     1      43.288   6.550  11.436  0.00  0.00    +0.000 NA
ATOM     28  C   UNL     1      42.415   5.605  11.538  0.00  0.00    +0.000 A 
ATOM     29  N   UNL     1      42.668   4.356  12.045  0.00  0.00    +0.000 N 
ATOM     30  C   UNL     1      43.900   3.985  12.522  0.00  0.00    +0.000 A 
ATOM     31  O   UNL     1      44.141   2.834  12.872  0.00  0.00    +0.000 OA
ATOM     32  C   UNL     1      44.880   5.050  12.544  0.00  0.00    +0.000 A 
ATOM     33  H   UNL     1      41.962   3.635  12.021  0.00  0.00    +0.000 HD
ENDBRANCH  20  23
ENDBRANCH  18  19
ENDBRANCH   5  18
TORSDOF 6
ENDMDL
