MODEL 1
REMARK VINA RESULT:    -7.658      0.000      0.000
REMARK INTER + INTRA:          -9.577
REMARK INTER:                  -9.225
REMARK INTRA:                  -0.352
REMARK UNBOUND:                -0.352
REMARK  Name = 
REMARK  4 active torsions:
REMARK  status: ('A' for Active; 'I' for Inactive)
REMARK    1  A    between atoms: N_1  and  S_2
REMARK    2  A    between atoms: S_2  and  C_5
REMARK    3  A    between atoms: C_8  and  C_9
REMARK    4  A    between atoms: C_9  and  N_10
REMARK                            x       y       z     vdW  Elec       q    Type
REMARK                         _______ _______ _______ _____ _____    ______ ____
ROOT
ATOM      1  C   UNL     1      46.830   4.667  14.363  0.00  0.00    +0.000 A 
ATOM      2  C   UNL     1      47.441   5.714  13.698  0.00  0.00    +0.000 A 
ATOM      3  C   UNL     1      46.821   6.187  12.543  0.00  0.00    +0.000 A 
ATOM      4  C   UNL     1      45.630   5.594  12.094  0.00  0.00    +0.000 A 
ATOM      5  C   UNL     1      45.097   4.557  12.856  0.00  0.00    +0.000 A 
ATOM      6  N   UNL     1      45.662   4.076  13.985  0.00  0.00    +0.000 NA
ENDROOT
BRANCH   1   7
ATOM      7  S   UNL     1      47.553   3.956  15.835  0.00  0.00    +0.000 S 
ATOM      8  O   UNL     1      48.318   2.787  15.465  0.00  0.00    +0.000 OA
ATOM      9  O   UNL     1      46.561   3.909  16.890  0.00  0.00    +0.000 OA
BRANCH   7  10
ATOM     10  N   UNL     1      48.691   5.105  16.304  0.00  0.00    +0.000 NA
ATOM     11  H   UNL     1      49.344   5.274  15.535  0.00  0.00    +0.000 HD
ATOM     12  H   UNL     1      49.131   4.823  17.179  0.00  0.00    +0.000 HD
ENDBRANCH   7  10
ENDBRANCH   1   7
BRANCH   4  13
ATOM     13  C   UNL     1      44.947   6.047  10.830  0.00  0.00    +0.000 C 
BRANCH  13  14
ATOM     14  N   UNL     1      44.271   4.920  10.193  0.00  0.00    +0.000 N 
ATOM     15  C   UNL     1      44.956   4.440   9.057  0.00  0.00    +0.000 A 
ATOM     16  C   UNL     1      44.425   3.361   8.359  0.00  0.00    +0.000 A 
ATOM     17  C   UNL     1      45.086   2.874   7.231  0.00  0.00    +0.000 A 
ATOM     18  C   UNL     1      46.258   3.493   6.854  0.00  0.00    +0.000 A 
ATOM     19 CL   UNL     1      47.137   2.999   5.472  0.00  0.00    +0.000 Cl
ATOM     20  N   UNL     1      46.780   4.524   7.536  0.00  0.00    +0.000 NA
ATOM     21  N   UNL     1      46.124   4.988   8.653  0.00  0.00    +0.000 NA
ATOM     22  H   UNL     1      43.316   5.150   9.928  0.00  0.00    +0.000 HD
ENDBRANCH  13  14
ENDBRANCH   4  13
TORSDOF 4
ENDMDL
MODEL 2
REMARK VINA RESULT:    -7.653      4.813      7.139
REMARK INTER + INTRA:          -9.571
REMARK INTER:                  -9.231
REMARK INTRA:                  -0.339
REMARK UNBOUND:                -0.352
REMARK  Name = 
REMARK  4 active torsions:
REMARK  status: ('A' for Active; 'I' for Inactive)
REMARK    1  A    between atoms: N_1  and  S_2
REMARK    2  A    between atoms: S_2  and  C_5
REMARK    3  A    between atoms: C_8  and  C_9
REMARK    4  A    between atoms: C_9  and  N_10
REMARK                            x       y       z     vdW  Elec       q    Type
REMARK                         _______ _______ _______ _____ _____    ______ ____
ROOT
ATOM      1  C   UNL     1      46.213   2.841   7.647  0.00  0.00    +0.000 A 
ATOM      2  C   UNL     1      45.497   2.085   8.556  0.00  0.00    +0.000 A 
ATOM      3  C   UNL     1      44.827   2.767   9.570  0.00  0.00    +0.000 A 
ATOM      4  C   UNL     1      44.907   4.167   9.644  0.00  0.00    +0.000 A 
ATOM      5  C   UNL     1      45.645   4.825   8.661  0.00  0.00    +0.000 A 
ATOM      6  N   UNL     1      46.299   4.201   7.658  0.00  0.00    +0.000 NA
ENDROOT
BRANCH   1   7
ATOM      7  S   UNL     1      47.137   2.071   6.326  0.00  0.00    +0.000 S 
ATOM      8  O   UNL     1      46.702   2.624   5.064  0.00  0.00    +0.000 OA
ATOM      9  O   UNL     1      47.198   0.640   6.544  0.00  0.00    +0.000 OA
BRANCH   7  10
ATOM     10  N   UNL     1      48.701   2.653   6.553  0.00  0.00    +0.000 NA
ATOM     11  H   UNL     1      48.696   3.675   6.506  0.00  0.00    +0.000 HD
ATOM     12  H   UNL     1      49.340   2.201   5.900  0.00  0.00    +0.000 HD
ENDBRANCH   7  10
ENDBRANCH   1   7
BRANCH   4  13
ATOM     13  C   UNL     1      44.234   4.943  10.745  0.00  0.00    +0.000 C 
BRANCH  13  14
ATOM     14  N   UNL     1      45.152   5.936  11.295  0.00  0.00    +0.000 N 
ATOM     15  C   UNL     1      45.813   5.488  12.458  0.00  0.00    +0.000 A 
ATOM     16  C   UNL     1      46.724   6.334  13.080  0.00  0.00    +0.000 A 
ATOM     17  C   UNL     1      47.385   5.910  14.233  0.00  0.00    +0.000 A 
ATOM     18  C   UNL     1      47.103   4.649  14.711  0.00  0.00    +0.000 A 
ATOM     19 CL   UNL     1      47.832   4.036  16.132  0.00  0.00    +0.000 Cl
ATOM     20  N   UNL     1      46.235   3.826  14.102  0.00  0.00    +0.000 NA
ATOM     21  N   UNL     1      45.598   4.251  12.960  0.00  0.00    +0.000 NA
ATOM     22  H   UNL     1      44.683   6.815  11.502  0.00  0.00    +0.000 HD
ENDBRANCH  13  14
ENDBRANCH   4  13
TORSDOF 4
ENDMDL
MODEL 3
REMARK VINA RESULT:    -7.556      1.763      1.967
REMARK INTER + INTRA:          -9.454
REMARK INTER:                  -9.378
REMARK INTRA:                  -0.076
REMARK UNBOUND:                -0.352
REMARK  Name = 
REMARK  4 active torsions:
REMARK  status: ('A' for Active; 'I' for Inactive)
REMARK    1  A    between atoms: N_1  and  S_2
REMARK    2  A    between atoms: S_2  and  C_5
REMARK    3  A    between atoms: C_8  and  C_9
REMARK    4  A    between atoms: C_9  and  N_10
REMARK                            x       y       z     vdW  Elec       q    Type
REMARK                         _______ _______ _______ _____ _____    ______ ____
ROOT
ATOM      1  C   UNL     1      46.619   4.593  13.859  0.00  0.00    +0.000 A 
ATOM      2  C   UNL     1      46.785   5.758  13.133  0.00  0.00    +0.000 A 
ATOM      3  C   UNL     1      46.002   5.918  11.991  0.00  0.00    +0.000 A 
ATOM      4  C   UNL     1      45.100   4.911  11.613  0.00  0.00    +0.000 A 
ATOM      5  C   UNL     1      45.006   3.787  12.432  0.00  0.00    +0.000 A 
ATOM      6  N   UNL     1      45.739   3.599  13.551  0.00  0.00    +0.000 NA
ENDROOT
BRANCH   1   7
ATOM      7  S   UNL     1      47.593   4.265  15.321  0.00  0.00    +0.000 S 
ATOM      8  O   UNL     1      48.441   5.405  15.585  0.00  0.00    +0.000 OA
ATOM      9  O   UNL     1      48.130   2.921  15.257  0.00  0.00    +0.000 OA
BRANCH   7  10
ATOM     10  N   UNL     1      46.450   4.262  16.558  0.00  0.00    +0.000 NA
ATOM     11  H   UNL     1      45.883   5.112  16.502  0.00  0.00    +0.000 HD
ATOM     12  H   UNL     1      46.908   4.115  17.456  0.00  0.00    +0.000 HD
ENDBRANCH   7  10
ENDBRANCH   1   7
BRANCH   4  13
ATOM     13  C   UNL     1      44.263   5.023  10.366  0.00  0.00    +0.000 C 
BRANCH  13  14
ATOM     14  N   UNL     1      45.123   5.103   9.189  0.00  0.00    +0.000 N 
ATOM     15  C   UNL     1      45.542   3.838   8.728  0.00  0.00    +0.000 A 
ATOM     16  C   UNL     1      46.360   3.769   7.605  0.00  0.00    +0.000 A 
ATOM     17  C   UNL     1      46.788   2.527   7.136  0.00  0.00    +0.000 A 
ATOM     18  C   UNL     1      46.371   1.403   7.815  0.00  0.00    +0.000 A 
ATOM     19 CL   UNL     1      46.856  -0.168   7.346  0.00  0.00    +0.000 Cl
ATOM     20  N   UNL     1      45.568   1.467   8.888  0.00  0.00    +0.000 NA
ATOM     21  N   UNL     1      45.144   2.697   9.335  0.00  0.00    +0.000 NA
ATOM     22  H   UNL     1      45.945   5.680   9.356  0.00  0.00    +0.000 HD
ENDBRANCH  13  14
ENDBRANCH   4  13
TORSDOF 4
ENDMDL
MODEL 4
REMARK VINA RESULT:    -7.550      2.200      2.433
REMARK INTER + INTRA:          -9.447
REMARK INTER:                  -9.211
REMARK INTRA:                  -0.236
REMARK UNBOUND:                -0.352
REMARK  Name = 
REMARK  4 active torsions:
REMARK  status: ('A' for Active; 'I' for Inactive)
REMARK    1  A    between atoms: N_1  and  S_2
REMARK    2  A    between atoms: S_2  and  C_5
REMARK    3  A    between atoms: C_8  and  C_9
REMARK    4  A    between atoms: C_9  and  N_10
REMARK                            x       y       z     vdW  Elec       q    Type
REMARK                         _______ _______ _______ _____ _____    ______ ____
ROOT
ATOM      1  C   UNL     1      46.849   5.953  12.772  0.00  0.00    +0.000 A 
ATOM      2  C   UNL     1      46.533   6.541  11.561  0.00  0.00    +0.000 A 
ATOM      3  C   UNL     1      45.614   5.880  10.748  0.00  0.00    +0.000 A 
ATOM      4  C   UNL     1      45.058   4.660  11.167  0.00  0.00    +0.000 A 
ATOM      5  C   UNL     1      45.438   4.172  12.415  0.00  0.00    +0.000 A 
ATOM      6  N   UNL     1      46.317   4.787  13.236  0.00  0.00    +0.000 NA
ENDROOT
BRANCH   1   7
ATOM      7  S   UNL     1      48.039   6.693  13.879  0.00  0.00    +0.000 S 
ATOM      8  O   UNL     1      48.296   5.781  14.971  0.00  0.00    +0.000 OA
ATOM      9  O   UNL     1      47.686   8.078  14.118  0.00  0.00    +0.000 OA
BRANCH   7  10
ATOM     10  N   UNL     1      49.457   6.713  12.971  0.00  0.00    +0.000 NA
ATOM     11  H   UNL     1      49.586   5.806  12.517  0.00  0.00    +0.000 HD
ATOM     12  H   UNL     1      50.239   7.012  13.552  0.00  0.00    +0.000 HD
ENDBRANCH   7  10
ENDBRANCH   1   7
BRANCH   4  13
ATOM     13  C   UNL     1      44.092   3.891  10.304  0.00  0.00    +0.000 C 
BRANCH  13  14
ATOM     14  N   UNL     1      44.643   2.579   9.979  0.00  0.00    +0.000 N 
ATOM     15  C   UNL     1      45.401   2.580   8.790  0.00  0.00    +0.000 A 
ATOM     16  C   UNL     1      45.991   1.393   8.368  0.00  0.00    +0.000 A 
ATOM     17  C   UNL     1      46.741   1.373   7.193  0.00  0.00    +0.000 A 
ATOM     18  C   UNL     1      46.869   2.552   6.490  0.00  0.00    +0.000 A 
ATOM     19 CL   UNL     1      47.740   2.639   5.021  0.00  0.00    +0.000 Cl
ATOM     20  N   UNL     1      46.313   3.701   6.904  0.00  0.00    +0.000 NA
ATOM     21  N   UNL     1      45.585   3.710   8.071  0.00  0.00    +0.000 NA
ATOM     22  H   UNL     1      43.918   1.869   9.906  0.00  0.00    +0.000 HD
ENDBRANCH  13  14
ENDBRANCH   4  13
TORSDOF 4
ENDMDL
MODEL 5
REMARK VINA RESULT:    -7.131      5.089      7.110
REMARK INTER + INTRA:          -8.942
REMARK INTER:                  -8.603
REMARK INTRA:                  -0.339
REMARK UNBOUND:                -0.352
REMARK  Name = 
REMARK  4 active torsions:
REMARK  status: ('A' for Active; 'I' for Inactive)
REMARK    1  A    between atoms: N_1  and  S_2
REMARK    2  A    between atoms: S_2  and  C_5
REMARK    3  A    between atoms: C_8  and  C_9
REMARK    4  A    between atoms: C_9  and  N_10
REMARK                            x       y       z     vdW  Elec       q    Type
REMARK                         _______ _______ _______ _____ _____    ______ ____
ROOT
ATOM      1  C   UNL     1      46.242   2.865   7.702  0.00  0.00    +0.000 A 
ATOM      2  C   UNL     1      45.529   2.084   8.593  0.00  0.00    +0.000 A 
ATOM      3  C   UNL     1      44.877   2.737   9.637  0.00  0.00    +0.000 A 
ATOM      4  C   UNL     1      44.971   4.132   9.758  0.00  0.00    +0.000 A 
ATOM      5  C   UNL     1      45.704   4.817   8.791  0.00  0.00    +0.000 A 
ATOM      6  N   UNL     1      46.340   4.223   7.758  0.00  0.00    +0.000 NA
ENDROOT
BRANCH   1   7
ATOM      7  S   UNL     1      47.144   2.133   6.344  0.00  0.00    +0.000 S 
ATOM      8  O   UNL     1      46.677   2.711   5.105  0.00  0.00    +0.000 OA
ATOM      9  O   UNL     1      47.220   0.698   6.528  0.00  0.00    +0.000 OA
BRANCH   7  10
ATOM     10  N   UNL     1      48.707   2.723   6.552  0.00  0.00    +0.000 NA
ATOM     11  H   UNL     1      48.795   3.139   7.482  0.00  0.00    +0.000 HD
ATOM     12  H   UNL     1      48.949   3.347   5.783  0.00  0.00    +0.000 HD
ENDBRANCH   7  10
ENDBRANCH   1   7
BRANCH   4  13
ATOM     13  C   UNL     1      44.317   4.876  10.894  0.00  0.00    +0.000 C 
BRANCH  13  14
ATOM     14  N   UNL     1      45.332   5.493  11.742  0.00  0.00    +0.000 N 
ATOM     15  C   UNL     1      45.237   6.900  11.777  0.00  0.00    +0.000 A 
ATOM     16  C   UNL     1      46.140   7.614  12.556  0.00  0.00    +0.000 A 
ATOM     17  C   UNL     1      46.064   9.007  12.602  0.00  0.00    +0.000 A 
ATOM     18  C   UNL     1      45.078   9.623  11.862  0.00  0.00    +0.000 A 
ATOM     19 CL   UNL     1      44.909  11.324  11.820  0.00  0.00    +0.000 Cl
ATOM     20  N   UNL     1      44.196   8.933  11.123  0.00  0.00    +0.000 NA
ATOM     21  N   UNL     1      44.274   7.560  11.095  0.00  0.00    +0.000 NA
ATOM     22  H   UNL     1      46.275   5.235  11.457  0.00  0.00    +0.000 HD
ENDBRANCH  13  14
ENDBRANCH   4  13
TORSDOF 4
ENDMDL
MODEL 6
REMARK VINA RESULT:    -6.455      2.765      2.898
REMARK INTER + INTRA:          -8.129
REMARK INTER:                  -7.846
REMARK INTRA:                  -0.283
REMARK UNBOUND:                -0.352
REMARK  Name = 
REMARK  4 active torsions:
REMARK  status: ('A' for Active; 'I' for Inactive)
REMARK    1  A    between atoms: N_1  and  S_2
REMARK    2  A    between atoms: S_2  and  C_5
REMARK    3  A    between atoms: C_8  and  C_9
REMARK    4  A    between atoms: C_9  and  N_10
REMARK                            x       y       z     vdW  Elec       q    Type
REMARK                         _______ _______ _______ _____ _____    ______ ____
ROOT
ATOM      1  C   UNL     1      47.488   7.660  13.670  0.00  0.00    +0.000 A 
ATOM      2  C   UNL     1      47.681   6.383  13.177  0.00  0.00    +0.000 A 
ATOM      3  C   UNL     1      46.737   5.896  12.274  0.00  0.00    +0.000 A 
ATOM      4  C   UNL     1      45.640   6.693  11.908  0.00  0.00    +0.000 A 
ATOM      5  C   UNL     1      45.560   7.972  12.456  0.00  0.00    +0.000 A 
ATOM      6  N   UNL     1      46.458   8.483  13.326  0.00  0.00    +0.000 NA
ENDROOT
BRANCH   1   7
ATOM      7  S   UNL     1      48.615   8.374  14.859  0.00  0.00    +0.000 S 
ATOM      8  O   UNL     1      49.415   9.382  14.201  0.00  0.00    +0.000 OA
ATOM      9  O   UNL     1      49.223   7.321  15.646  0.00  0.00    +0.000 OA
BRANCH   7  10
ATOM     10  N   UNL     1      47.597   9.220  15.901  0.00  0.00    +0.000 NA
ATOM     11  H   UNL     1      48.148   9.879  16.456  0.00  0.00    +0.000 HD
ATOM     12  H   UNL     1      47.038   8.567  16.447  0.00  0.00    +0.000 HD
ENDBRANCH   7  10
ENDBRANCH   1   7
BRANCH   4  13
ATOM     13  C   UNL     1      44.576   6.194  10.967  0.00  0.00    +0.000 C 
BRANCH  13  14
ATOM     14  N   UNL     1      44.551   4.734  10.965  0.00  0.00    +0.000 N 
ATOM     15  C   UNL     1      45.087   4.178   9.785  0.00  0.00    +0.000 A 
ATOM     16  C   UNL     1      45.132   2.794   9.656  0.00  0.00    +0.000 A 
ATOM     17  C   UNL     1      45.656   2.225   8.495  0.00  0.00    +0.000 A 
ATOM     18  C   UNL     1      46.116   3.074   7.512  0.00  0.00    +0.000 A 
ATOM     19 CL   UNL     1      46.752   2.488   6.036  0.00  0.00    +0.000 Cl
ATOM     20  N   UNL     1      46.088   4.409   7.642  0.00  0.00    +0.000 NA
ATOM     21  N   UNL     1      45.580   4.958   8.796  0.00  0.00    +0.000 NA
ATOM     22  H   UNL     1      43.611   4.369  11.102  0.00  0.00    +0.000 HD
ENDBRANCH  13  14
ENDBRANCH   4  13
TORSDOF 4
ENDMDL
MODEL 7
REMARK VINA RESULT:    -6.307      4.953      7.922
REMARK INTER + INTRA:          -7.949
REMARK INTER:                  -7.655
REMARK INTRA:                  -0.294
REMARK UNBOUND:                -0.352
REMARK  Name = 
REMARK  4 active torsions:
REMARK  status: ('A' for Active; 'I' for Inactive)
REMARK    1  A    between atoms: N_1  and  S_2
REMARK    2  A    between atoms: S_2  and  C_5
REMARK    3  A    between atoms: C_8  and  C_9
REMARK    4  A    between atoms: C_9  and  N_10
REMARK                            x       y       z     vdW  Elec       q    Type
REMARK                         _______ _______ _______ _____ _____    ______ ____
ROOT
ATOM      1  C   UNL     1      45.237   4.287  11.710  0.00  0.00    +0.000 A 
ATOM      2  C   UNL     1      45.698   5.572  11.490  0.00  0.00    +0.000 A 
ATOM      3  C   UNL     1      46.562   6.114  12.439  0.00  0.00    +0.000 A 
ATOM      4  C   UNL     1      46.921   5.363  13.570  0.00  0.00    +0.000 A 
ATOM      5  C   UNL     1      46.408   4.072  13.677  0.00  0.00    +0.000 A 
ATOM      6  N   UNL     1      45.577   3.507  12.775  0.00  0.00    +0.000 NA
ENDROOT
BRANCH   1   7
ATOM      7  S   UNL     1      44.099   3.504  10.578  0.00  0.00    +0.000 S 
ATOM      8  O   UNL     1      43.790   4.427   9.509  0.00  0.00    +0.000 OA
ATOM      9  O   UNL     1      43.053   2.834  11.324  0.00  0.00    +0.000 OA
BRANCH   7  10
ATOM     10  N   UNL     1      45.028   2.292   9.868  0.00  0.00    +0.000 NA
ATOM     11  H   UNL     1      45.680   2.708   9.200  0.00  0.00    +0.000 HD
ATOM     12  H   UNL     1      44.421   1.572   9.477  0.00  0.00    +0.000 HD
ENDBRANCH   7  10
ENDBRANCH   1   7
BRANCH   4  13
ATOM     13  C   UNL     1      47.820   5.923  14.641  0.00  0.00    +0.000 C 
BRANCH  13  14
ATOM     14  N   UNL     1      47.448   5.380  15.944  0.00  0.00    +0.000 N 
ATOM     15  C   UNL     1      48.563   5.117  16.768  0.00  0.00    +0.000 A 
ATOM     16  C   UNL     1      48.350   4.604  18.042  0.00  0.00    +0.000 A 
ATOM     17  C   UNL     1      49.439   4.334  18.871  0.00  0.00    +0.000 A 
ATOM     18  C   UNL     1      50.701   4.596  18.382  0.00  0.00    +0.000 A 
ATOM     19 CL   UNL     1      52.109   4.278  19.297  0.00  0.00    +0.000 Cl
ATOM     20  N   UNL     1      50.907   5.106  17.158  0.00  0.00    +0.000 NA
ATOM     21  N   UNL     1      49.824   5.378  16.355  0.00  0.00    +0.000 NA
ATOM     22  H   UNL     1      46.896   4.529  15.858  0.00  0.00    +0.000 HD
ENDBRANCH  13  14
ENDBRANCH   4  13
TORSDOF 4
ENDMDL
MODEL 8
REMARK VINA RESULT:    -5.520      7.651     10.498
REMARK INTER + INTRA:          -7.002
REMARK INTER:                  -6.701
REMARK INTRA:                  -0.301
REMARK UNBOUND:                -0.352
REMARK  Name = 
REMARK  4 active torsions:
REMARK  status: ('A' for Active; 'I' for Inactive)
REMARK    1  A    between atoms: N_1  and  S_2
REMARK    2  A    between atoms: S_2  and  C_5
REMARK    3  A    between atoms: C_8  and  C_9
REMARK    4  A    between atoms: C_9  and  N_10
REMARK                            x       y       z     vdW  Elec       q    Type
REMARK                         _______ _______ _______ _____ _____    ______ ____
ROOT
ATOM      1  C   UNL     1      49.227   3.262  16.900  0.00  0.00    +0.000 A 
ATOM      2  C   UNL     1      49.906   4.243  17.600  0.00  0.00    +0.000 A 
ATOM      3  C   UNL     1      51.176   3.926  18.078  0.00  0.00    +0.000 A 
ATOM      4  C   UNL     1      51.711   2.648  17.851  0.00  0.00    +0.000 A 
ATOM      5  C   UNL     1      50.943   1.746  17.117  0.00  0.00    +0.000 A 
ATOM      6  N   UNL     1      49.713   2.018  16.629  0.00  0.00    +0.000 NA
ENDROOT
BRANCH   1   7
ATOM      7  S   UNL     1      47.579   3.545  16.271  0.00  0.00    +0.000 S 
ATOM      8  O   UNL     1      46.619   3.146  17.274  0.00  0.00    +0.000 OA
ATOM      9  O   UNL     1      47.491   3.067  14.906  0.00  0.00    +0.000 OA
BRANCH   7  10
ATOM     10  N   UNL     1      47.474   5.224  16.194  0.00  0.00    +0.000 NA
ATOM     11  H   UNL     1      46.497   5.510  16.291  0.00  0.00    +0.000 HD
ATOM     12  H   UNL     1      47.934   5.564  15.351  0.00  0.00    +0.000 HD
ENDBRANCH   7  10
ENDBRANCH   1   7
BRANCH   4  13
ATOM     13  C   UNL     1      53.063   2.249  18.383  0.00  0.00    +0.000 C 
BRANCH  13  14
ATOM     14  N   UNL     1      53.817   1.536  17.356  0.00  0.00    +0.000 N 
ATOM     15  C   UNL     1      54.080   0.194  17.700  0.00  0.00    +0.000 A 
ATOM     16  C   UNL     1      54.785  -0.603  16.804  0.00  0.00    +0.000 A 
ATOM     17  C   UNL     1      55.059  -1.932  17.128  0.00  0.00    +0.000 A 
ATOM     18  C   UNL     1      54.608  -2.405  18.341  0.00  0.00    +0.000 A 
ATOM     19 CL   UNL     1      54.911  -4.008  18.855  0.00  0.00    +0.000 Cl
ATOM     20  N   UNL     1      53.914  -1.642  19.199  0.00  0.00    +0.000 NA
ATOM     21  N   UNL     1      53.641  -0.336  18.864  0.00  0.00    +0.000 NA
ATOM     22  H   UNL     1      54.697   1.999  17.140  0.00  0.00    +0.000 HD
ENDBRANCH  13  14
ENDBRANCH   4  13
TORSDOF 4
ENDMDL
MODEL 9
REMARK VINA RESULT:    -5.306      5.064      7.996
REMARK INTER + INTRA:          -6.744
REMARK INTER:                  -6.425
REMARK INTRA:                  -0.319
REMARK UNBOUND:                -0.352
REMARK  Name = 
REMARK  4 active torsions:
REMARK  status: ('A' for Active; 'I' for Inactive)
REMARK    1  A    between atoms: N_1  and  S_2
REMARK    2  A    between atoms: S_2  and  C_5
REMARK    3  A    between atoms: C_8  and  C_9
REMARK    4  A    between atoms: C_9  and  N_10
REMARK                            x       y       z     vdW  Elec       q    Type
REMARK                         _______ _______ _______ _____ _____    ______ ____
ROOT
ATOM      1  C   UNL     1      45.232   4.693  11.455  0.00  0.00    +0.000 A 
ATOM      2  C   UNL     1      45.629   4.344  12.733  0.00  0.00    +0.000 A 
ATOM      3  C   UNL     1      46.429   5.252  13.425  0.00  0.00    +0.000 A 
ATOM      4  C   UNL     1      46.808   6.459  12.815  0.00  0.00    +0.000 A 
ATOM      5  C   UNL     1      46.333   6.710  11.529  0.00  0.00    +0.000 A 
ATOM      6  N   UNL     1      45.548   5.862  10.830  0.00  0.00    +0.000 NA
ENDROOT
BRANCH   1   7
ATOM      7  S   UNL     1      44.234   3.593  10.462  0.00  0.00    +0.000 S 
ATOM      8  O   UNL     1      43.027   3.269  11.189  0.00  0.00    +0.000 OA
ATOM      9  O   UNL     1      45.072   2.559   9.889  0.00  0.00    +0.000 OA
BRANCH   7  10
ATOM     10  N   UNL     1      43.736   4.566   9.181  0.00  0.00    +0.000 NA
ATOM     11  H   UNL     1      44.113   4.198   8.305  0.00  0.00    +0.000 HD
ATOM     12  H   UNL     1      43.974   5.539   9.371  0.00  0.00    +0.000 HD
ENDBRANCH   7  10
ENDBRANCH   1   7
BRANCH   4  13
ATOM     13  C   UNL     1      47.703   7.451  13.509  0.00  0.00    +0.000 C 
BRANCH  13  14
ATOM     14  N   UNL     1      48.844   6.765  14.109  0.00  0.00    +0.000 N 
ATOM     15  C   UNL     1      49.194   7.283  15.373  0.00  0.00    +0.000 A 
ATOM     16  C   UNL     1      50.260   6.714  16.061  0.00  0.00    +0.000 A 
ATOM     17  C   UNL     1      50.623   7.215  17.311  0.00  0.00    +0.000 A 
ATOM     18  C   UNL     1      49.895   8.268  17.820  0.00  0.00    +0.000 A 
ATOM     19 CL   UNL     1      50.269   8.981  19.329  0.00  0.00    +0.000 Cl
ATOM     20  N   UNL     1      48.855   8.808  17.164  0.00  0.00    +0.000 NA
ATOM     21  N   UNL     1      48.500   8.298  15.938  0.00  0.00    +0.000 NA
ATOM     22  H   UNL     1      49.663   6.790  13.506  0.00  0.00    +0.000 HD
ENDBRANCH  13  14
ENDBRANCH   4  13
TORSDOF 4
ENDMDL
