MODEL 1
REMARK VINA RESULT:    -7.754      0.000      0.000
REMARK INTER + INTRA:         -11.071
REMARK INTER:                 -10.020
REMARK INTRA:                  -1.051
REMARK UNBOUND:                -1.051
REMARK  Name = 
REMARK  5 active torsions:
REMARK  status: ('A' for Active; 'I' for Inactive)
REMARK    1  A    between atoms: C_2  and  C_4
REMARK    2  A    between atoms: C_9  and  N_10
REMARK    3  A    between atoms: N_10  and  C_11
REMARK    4  A    between atoms: C_11  and  C_12
REMARK    5  A    between atoms: C_17  and  C_18
REMARK                            x       y       z     vdW  Elec       q    Type
REMARK                         _______ _______ _______ _____ _____    ______ ____
ROOT
ATOM      1  C   UNL     1      44.575   6.217  10.985  0.00  0.00    +0.000 C 
ENDROOT
BRANCH   1   2
ATOM      2  C   UNL     1      44.631   4.779  10.507  0.00  0.00    +0.000 A 
ATOM      3  C   UNL     1      43.805   3.802  11.078  0.00  0.00    +0.000 A 
ATOM      4  C   UNL     1      43.764   2.518  10.538  0.00  0.00    +0.000 A 
ATOM      5  C   UNL     1      44.557   2.199   9.438  0.00  0.00    +0.000 A 
ATOM      6  F   UNL     1      44.464   0.953   8.950  0.00  0.00    +0.000 F 
ATOM      7  C   UNL     1      45.423   3.135   8.847  0.00  0.00    +0.000 A 
ATOM      8  C   UNL     1      45.446   4.426   9.416  0.00  0.00    +0.000 A 
BRANCH   7   9
ATOM      9  C   UNL     1      46.246   2.807   7.669  0.00  0.00    +0.000 A 
ATOM     10  C   UNL     1      46.276   3.567   6.508  0.00  0.00    +0.000 A 
ATOM     11  N   UNL     1      47.032   3.295   5.421  0.00  0.00    +0.000 NA
ATOM     12  C   UNL     1      47.798   2.202   5.508  0.00  0.00    +0.000 A 
ATOM     13  N   UNL     1      47.873   1.378   6.561  0.00  0.00    +0.000 NA
ATOM     14  C   UNL     1      47.090   1.706   7.613  0.00  0.00    +0.000 A 
ENDBRANCH   7   9
ENDBRANCH   1   2
BRANCH   1  15
ATOM     15  N   UNL     1      44.913   6.336  12.404  0.00  0.00    +0.000 N 
ATOM     16  H   UNL     1      44.360   7.062  12.859  0.00  0.00    +0.000 HD
BRANCH  15  22
ATOM     17  C   UNL     1      47.118   5.819  13.404  0.00  0.00    +0.000 A 
ATOM     18  C   UNL     1      48.457   6.195  13.595  0.00  0.00    +0.000 A 
ATOM     19  C   UNL     1      48.960   7.325  12.966  0.00  0.00    +0.000 A 
ATOM     20  C   UNL     1      48.101   8.040  12.162  0.00  0.00    +0.000 A 
ATOM     21  N   UNL     1      46.799   7.720  11.977  0.00  0.00    +0.000 NA
ATOM     22  C   UNL     1      46.288   6.630  12.608  0.00  0.00    +0.000 A 
BRANCH  17  24
ATOM     23  N   UNL     1      46.710   4.513  15.419  0.00  0.00    +0.000 N 
ATOM     24  C   UNL     1      46.698   4.552  14.053  0.00  0.00    +0.000 C 
ATOM     25  O   UNL     1      46.302   3.598  13.399  0.00  0.00    +0.000 OA
ATOM     26  H   UNL     1      46.318   3.703  15.877  0.00  0.00    +0.000 HD
ATOM     27  H   UNL     1      46.954   5.329  15.969  0.00  0.00    +0.000 HD
ENDBRANCH  17  24
ENDBRANCH  15  22
ENDBRANCH   1  15
TORSDOF 5
ENDMDL
MODEL 2
REMARK VINA RESULT:    -7.068      3.176      5.118
REMARK INTER + INTRA:         -10.185
REMARK INTER:                  -9.240
REMARK INTRA:                  -0.945
REMARK UNBOUND:                -1.051
REMARK  Name = 
REMARK  5 active torsions:
REMARK  status: ('A' for Active; 'I' for Inactive)
REMARK    1  A    between atoms: C_2  and  C_4
REMARK    2  A    between atoms: C_9  and  N_10
REMARK    3  A    between atoms: N_10  and  C_11
REMARK    4  A    between atoms: C_11  and  C_12
REMARK    5  A    between atoms: C_17  and  C_18
REMARK                            x       y       z     vdW  Elec       q    Type
REMARK                         _______ _______ _______ _____ _____    ______ ____
ROOT
ATOM      1  C   UNL     1      48.633   6.645  14.502  0.00  0.00    +0.000 C 
ENDROOT
BRANCH   1   2
ATOM      2  C   UNL     1      47.428   6.958  13.636  0.00  0.00    +0.000 A 
ATOM      3  C   UNL     1      46.843   8.231  13.655  0.00  0.00    +0.000 A 
ATOM      4  C   UNL     1      45.828   8.547  12.756  0.00  0.00    +0.000 A 
ATOM      5  C   UNL     1      45.381   7.593  11.844  0.00  0.00    +0.000 A 
ATOM      6  F   UNL     1      44.413   7.959  10.990  0.00  0.00    +0.000 F 
ATOM      7  C   UNL     1      45.915   6.294  11.804  0.00  0.00    +0.000 A 
ATOM      8  C   UNL     1      46.941   6.000  12.728  0.00  0.00    +0.000 A 
BRANCH   7   9
ATOM      9  C   UNL     1      45.461   5.288  10.826  0.00  0.00    +0.000 A 
ATOM     10  C   UNL     1      44.714   4.167  11.158  0.00  0.00    +0.000 A 
ATOM     11  N   UNL     1      44.275   3.238  10.278  0.00  0.00    +0.000 NA
ATOM     12  C   UNL     1      44.604   3.451   9.000  0.00  0.00    +0.000 A 
ATOM     13  N   UNL     1      45.315   4.486   8.535  0.00  0.00    +0.000 NA
ATOM     14  C   UNL     1      45.726   5.375   9.466  0.00  0.00    +0.000 A 
ENDBRANCH   7   9
ENDBRANCH   1   2
BRANCH   1  15
ATOM     15  N   UNL     1      48.255   6.382  15.892  0.00  0.00    +0.000 N 
ATOM     16  H   UNL     1      48.236   7.240  16.441  0.00  0.00    +0.000 HD
BRANCH  15  22
ATOM     17  C   UNL     1      48.724   4.183  16.928  0.00  0.00    +0.000 A 
ATOM     18  C   UNL     1      49.639   3.348  17.588  0.00  0.00    +0.000 A 
ATOM     19  C   UNL     1      50.944   3.771  17.795  0.00  0.00    +0.000 A 
ATOM     20  C   UNL     1      51.289   5.020  17.329  0.00  0.00    +0.000 A 
ATOM     21  N   UNL     1      50.425   5.860  16.712  0.00  0.00    +0.000 NA
ATOM     22  C   UNL     1      49.138   5.467  16.527  0.00  0.00    +0.000 A 
BRANCH  17  24
ATOM     23  N   UNL     1      46.830   2.847  17.677  0.00  0.00    +0.000 N 
ATOM     24  C   UNL     1      47.377   3.609  16.683  0.00  0.00    +0.000 C 
ATOM     25  O   UNL     1      46.754   3.851  15.659  0.00  0.00    +0.000 OA
ATOM     26  H   UNL     1      45.871   2.547  17.575  0.00  0.00    +0.000 HD
ATOM     27  H   UNL     1      47.305   2.714  18.563  0.00  0.00    +0.000 HD
ENDBRANCH  17  24
ENDBRANCH  15  22
ENDBRANCH   1  15
TORSDOF 5
ENDMDL
MODEL 3
REMARK VINA RESULT:    -6.929      4.105      6.145
REMARK INTER + INTRA:         -10.005
REMARK INTER:                  -8.951
REMARK INTRA:                  -1.054
REMARK UNBOUND:                -1.051
REMARK  Name = 
REMARK  5 active torsions:
REMARK  status: ('A' for Active; 'I' for Inactive)
REMARK    1  A    between atoms: C_2  and  C_4
REMARK    2  A    between atoms: C_9  and  N_10
REMARK    3  A    between atoms: N_10  and  C_11
REMARK    4  A    between atoms: C_11  and  C_12
REMARK    5  A    between atoms: C_17  and  C_18
REMARK                            x       y       z     vdW  Elec       q    Type
REMARK                         _______ _______ _______ _____ _____    ______ ____
ROOT
ATOM      1  C   UNL     1      49.446   6.878  15.476  0.00  0.00    +0.000 C 
ENDROOT
BRANCH   1   2
ATOM      2  C   UNL     1      48.638   6.880  14.192  0.00  0.00    +0.000 A 
ATOM      3  C   UNL     1      49.113   7.532  13.047  0.00  0.00    +0.000 A 
ATOM      4  C   UNL     1      48.432   7.408  11.839  0.00  0.00    +0.000 A 
ATOM      5  C   UNL     1      47.267   6.648  11.769  0.00  0.00    +0.000 A 
ATOM      6  F   UNL     1      46.662   6.550  10.575  0.00  0.00    +0.000 F 
ATOM      7  C   UNL     1      46.734   5.998  12.895  0.00  0.00    +0.000 A 
ATOM      8  C   UNL     1      47.443   6.142  14.107  0.00  0.00    +0.000 A 
BRANCH   7   9
ATOM      9  C   UNL     1      45.513   5.174  12.821  0.00  0.00    +0.000 A 
ATOM     10  C   UNL     1      44.227   5.681  12.938  0.00  0.00    +0.000 A 
ATOM     11  N   UNL     1      43.093   4.948  12.861  0.00  0.00    +0.000 NA
ATOM     12  C   UNL     1      43.264   3.638  12.654  0.00  0.00    +0.000 A 
ATOM     13  N   UNL     1      44.440   3.012  12.520  0.00  0.00    +0.000 NA
ATOM     14  C   UNL     1      45.533   3.802  12.611  0.00  0.00    +0.000 A 
ENDBRANCH   7   9
ENDBRANCH   1   2
BRANCH   1  15
ATOM     15  N   UNL     1      48.829   6.046  16.509  0.00  0.00    +0.000 N 
ATOM     16  H   UNL     1      48.591   6.594  17.335  0.00  0.00    +0.000 HD
BRANCH  15  22
ATOM     17  C   UNL     1      49.210   3.648  16.994  0.00  0.00    +0.000 A 
ATOM     18  C   UNL     1      50.087   2.648  17.442  0.00  0.00    +0.000 A 
ATOM     19  C   UNL     1      51.402   2.963  17.753  0.00  0.00    +0.000 A 
ATOM     20  C   UNL     1      51.794   4.275  17.602  0.00  0.00    +0.000 A 
ATOM     21  N   UNL     1      50.968   5.267  17.198  0.00  0.00    +0.000 NA
ATOM     22  C   UNL     1      49.671   4.975  16.914  0.00  0.00    +0.000 A 
BRANCH  17  24
ATOM     23  N   UNL     1      46.994   2.851  17.618  0.00  0.00    +0.000 N 
ATOM     24  C   UNL     1      47.849   3.197  16.608  0.00  0.00    +0.000 C 
ATOM     25  O   UNL     1      47.484   3.187  15.442  0.00  0.00    +0.000 OA
ATOM     26  H   UNL     1      46.033   2.654  17.381  0.00  0.00    +0.000 HD
ATOM     27  H   UNL     1      47.263   2.939  18.591  0.00  0.00    +0.000 HD
ENDBRANCH  17  24
ENDBRANCH  15  22
ENDBRANCH   1  15
TORSDOF 5
ENDMDL
MODEL 4
REMARK VINA RESULT:    -6.269      3.440      5.339
REMARK INTER + INTRA:          -9.152
REMARK INTER:                  -8.330
REMARK INTRA:                  -0.822
REMARK UNBOUND:                -1.051
REMARK  Name = 
REMARK  5 active torsions:
REMARK  status: ('A' for Active; 'I' for Inactive)
REMARK    1  A    between atoms: C_2  and  C_4
REMARK    2  A    between atoms: C_9  and  N_10
REMARK    3  A    between atoms: N_10  and  C_11
REMARK    4  A    between atoms: C_11  and  C_12
REMARK    5  A    between atoms: C_17  and  C_18
REMARK                            x       y       z     vdW  Elec       q    Type
REMARK                         _______ _______ _______ _____ _____    ______ ____
ROOT
ATOM      1  C   UNL     1      48.568   6.667  14.346  0.00  0.00    +0.000 C 
ENDROOT
BRANCH   1   2
ATOM      2  C   UNL     1      47.336   6.964  13.513  0.00  0.00    +0.000 A 
ATOM      3  C   UNL     1      46.725   8.224  13.563  0.00  0.00    +0.000 A 
ATOM      4  C   UNL     1      45.682   8.530  12.691  0.00  0.00    +0.000 A 
ATOM      5  C   UNL     1      45.235   7.578  11.777  0.00  0.00    +0.000 A 
ATOM      6  F   UNL     1      44.240   7.935  10.950  0.00  0.00    +0.000 F 
ATOM      7  C   UNL     1      45.797   6.292  11.706  0.00  0.00    +0.000 A 
ATOM      8  C   UNL     1      46.849   6.008  12.603  0.00  0.00    +0.000 A 
BRANCH   7   9
ATOM      9  C   UNL     1      45.342   5.290  10.725  0.00  0.00    +0.000 A 
ATOM     10  C   UNL     1      44.497   4.233  11.031  0.00  0.00    +0.000 A 
ATOM     11  N   UNL     1      44.056   3.310  10.147  0.00  0.00    +0.000 NA
ATOM     12  C   UNL     1      44.487   3.460   8.890  0.00  0.00    +0.000 A 
ATOM     13  N   UNL     1      45.299   4.430   8.450  0.00  0.00    +0.000 NA
ATOM     14  C   UNL     1      45.705   5.317   9.385  0.00  0.00    +0.000 A 
ENDBRANCH   7   9
ENDBRANCH   1   2
BRANCH   1  15
ATOM     15  N   UNL     1      48.304   6.805  15.780  0.00  0.00    +0.000 N 
ATOM     16  H   UNL     1      49.028   7.355  16.240  0.00  0.00    +0.000 HD
BRANCH  15  22
ATOM     17  C   UNL     1      48.339   5.420  17.832  0.00  0.00    +0.000 A 
ATOM     18  C   UNL     1      48.285   4.141  18.407  0.00  0.00    +0.000 A 
ATOM     19  C   UNL     1      48.066   3.027  17.608  0.00  0.00    +0.000 A 
ATOM     20  C   UNL     1      47.906   3.236  16.257  0.00  0.00    +0.000 A 
ATOM     21  N   UNL     1      47.978   4.452  15.667  0.00  0.00    +0.000 NA
ATOM     22  C   UNL     1      48.217   5.547  16.436  0.00  0.00    +0.000 A 
BRANCH  17  24
ATOM     23  N   UNL     1      49.340   6.373  19.838  0.00  0.00    +0.000 N 
ATOM     24  C   UNL     1      48.496   6.554  18.778  0.00  0.00    +0.000 C 
ATOM     25  O   UNL     1      47.941   7.626  18.590  0.00  0.00    +0.000 OA
ATOM     26  H   UNL     1      49.547   7.169  20.423  0.00  0.00    +0.000 HD
ATOM     27  H   UNL     1      49.870   5.516  19.952  0.00  0.00    +0.000 HD
ENDBRANCH  17  24
ENDBRANCH  15  22
ENDBRANCH   1  15
TORSDOF 5
ENDMDL
MODEL 5
REMARK VINA RESULT:    -6.016      3.540      5.131
REMARK INTER + INTRA:          -8.825
REMARK INTER:                  -7.601
REMARK INTRA:                  -1.224
REMARK UNBOUND:                -1.051
REMARK  Name = 
REMARK  5 active torsions:
REMARK  status: ('A' for Active; 'I' for Inactive)
REMARK    1  A    between atoms: C_2  and  C_4
REMARK    2  A    between atoms: C_9  and  N_10
REMARK    3  A    between atoms: N_10  and  C_11
REMARK    4  A    between atoms: C_11  and  C_12
REMARK    5  A    between atoms: C_17  and  C_18
REMARK                            x       y       z     vdW  Elec       q    Type
REMARK                         _______ _______ _______ _____ _____    ______ ____
ROOT
ATOM      1  C   UNL     1      49.152   7.549  12.300  0.00  0.00    +0.000 C 
ENDROOT
BRANCH   1   2
ATOM      2  C   UNL     1      47.641   7.590  12.182  0.00  0.00    +0.000 A 
ATOM      3  C   UNL     1      46.968   8.807  12.018  0.00  0.00    +0.000 A 
ATOM      4  C   UNL     1      45.597   8.821  11.770  0.00  0.00    +0.000 A 
ATOM      5  C   UNL     1      44.889   7.623  11.699  0.00  0.00    +0.000 A 
ATOM      6  F   UNL     1      43.575   7.696  11.440  0.00  0.00    +0.000 F 
ATOM      7  C   UNL     1      45.513   6.377  11.883  0.00  0.00    +0.000 A 
ATOM      8  C   UNL     1      46.902   6.394  12.136  0.00  0.00    +0.000 A 
BRANCH   7   9
ATOM      9  C   UNL     1      44.772   5.107  11.786  0.00  0.00    +0.000 A 
ATOM     10  C   UNL     1      44.375   4.530  10.587  0.00  0.00    +0.000 A 
ATOM     11  N   UNL     1      43.706   3.360  10.472  0.00  0.00    +0.000 NA
ATOM     12  C   UNL     1      43.425   2.739  11.623  0.00  0.00    +0.000 A 
ATOM     13  N   UNL     1      43.746   3.173  12.848  0.00  0.00    +0.000 NA
ATOM     14  C   UNL     1      44.411   4.350  12.892  0.00  0.00    +0.000 A 
ENDBRANCH   7   9
ENDBRANCH   1   2
BRANCH   1  15
ATOM     15  N   UNL     1      49.586   6.923  13.550  0.00  0.00    +0.000 N 
ATOM     16  H   UNL     1      49.077   6.058  13.729  0.00  0.00    +0.000 HD
BRANCH  15  22
ATOM     17  C   UNL     1      48.792   7.350  15.855  0.00  0.00    +0.000 A 
ATOM     18  C   UNL     1      48.621   8.264  16.906  0.00  0.00    +0.000 A 
ATOM     19  C   UNL     1      49.107   9.558  16.789  0.00  0.00    +0.000 A 
ATOM     20  C   UNL     1      49.752   9.892  15.619  0.00  0.00    +0.000 A 
ATOM     21  N   UNL     1      49.910   9.043  14.577  0.00  0.00    +0.000 NA
ATOM     22  C   UNL     1      49.417   7.780  14.670  0.00  0.00    +0.000 A 
BRANCH  17  24
ATOM     23  N   UNL     1      47.902   5.670  17.379  0.00  0.00    +0.000 N 
ATOM     24  C   UNL     1      48.311   5.968  16.109  0.00  0.00    +0.000 C 
ATOM     25  O   UNL     1      48.227   5.144  15.210  0.00  0.00    +0.000 OA
ATOM     26  H   UNL     1      47.465   4.774  17.541  0.00  0.00    +0.000 HD
ATOM     27  H   UNL     1      47.887   6.374  18.108  0.00  0.00    +0.000 HD
ENDBRANCH  17  24
ENDBRANCH  15  22
ENDBRANCH   1  15
TORSDOF 5
ENDMDL
MODEL 6
REMARK VINA RESULT:    -5.888      4.697      9.031
REMARK INTER + INTRA:          -8.660
REMARK INTER:                  -7.817
REMARK INTRA:                  -0.842
REMARK UNBOUND:                -1.051
REMARK  Name = 
REMARK  5 active torsions:
REMARK  status: ('A' for Active; 'I' for Inactive)
REMARK    1  A    between atoms: C_2  and  C_4
REMARK    2  A    between atoms: C_9  and  N_10
REMARK    3  A    between atoms: N_10  and  C_11
REMARK    4  A    between atoms: C_11  and  C_12
REMARK    5  A    between atoms: C_17  and  C_18
REMARK                            x       y       z     vdW  Elec       q    Type
REMARK                         _______ _______ _______ _____ _____    ______ ____
ROOT
ATOM      1  C   UNL     1      47.084   4.204  14.244  0.00  0.00    +0.000 C 
ENDROOT
BRANCH   1   2
ATOM      2  C   UNL     1      47.516   4.169  15.698  0.00  0.00    +0.000 A 
ATOM      3  C   UNL     1      47.866   2.960  16.313  0.00  0.00    +0.000 A 
ATOM      4  C   UNL     1      48.394   2.958  17.602  0.00  0.00    +0.000 A 
ATOM      5  C   UNL     1      48.562   4.159  18.288  0.00  0.00    +0.000 A 
ATOM      6  F   UNL     1      49.091   4.098  19.520  0.00  0.00    +0.000 F 
ATOM      7  C   UNL     1      48.201   5.395  17.726  0.00  0.00    +0.000 A 
ATOM      8  C   UNL     1      47.666   5.367  16.420  0.00  0.00    +0.000 A 
BRANCH   7   9
ATOM      9  C   UNL     1      48.398   6.669  18.441  0.00  0.00    +0.000 A 
ATOM     10  C   UNL     1      47.478   7.213  19.326  0.00  0.00    +0.000 A 
ATOM     11  N   UNL     1      47.641   8.372  20.002  0.00  0.00    +0.000 NA
ATOM     12  C   UNL     1      48.792   9.016  19.777  0.00  0.00    +0.000 A 
ATOM     13  N   UNL     1      49.769   8.612  18.956  0.00  0.00    +0.000 NA
ATOM     14  C   UNL     1      49.540   7.447  18.308  0.00  0.00    +0.000 A 
ENDBRANCH   7   9
ENDBRANCH   1   2
BRANCH   1  15
ATOM     15  N   UNL     1      46.122   5.276  13.985  0.00  0.00    +0.000 N 
ATOM     16  H   UNL     1      45.684   5.599  14.846  0.00  0.00    +0.000 HD
BRANCH  15  22
ATOM     17  C   UNL     1      44.566   5.743  12.117  0.00  0.00    +0.000 A 
ATOM     18  C   UNL     1      43.524   5.291  11.293  0.00  0.00    +0.000 A 
ATOM     19  C   UNL     1      43.061   3.988  11.408  0.00  0.00    +0.000 A 
ATOM     20  C   UNL     1      43.662   3.180  12.347  0.00  0.00    +0.000 A 
ATOM     21  N   UNL     1      44.651   3.593  13.174  0.00  0.00    +0.000 NA
ATOM     22  C   UNL     1      45.095   4.874  13.088  0.00  0.00    +0.000 A 
BRANCH  17  24
ATOM     23  N   UNL     1      44.154   8.008  11.318  0.00  0.00    +0.000 N 
ATOM     24  C   UNL     1      45.045   7.126  11.862  0.00  0.00    +0.000 C 
ATOM     25  O   UNL     1      46.172   7.481  12.175  0.00  0.00    +0.000 OA
ATOM     26  H   UNL     1      44.426   8.977  11.246  0.00  0.00    +0.000 HD
ATOM     27  H   UNL     1      43.192   7.743  11.136  0.00  0.00    +0.000 HD
ENDBRANCH  17  24
ENDBRANCH  15  22
ENDBRANCH   1  15
TORSDOF 5
ENDMDL
MODEL 7
REMARK VINA RESULT:    -5.845      4.897      6.599
REMARK INTER + INTRA:          -8.604
REMARK INTER:                  -7.658
REMARK INTRA:                  -0.946
REMARK UNBOUND:                -1.051
REMARK  Name = 
REMARK  5 active torsions:
REMARK  status: ('A' for Active; 'I' for Inactive)
REMARK    1  A    between atoms: C_2  and  C_4
REMARK    2  A    between atoms: C_9  and  N_10
REMARK    3  A    between atoms: N_10  and  C_11
REMARK    4  A    between atoms: C_11  and  C_12
REMARK    5  A    between atoms: C_17  and  C_18
REMARK                            x       y       z     vdW  Elec       q    Type
REMARK                         _______ _______ _______ _____ _____    ______ ____
ROOT
ATOM      1  C   UNL     1      46.952   3.645  14.209  0.00  0.00    +0.000 C 
ENDROOT
BRANCH   1   2
ATOM      2  C   UNL     1      46.499   4.870  13.438  0.00  0.00    +0.000 A 
ATOM      3  C   UNL     1      45.170   4.998  13.013  0.00  0.00    +0.000 A 
ATOM      4  C   UNL     1      44.733   6.185  12.431  0.00  0.00    +0.000 A 
ATOM      5  C   UNL     1      45.621   7.244  12.256  0.00  0.00    +0.000 A 
ATOM      6  F   UNL     1      45.140   8.370  11.706  0.00  0.00    +0.000 F 
ATOM      7  C   UNL     1      46.970   7.156  12.640  0.00  0.00    +0.000 A 
ATOM      8  C   UNL     1      47.386   5.941  13.225  0.00  0.00    +0.000 A 
BRANCH   7   9
ATOM      9  C   UNL     1      47.907   8.283  12.478  0.00  0.00    +0.000 A 
ATOM     10  C   UNL     1      48.973   8.283  11.589  0.00  0.00    +0.000 A 
ATOM     11  N   UNL     1      49.837   9.308  11.413  0.00  0.00    +0.000 NA
ATOM     12  C   UNL     1      49.616  10.388  12.170  0.00  0.00    +0.000 A 
ATOM     13  N   UNL     1      48.630  10.530  13.065  0.00  0.00    +0.000 NA
ATOM     14  C   UNL     1      47.804   9.468  13.194  0.00  0.00    +0.000 A 
ENDBRANCH   7   9
ENDBRANCH   1   2
BRANCH   1  15
ATOM     15  N   UNL     1      46.819   3.830  15.655  0.00  0.00    +0.000 N 
ATOM     16  H   UNL     1      46.604   4.798  15.889  0.00  0.00    +0.000 HD
BRANCH  15  22
ATOM     17  C   UNL     1      48.451   4.156  17.488  0.00  0.00    +0.000 A 
ATOM     18  C   UNL     1      49.646   3.753  18.106  0.00  0.00    +0.000 A 
ATOM     19  C   UNL     1      50.337   2.648  17.631  0.00  0.00    +0.000 A 
ATOM     20  C   UNL     1      49.803   1.980  16.551  0.00  0.00    +0.000 A 
ATOM     21  N   UNL     1      48.668   2.357  15.917  0.00  0.00    +0.000 NA
ATOM     22  C   UNL     1      47.997   3.453  16.357  0.00  0.00    +0.000 A 
BRANCH  17  24
ATOM     23  N   UNL     1      48.458   6.450  18.308  0.00  0.00    +0.000 N 
ATOM     24  C   UNL     1      47.745   5.299  18.120  0.00  0.00    +0.000 C 
ATOM     25  O   UNL     1      46.559   5.238  18.409  0.00  0.00    +0.000 OA
ATOM     26  H   UNL     1      47.963   7.270  18.628  0.00  0.00    +0.000 HD
ATOM     27  H   UNL     1      49.417   6.535  17.992  0.00  0.00    +0.000 HD
ENDBRANCH  17  24
ENDBRANCH  15  22
ENDBRANCH   1  15
TORSDOF 5
ENDMDL
MODEL 8
REMARK VINA RESULT:    -5.543      3.884      5.861
REMARK INTER + INTRA:          -8.214
REMARK INTER:                  -7.524
REMARK INTRA:                  -0.690
REMARK UNBOUND:                -1.051
REMARK  Name = 
REMARK  5 active torsions:
REMARK  status: ('A' for Active; 'I' for Inactive)
REMARK    1  A    between atoms: C_2  and  C_4
REMARK    2  A    between atoms: C_9  and  N_10
REMARK    3  A    between atoms: N_10  and  C_11
REMARK    4  A    between atoms: C_11  and  C_12
REMARK    5  A    between atoms: C_17  and  C_18
REMARK                            x       y       z     vdW  Elec       q    Type
REMARK                         _______ _______ _______ _____ _____    ______ ____
ROOT
ATOM      1  C   UNL     1      49.217   7.380  12.654  0.00  0.00    +0.000 C 
ENDROOT
BRANCH   1   2
ATOM      2  C   UNL     1      47.719   7.455  12.431  0.00  0.00    +0.000 A 
ATOM      3  C   UNL     1      47.089   8.685  12.205  0.00  0.00    +0.000 A 
ATOM      4  C   UNL     1      45.740   8.728  11.863  0.00  0.00    +0.000 A 
ATOM      5  C   UNL     1      45.009   7.547  11.759  0.00  0.00    +0.000 A 
ATOM      6  F   UNL     1      43.717   7.647  11.409  0.00  0.00    +0.000 F 
ATOM      7  C   UNL     1      45.587   6.289  12.003  0.00  0.00    +0.000 A 
ATOM      8  C   UNL     1      46.955   6.276  12.350  0.00  0.00    +0.000 A 
BRANCH   7   9
ATOM      9  C   UNL     1      44.823   5.035  11.872  0.00  0.00    +0.000 A 
ATOM     10  C   UNL     1      44.296   4.333  12.946  0.00  0.00    +0.000 A 
ATOM     11  N   UNL     1      43.581   3.189  12.851  0.00  0.00    +0.000 NA
ATOM     12  C   UNL     1      43.387   2.730  11.609  0.00  0.00    +0.000 A 
ATOM     13  N   UNL     1      43.832   3.301  10.483  0.00  0.00    +0.000 NA
ATOM     14  C   UNL     1      44.542   4.440  10.650  0.00  0.00    +0.000 A 
ENDBRANCH   7   9
ENDBRANCH   1   2
BRANCH   1  15
ATOM     15  N   UNL     1      49.638   8.168  13.813  0.00  0.00    +0.000 N 
ATOM     16  H   UNL     1      50.473   8.716  13.608  0.00  0.00    +0.000 HD
BRANCH  15  22
ATOM     17  C   UNL     1      51.190   7.260  15.515  0.00  0.00    +0.000 A 
ATOM     18  C   UNL     1      51.390   6.406  16.610  0.00  0.00    +0.000 A 
ATOM     19  C   UNL     1      50.321   5.707  17.151  0.00  0.00    +0.000 A 
ATOM     20  C   UNL     1      49.084   5.891  16.576  0.00  0.00    +0.000 A 
ATOM     21  N   UNL     1      48.862   6.686  15.503  0.00  0.00    +0.000 NA
ATOM     22  C   UNL     1      49.906   7.357  14.949  0.00  0.00    +0.000 A 
BRANCH  17  24
ATOM     23  N   UNL     1      53.133   7.477  14.061  0.00  0.00    +0.000 N 
ATOM     24  C   UNL     1      52.379   8.026  15.060  0.00  0.00    +0.000 C 
ATOM     25  O   UNL     1      52.644   9.127  15.517  0.00  0.00    +0.000 OA
ATOM     26  H   UNL     1      53.874   8.035  13.661  0.00  0.00    +0.000 HD
ATOM     27  H   UNL     1      52.869   6.604  13.618  0.00  0.00    +0.000 HD
ENDBRANCH  17  24
ENDBRANCH  15  22
ENDBRANCH   1  15
TORSDOF 5
ENDMDL
MODEL 9
REMARK VINA RESULT:    -5.412      4.541      6.781
REMARK INTER + INTRA:          -8.045
REMARK INTER:                  -7.087
REMARK INTRA:                  -0.958
REMARK UNBOUND:                -1.051
REMARK  Name = 
REMARK  5 active torsions:
REMARK  status: ('A' for Active; 'I' for Inactive)
REMARK    1  A    between atoms: C_2  and  C_4
REMARK    2  A    between atoms: C_9  and  N_10
REMARK    3  A    between atoms: N_10  and  C_11
REMARK    4  A    between atoms: C_11  and  C_12
REMARK    5  A    between atoms: C_17  and  C_18
REMARK                            x       y       z     vdW  Elec       q    Type
REMARK                         _______ _______ _______ _____ _____    ______ ____
ROOT
ATOM      1  C   UNL     1      46.905   7.943  12.175  0.00  0.00    +0.000 C 
ENDROOT
BRANCH   1   2
ATOM      2  C   UNL     1      48.351   8.239  12.522  0.00  0.00    +0.000 A 
ATOM      3  C   UNL     1      48.743   8.442  13.851  0.00  0.00    +0.000 A 
ATOM      4  C   UNL     1      50.092   8.573  14.171  0.00  0.00    +0.000 A 
ATOM      5  C   UNL     1      51.055   8.518  13.166  0.00  0.00    +0.000 A 
ATOM      6  F   UNL     1      52.341   8.634  13.534  0.00  0.00    +0.000 F 
ATOM      7  C   UNL     1      50.713   8.345  11.814  0.00  0.00    +0.000 A 
ATOM      8  C   UNL     1      49.338   8.217  11.519  0.00  0.00    +0.000 A 
BRANCH   7   9
ATOM      9  C   UNL     1      51.730   8.264  10.751  0.00  0.00    +0.000 A 
ATOM     10  C   UNL     1      52.074   7.090  10.095  0.00  0.00    +0.000 A 
ATOM     11  N   UNL     1      52.994   6.993   9.108  0.00  0.00    +0.000 NA
ATOM     12  C   UNL     1      53.597   8.136   8.765  0.00  0.00    +0.000 A 
ATOM     13  N   UNL     1      53.366   9.338   9.306  0.00  0.00    +0.000 NA
ATOM     14  C   UNL     1      52.438   9.365  10.289  0.00  0.00    +0.000 A 
ENDBRANCH   7   9
ENDBRANCH   1   2
BRANCH   1  15
ATOM     15  N   UNL     1      46.752   6.634  11.539  0.00  0.00    +0.000 N 
ATOM     16  H   UNL     1      46.781   6.708  10.523  0.00  0.00    +0.000 HD
BRANCH  15  22
ATOM     17  C   UNL     1      45.493   4.941  12.835  0.00  0.00    +0.000 A 
ATOM     18  C   UNL     1      44.261   4.329  13.115  0.00  0.00    +0.000 A 
ATOM     19  C   UNL     1      43.100   4.796  12.516  0.00  0.00    +0.000 A 
ATOM     20  C   UNL     1      43.213   5.864  11.655  0.00  0.00    +0.000 A 
ATOM     21  N   UNL     1      44.388   6.459  11.343  0.00  0.00    +0.000 NA
ATOM     22  C   UNL     1      45.535   5.995  11.904  0.00  0.00    +0.000 A 
BRANCH  17  24
ATOM     23  N   UNL     1      46.827   3.067  13.635  0.00  0.00    +0.000 N 
ATOM     24  C   UNL     1      46.663   4.423  13.587  0.00  0.00    +0.000 C 
ATOM     25  O   UNL     1      47.481   5.175  14.096  0.00  0.00    +0.000 OA
ATOM     26  H   UNL     1      47.677   2.704  14.042  0.00  0.00    +0.000 HD
ATOM     27  H   UNL     1      46.201   2.441  13.143  0.00  0.00    +0.000 HD
ENDBRANCH  17  24
ENDBRANCH  15  22
ENDBRANCH   1  15
TORSDOF 5
ENDMDL
