MODEL 1
REMARK VINA RESULT:    -7.300      0.000      0.000
REMARK INTER + INTRA:         -11.585
REMARK INTER:                 -10.928
REMARK INTRA:                  -0.657
REMARK UNBOUND:                -0.657
REMARK  Name = 
REMARK  9 active torsions:
REMARK  status: ('A' for Active; 'I' for Inactive)
REMARK    1  A    between atoms: C_2  and  C_3
REMARK    2  A    between atoms: C_6  and  N_7
REMARK    3  A    between atoms: N_7  and  C_8
REMARK    4  A    between atoms: C_8  and  C_9
REMARK    5  A    between atoms: C_9  and  C_10
REMARK    6  A    between atoms: C_9  and  C_12
REMARK    7  A    between atoms: C_14  and  S_15
REMARK    8  A    between atoms: S_15  and  C_16
REMARK    9  A    between atoms: C_16  and  O_17
REMARK                            x       y       z     vdW  Elec       q    Type
REMARK                         _______ _______ _______ _____ _____    ______ ____
ROOT
ATOM      1  C   UNL     1      44.000   4.854  11.869  0.00  0.00    +0.000 C 
ENDROOT
BRANCH   1   2
ATOM      2  C   UNL     1      45.240   5.152  12.700  0.00  0.00    +0.000 A 
ATOM      3  C   UNL     1      46.066   6.222  12.356  0.00  0.00    +0.000 A 
ATOM      4  C   UNL     1      47.267   6.405  13.045  0.00  0.00    +0.000 A 
ATOM      5  C   UNL     1      47.579   5.562  14.104  0.00  0.00    +0.000 A 
ATOM      6  C   UNL     1      46.685   4.551  14.409  0.00  0.00    +0.000 A 
ATOM      7  N   UNL     1      45.540   4.324  13.727  0.00  0.00    +0.000 NA
BRANCH   4   8
ATOM      8  S   UNL     1      48.415   7.680  12.531  0.00  0.00    +0.000 S 
BRANCH   8   9
ATOM      9  C   UNL     1      47.466   9.116  13.162  0.00  0.00    +0.000 C 
ATOM     10  C   UNL     1      46.524   9.730  12.094  0.00  0.00    +0.000 C 
ATOM     11  N   UNL     1      46.907  11.082  12.597  0.00  0.00    +0.000 NA
ATOM     12  C   UNL     1      48.207  10.478  13.020  0.00  0.00    +0.000 C 
ATOM     13  H   UNL     1      46.332  11.361  13.399  0.00  0.00    +0.000 HD
BRANCH   9  14
ATOM     14  O   UNL     1      46.914   8.843  14.468  0.00  0.00    +0.000 OA
ATOM     15  H   UNL     1      46.156   8.270  14.265  0.00  0.00    +0.000 HD
ENDBRANCH   9  14
ENDBRANCH   8   9
ENDBRANCH   4   8
ENDBRANCH   1   2
BRANCH   1  16
ATOM     16  C   UNL     1      42.721   5.215  12.621  0.00  0.00    +0.000 C 
ATOM     17  F   UNL     1      41.815   5.784  11.783  0.00  0.00    +0.000 F 
ENDBRANCH   1  16
BRANCH   1  18
ATOM     18  C   UNL     1      43.974   3.391  11.384  0.00  0.00    +0.000 C 
BRANCH  18  19
ATOM     19  N   UNL     1      43.811   3.299   9.942  0.00  0.00    +0.000 N 
ATOM     20  H   UNL     1      42.878   3.369   9.546  0.00  0.00    +0.000 HD
BRANCH  19  24
ATOM     21  C   UNL     1      46.718   2.493   7.188  0.00  0.00    +0.000 A 
ATOM     22  C   UNL     1      46.248   1.540   8.078  0.00  0.00    +0.000 A 
ATOM     23  N   UNL     1      45.286   1.805   9.000  0.00  0.00    +0.000 NA
ATOM     24  C   UNL     1      44.795   3.064   9.022  0.00  0.00    +0.000 A 
ATOM     25  C   UNL     1      45.288   4.012   8.122  0.00  0.00    +0.000 A 
ATOM     26  N   UNL     1      46.244   3.760   7.191  0.00  0.00    +0.000 NA
BRANCH  21  28
ATOM     27  N   UNL     1      48.502   1.875   5.414  0.00  0.00    +0.000 NA
ATOM     28  C   UNL     1      47.714   2.170   6.211  0.00  0.00    +0.000 C 
ENDBRANCH  21  28
ENDBRANCH  19  24
ENDBRANCH  18  19
ENDBRANCH   1  18
TORSDOF 9
ENDMDL
MODEL 2
REMARK VINA RESULT:    -7.158      2.243      2.871
REMARK INTER + INTRA:         -11.372
REMARK INTER:                 -10.573
REMARK INTRA:                  -0.798
REMARK UNBOUND:                -0.657
REMARK  Name = 
REMARK  9 active torsions:
REMARK  status: ('A' for Active; 'I' for Inactive)
REMARK    1  A    between atoms: C_2  and  C_3
REMARK    2  A    between atoms: C_6  and  N_7
REMARK    3  A    between atoms: N_7  and  C_8
REMARK    4  A    between atoms: C_8  and  C_9
REMARK    5  A    between atoms: C_9  and  C_10
REMARK    6  A    between atoms: C_9  and  C_12
REMARK    7  A    between atoms: C_14  and  S_15
REMARK    8  A    between atoms: S_15  and  C_16
REMARK    9  A    between atoms: C_16  and  O_17
REMARK                            x       y       z     vdW  Elec       q    Type
REMARK                         _______ _______ _______ _____ _____    ______ ____
ROOT
ATOM      1  C   UNL     1      44.352   4.850  12.449  0.00  0.00    +0.000 C 
ENDROOT
BRANCH   1   2
ATOM      2  C   UNL     1      44.878   6.266  12.261  0.00  0.00    +0.000 A 
ATOM      3  C   UNL     1      46.031   6.672  12.932  0.00  0.00    +0.000 A 
ATOM      4  C   UNL     1      46.429   8.009  12.855  0.00  0.00    +0.000 A 
ATOM      5  C   UNL     1      45.708   8.888  12.055  0.00  0.00    +0.000 A 
ATOM      6  C   UNL     1      44.602   8.394  11.388  0.00  0.00    +0.000 A 
ATOM      7  N   UNL     1      44.169   7.117  11.485  0.00  0.00    +0.000 NA
BRANCH   4   8
ATOM      8  S   UNL     1      47.820   8.593  13.819  0.00  0.00    +0.000 S 
BRANCH   8   9
ATOM      9  C   UNL     1      49.102   7.537  13.043  0.00  0.00    +0.000 C 
ATOM     10  C   UNL     1      50.497   8.212  13.009  0.00  0.00    +0.000 C 
ATOM     11  N   UNL     1      50.685   7.652  11.638  0.00  0.00    +0.000 NA
ATOM     12  C   UNL     1      49.198   7.687  11.497  0.00  0.00    +0.000 C 
ATOM     13  H   UNL     1      51.048   6.693  11.670  0.00  0.00    +0.000 HD
BRANCH   9  14
ATOM     14  O   UNL     1      49.023   6.179  13.530  0.00  0.00    +0.000 OA
ATOM     15  H   UNL     1      48.067   6.005  13.523  0.00  0.00    +0.000 HD
ENDBRANCH   9  14
ENDBRANCH   8   9
ENDBRANCH   4   8
ENDBRANCH   1   2
BRANCH   1  16
ATOM     16  C   UNL     1      45.484   3.863  12.726  0.00  0.00    +0.000 C 
ATOM     17  F   UNL     1      45.105   2.596  12.414  0.00  0.00    +0.000 F 
ENDBRANCH   1  16
BRANCH   1  18
ATOM     18  C   UNL     1      43.489   4.397  11.254  0.00  0.00    +0.000 C 
BRANCH  18  19
ATOM     19  N   UNL     1      44.055   4.820   9.984  0.00  0.00    +0.000 N 
ATOM     20  H   UNL     1      43.795   5.725   9.605  0.00  0.00    +0.000 HD
BRANCH  19  24
ATOM     21  C   UNL     1      46.610   2.726   7.580  0.00  0.00    +0.000 A 
ATOM     22  C   UNL     1      46.554   4.111   7.583  0.00  0.00    +0.000 A 
ATOM     23  N   UNL     1      45.702   4.811   8.376  0.00  0.00    +0.000 NA
ATOM     24  C   UNL     1      44.886   4.091   9.178  0.00  0.00    +0.000 A 
ATOM     25  C   UNL     1      44.952   2.696   9.154  0.00  0.00    +0.000 A 
ATOM     26  N   UNL     1      45.803   1.982   8.372  0.00  0.00    +0.000 NA
BRANCH  21  28
ATOM     27  N   UNL     1      48.322   1.461   6.104  0.00  0.00    +0.000 NA
ATOM     28  C   UNL     1      47.540   2.021   6.751  0.00  0.00    +0.000 C 
ENDBRANCH  21  28
ENDBRANCH  19  24
ENDBRANCH  18  19
ENDBRANCH   1  18
TORSDOF 9
ENDMDL
MODEL 3
REMARK VINA RESULT:    -6.948      0.791      0.997
REMARK INTER + INTRA:         -11.058
REMARK INTER:                 -10.550
REMARK INTRA:                  -0.508
REMARK UNBOUND:                -0.657
REMARK  Name = 
REMARK  9 active torsions:
REMARK  status: ('A' for Active; 'I' for Inactive)
REMARK    1  A    between atoms: C_2  and  C_3
REMARK    2  A    between atoms: C_6  and  N_7
REMARK    3  A    between atoms: N_7  and  C_8
REMARK    4  A    between atoms: C_8  and  C_9
REMARK    5  A    between atoms: C_9  and  C_10
REMARK    6  A    between atoms: C_9  and  C_12
REMARK    7  A    between atoms: C_14  and  S_15
REMARK    8  A    between atoms: S_15  and  C_16
REMARK    9  A    between atoms: C_16  and  O_17
REMARK                            x       y       z     vdW  Elec       q    Type
REMARK                         _______ _______ _______ _____ _____    ______ ____
ROOT
ATOM      1  C   UNL     1      44.007   4.833  11.851  0.00  0.00    +0.000 C 
ENDROOT
BRANCH   1   2
ATOM      2  C   UNL     1      45.273   5.206  12.610  0.00  0.00    +0.000 A 
ATOM      3  C   UNL     1      46.042   6.289  12.187  0.00  0.00    +0.000 A 
ATOM      4  C   UNL     1      47.267   6.542  12.809  0.00  0.00    +0.000 A 
ATOM      5  C   UNL     1      47.658   5.751  13.883  0.00  0.00    +0.000 A 
ATOM      6  C   UNL     1      46.817   4.723  14.269  0.00  0.00    +0.000 A 
ATOM      7  N   UNL     1      45.651   4.430  13.651  0.00  0.00    +0.000 NA
BRANCH   4   8
ATOM      8  S   UNL     1      48.341   7.834  12.194  0.00  0.00    +0.000 S 
BRANCH   8   9
ATOM      9  C   UNL     1      47.743   9.177  13.290  0.00  0.00    +0.000 C 
ATOM     10  C   UNL     1      48.790  10.303  13.488  0.00  0.00    +0.000 C 
ATOM     11  N   UNL     1      48.388  10.364  14.924  0.00  0.00    +0.000 NA
ATOM     12  C   UNL     1      48.005   8.925  14.804  0.00  0.00    +0.000 C 
ATOM     13  H   UNL     1      47.573  10.971  15.060  0.00  0.00    +0.000 HD
BRANCH   9  14
ATOM     14  O   UNL     1      46.394   9.564  12.950  0.00  0.00    +0.000 OA
ATOM     15  H   UNL     1      46.157  10.171  13.671  0.00  0.00    +0.000 HD
ENDBRANCH   9  14
ENDBRANCH   8   9
ENDBRANCH   4   8
ENDBRANCH   1   2
BRANCH   1  16
ATOM     16  C   UNL     1      42.752   5.165  12.656  0.00  0.00    +0.000 C 
ATOM     17  F   UNL     1      41.843   5.816  11.883  0.00  0.00    +0.000 F 
ENDBRANCH   1  16
BRANCH   1  18
ATOM     18  C   UNL     1      44.018   3.355  11.411  0.00  0.00    +0.000 C 
BRANCH  18  19
ATOM     19  N   UNL     1      43.835   3.215   9.975  0.00  0.00    +0.000 N 
ATOM     20  H   UNL     1      42.894   3.236   9.594  0.00  0.00    +0.000 HD
BRANCH  19  24
ATOM     21  C   UNL     1      46.724   2.449   7.190  0.00  0.00    +0.000 A 
ATOM     22  C   UNL     1      46.263   1.484   8.072  0.00  0.00    +0.000 A 
ATOM     23  N   UNL     1      45.307   1.736   9.004  0.00  0.00    +0.000 NA
ATOM     24  C   UNL     1      44.813   2.994   9.045  0.00  0.00    +0.000 A 
ATOM     25  C   UNL     1      45.297   3.953   8.153  0.00  0.00    +0.000 A 
ATOM     26  N   UNL     1      46.247   3.714   7.211  0.00  0.00    +0.000 NA
BRANCH  21  28
ATOM     27  N   UNL     1      48.531   1.867   5.427  0.00  0.00    +0.000 NA
ATOM     28  C   UNL     1      47.713   2.140   6.202  0.00  0.00    +0.000 C 
ENDBRANCH  21  28
ENDBRANCH  19  24
ENDBRANCH  18  19
ENDBRANCH   1  18
TORSDOF 9
ENDMDL
MODEL 4
REMARK VINA RESULT:    -6.534      1.738      2.055
REMARK INTER + INTRA:         -10.437
REMARK INTER:                  -9.810
REMARK INTRA:                  -0.627
REMARK UNBOUND:                -0.657
REMARK  Name = 
REMARK  9 active torsions:
REMARK  status: ('A' for Active; 'I' for Inactive)
REMARK    1  A    between atoms: C_2  and  C_3
REMARK    2  A    between atoms: C_6  and  N_7
REMARK    3  A    between atoms: N_7  and  C_8
REMARK    4  A    between atoms: C_8  and  C_9
REMARK    5  A    between atoms: C_9  and  C_10
REMARK    6  A    between atoms: C_9  and  C_12
REMARK    7  A    between atoms: C_14  and  S_15
REMARK    8  A    between atoms: S_15  and  C_16
REMARK    9  A    between atoms: C_16  and  O_17
REMARK                            x       y       z     vdW  Elec       q    Type
REMARK                         _______ _______ _______ _____ _____    ______ ____
ROOT
ATOM      1  C   UNL     1      44.942   5.529  11.503  0.00  0.00    +0.000 C 
ENDROOT
BRANCH   1   2
ATOM      2  C   UNL     1      45.859   5.496  12.718  0.00  0.00    +0.000 A 
ATOM      3  C   UNL     1      46.611   6.621  13.051  0.00  0.00    +0.000 A 
ATOM      4  C   UNL     1      47.544   6.536  14.087  0.00  0.00    +0.000 A 
ATOM      5  C   UNL     1      47.651   5.354  14.810  0.00  0.00    +0.000 A 
ATOM      6  C   UNL     1      46.837   4.297  14.443  0.00  0.00    +0.000 A 
ATOM      7  N   UNL     1      45.961   4.341  13.414  0.00  0.00    +0.000 NA
BRANCH   4   8
ATOM      8  S   UNL     1      48.626   7.918  14.443  0.00  0.00    +0.000 S 
BRANCH   8   9
ATOM      9  C   UNL     1      49.565   7.890  12.868  0.00  0.00    +0.000 C 
ATOM     10  C   UNL     1      50.757   8.882  12.862  0.00  0.00    +0.000 C 
ATOM     11  N   UNL     1      50.414   9.214  11.447  0.00  0.00    +0.000 NA
ATOM     12  C   UNL     1      49.004   8.847  11.777  0.00  0.00    +0.000 C 
ATOM     13  H   UNL     1      50.843   8.552  10.792  0.00  0.00    +0.000 HD
BRANCH   9  14
ATOM     14  O   UNL     1      49.816   6.535  12.436  0.00  0.00    +0.000 OA
ATOM     15  H   UNL     1      49.455   6.007  13.168  0.00  0.00    +0.000 HD
ENDBRANCH   9  14
ENDBRANCH   8   9
ENDBRANCH   4   8
ENDBRANCH   1   2
BRANCH   1  16
ATOM     16  C   UNL     1      44.100   6.803  11.471  0.00  0.00    +0.000 C 
ATOM     17  F   UNL     1      42.775   6.505  11.478  0.00  0.00    +0.000 F 
ENDBRANCH   1  16
BRANCH   1  18
ATOM     18  C   UNL     1      44.059   4.268  11.418  0.00  0.00    +0.000 C 
BRANCH  18  19
ATOM     19  N   UNL     1      43.811   3.871  10.041  0.00  0.00    +0.000 N 
ATOM     20  H   UNL     1      42.860   3.895   9.685  0.00  0.00    +0.000 HD
BRANCH  19  24
ATOM     21  C   UNL     1      46.609   2.561   7.370  0.00  0.00    +0.000 A 
ATOM     22  C   UNL     1      46.121   3.858   7.363  0.00  0.00    +0.000 A 
ATOM     23  N   UNL     1      45.186   4.296   8.246  0.00  0.00    +0.000 NA
ATOM     24  C   UNL     1      44.733   3.399   9.149  0.00  0.00    +0.000 A 
ATOM     25  C   UNL     1      45.232   2.094   9.133  0.00  0.00    +0.000 A 
ATOM     26  N   UNL     1      46.172   1.643   8.263  0.00  0.00    +0.000 NA
BRANCH  21  28
ATOM     27  N   UNL     1      48.404   1.793   5.666  0.00  0.00    +0.000 NA
ATOM     28  C   UNL     1      47.616   2.141   6.443  0.00  0.00    +0.000 C 
ENDBRANCH  21  28
ENDBRANCH  19  24
ENDBRANCH  18  19
ENDBRANCH   1  18
TORSDOF 9
ENDMDL
MODEL 5
REMARK VINA RESULT:    -6.363      4.246      7.727
REMARK INTER + INTRA:         -10.182
REMARK INTER:                  -9.735
REMARK INTRA:                  -0.447
REMARK UNBOUND:                -0.657
REMARK  Name = 
REMARK  9 active torsions:
REMARK  status: ('A' for Active; 'I' for Inactive)
REMARK    1  A    between atoms: C_2  and  C_3
REMARK    2  A    between atoms: C_6  and  N_7
REMARK    3  A    between atoms: N_7  and  C_8
REMARK    4  A    between atoms: C_8  and  C_9
REMARK    5  A    between atoms: C_9  and  C_10
REMARK    6  A    between atoms: C_9  and  C_12
REMARK    7  A    between atoms: C_14  and  S_15
REMARK    8  A    between atoms: S_15  and  C_16
REMARK    9  A    between atoms: C_16  and  O_17
REMARK                            x       y       z     vdW  Elec       q    Type
REMARK                         _______ _______ _______ _____ _____    ______ ____
ROOT
ATOM      1  C   UNL     1      46.285   5.058  14.032  0.00  0.00    +0.000 C 
ENDROOT
BRANCH   1   2
ATOM      2  C   UNL     1      45.117   4.727  13.114  0.00  0.00    +0.000 A 
ATOM      3  C   UNL     1      45.277   3.785  12.099  0.00  0.00    +0.000 A 
ATOM      4  C   UNL     1      44.241   3.586  11.183  0.00  0.00    +0.000 A 
ATOM      5  C   UNL     1      43.047   4.278  11.347  0.00  0.00    +0.000 A 
ATOM      6  C   UNL     1      42.953   5.162  12.407  0.00  0.00    +0.000 A 
ATOM      7  N   UNL     1      43.959   5.407  13.276  0.00  0.00    +0.000 NA
BRANCH   4   8
ATOM      8  S   UNL     1      44.472   2.492   9.785  0.00  0.00    +0.000 S 
BRANCH   8   9
ATOM      9  C   UNL     1      44.887   3.778   8.547  0.00  0.00    +0.000 C 
ATOM     10  C   UNL     1      45.969   3.315   7.537  0.00  0.00    +0.000 C 
ATOM     11  N   UNL     1      46.570   4.678   7.625  0.00  0.00    +0.000 NA
ATOM     12  C   UNL     1      46.002   4.763   9.004  0.00  0.00    +0.000 C 
ATOM     13  H   UNL     1      46.116   5.332   6.979  0.00  0.00    +0.000 HD
BRANCH   9  14
ATOM     14  O   UNL     1      43.693   4.396   8.017  0.00  0.00    +0.000 OA
ATOM     15  H   UNL     1      44.008   5.275   7.750  0.00  0.00    +0.000 HD
ENDBRANCH   9  14
ENDBRANCH   8   9
ENDBRANCH   4   8
ENDBRANCH   1   2
BRANCH   1  16
ATOM     16  C   UNL     1      47.149   6.179  13.458  0.00  0.00    +0.000 C 
ATOM     17  F   UNL     1      46.463   7.352  13.435  0.00  0.00    +0.000 F 
ENDBRANCH   1  16
BRANCH   1  18
ATOM     18  C   UNL     1      47.128   3.809  14.360  0.00  0.00    +0.000 C 
BRANCH  18  19
ATOM     19  N   UNL     1      47.366   3.673  15.788  0.00  0.00    +0.000 N 
ATOM     20  H   UNL     1      46.617   3.894  16.436  0.00  0.00    +0.000 HD
BRANCH  19  24
ATOM     21  C   UNL     1      50.908   2.567  17.495  0.00  0.00    +0.000 A 
ATOM     22  C   UNL     1      50.209   1.744  16.626  0.00  0.00    +0.000 A 
ATOM     23  N   UNL     1      49.028   2.105  16.061  0.00  0.00    +0.000 NA
ATOM     24  C   UNL     1      48.544   3.324  16.389  0.00  0.00    +0.000 A 
ATOM     25  C   UNL     1      49.260   4.134  17.273  0.00  0.00    +0.000 A 
ATOM     26  N   UNL     1      50.445   3.790  17.840  0.00  0.00    +0.000 NA
BRANCH  21  28
ATOM     27  N   UNL     1      53.166   1.834  18.534  0.00  0.00    +0.000 NA
ATOM     28  C   UNL     1      52.165   2.164  18.050  0.00  0.00    +0.000 C 
ENDBRANCH  21  28
ENDBRANCH  19  24
ENDBRANCH  18  19
ENDBRANCH   1  18
TORSDOF 9
ENDMDL
MODEL 6
REMARK VINA RESULT:    -6.171      4.056      6.223
REMARK INTER + INTRA:          -9.894
REMARK INTER:                  -8.923
REMARK INTRA:                  -0.971
REMARK UNBOUND:                -0.657
REMARK  Name = 
REMARK  9 active torsions:
REMARK  status: ('A' for Active; 'I' for Inactive)
REMARK    1  A    between atoms: C_2  and  C_3
REMARK    2  A    between atoms: C_6  and  N_7
REMARK    3  A    between atoms: N_7  and  C_8
REMARK    4  A    between atoms: C_8  and  C_9
REMARK    5  A    between atoms: C_9  and  C_10
REMARK    6  A    between atoms: C_9  and  C_12
REMARK    7  A    between atoms: C_14  and  S_15
REMARK    8  A    between atoms: S_15  and  C_16
REMARK    9  A    between atoms: C_16  and  O_17
REMARK                            x       y       z     vdW  Elec       q    Type
REMARK                         _______ _______ _______ _____ _____    ______ ____
ROOT
ATOM      1  C   UNL     1      48.389   7.737  12.661  0.00  0.00    +0.000 C 
ENDROOT
BRANCH   1   2
ATOM      2  C   UNL     1      48.571   7.874  14.166  0.00  0.00    +0.000 A 
ATOM      3  C   UNL     1      49.058   6.799  14.907  0.00  0.00    +0.000 A 
ATOM      4  C   UNL     1      49.096   6.893  16.301  0.00  0.00    +0.000 A 
ATOM      5  C   UNL     1      48.716   8.082  16.912  0.00  0.00    +0.000 A 
ATOM      6  C   UNL     1      48.286   9.117  16.101  0.00  0.00    +0.000 A 
ATOM      7  N   UNL     1      48.194   9.032  14.755  0.00  0.00    +0.000 NA
BRANCH   4   8
ATOM      8  S   UNL     1      49.579   5.479  17.287  0.00  0.00    +0.000 S 
BRANCH   8   9
ATOM      9  C   UNL     1      47.891   4.869  17.662  0.00  0.00    +0.000 C 
ATOM     10  C   UNL     1      47.891   3.453  18.296  0.00  0.00    +0.000 C 
ATOM     11  N   UNL     1      46.699   3.128  17.458  0.00  0.00    +0.000 NA
ATOM     12  C   UNL     1      47.203   4.134  16.476  0.00  0.00    +0.000 C 
ATOM     13  H   UNL     1      45.829   3.431  17.909  0.00  0.00    +0.000 HD
BRANCH   9  14
ATOM     14  O   UNL     1      47.098   5.893  18.302  0.00  0.00    +0.000 OA
ATOM     15  H   UNL     1      46.208   5.502  18.304  0.00  0.00    +0.000 HD
ENDBRANCH   9  14
ENDBRANCH   8   9
ENDBRANCH   4   8
ENDBRANCH   1   2
BRANCH   1  16
ATOM     16  C   UNL     1      49.555   8.358  11.895  0.00  0.00    +0.000 C 
ATOM     17  F   UNL     1      50.114   7.453  11.051  0.00  0.00    +0.000 F 
ENDBRANCH   1  16
BRANCH   1  18
ATOM     18  C   UNL     1      47.037   8.312  12.192  0.00  0.00    +0.000 C 
BRANCH  18  19
ATOM     19  N   UNL     1      45.921   7.753  12.939  0.00  0.00    +0.000 N 
ATOM     20  H   UNL     1      45.563   8.259  13.743  0.00  0.00    +0.000 HD
BRANCH  19  24
ATOM     21  C   UNL     1      44.079   4.192  12.155  0.00  0.00    +0.000 A 
ATOM     22  C   UNL     1      43.819   5.343  11.427  0.00  0.00    +0.000 A 
ATOM     23  N   UNL     1      44.425   6.531  11.689  0.00  0.00    +0.000 NA
ATOM     24  C   UNL     1      45.307   6.552  12.712  0.00  0.00    +0.000 A 
ATOM     25  C   UNL     1      45.548   5.384  13.438  0.00  0.00    +0.000 A 
ATOM     26  N   UNL     1      44.957   4.187  13.184  0.00  0.00    +0.000 NA
BRANCH  21  28
ATOM     27  N   UNL     1      42.957   1.926  11.591  0.00  0.00    +0.000 NA
ATOM     28  C   UNL     1      43.443   2.951  11.834  0.00  0.00    +0.000 C 
ENDBRANCH  21  28
ENDBRANCH  19  24
ENDBRANCH  18  19
ENDBRANCH   1  18
TORSDOF 9
ENDMDL
MODEL 7
REMARK VINA RESULT:    -5.958      4.017      8.215
REMARK INTER + INTRA:          -9.575
REMARK INTER:                  -9.097
REMARK INTRA:                  -0.478
REMARK UNBOUND:                -0.657
REMARK  Name = 
REMARK  9 active torsions:
REMARK  status: ('A' for Active; 'I' for Inactive)
REMARK    1  A    between atoms: C_2  and  C_3
REMARK    2  A    between atoms: C_6  and  N_7
REMARK    3  A    between atoms: N_7  and  C_8
REMARK    4  A    between atoms: C_8  and  C_9
REMARK    5  A    between atoms: C_9  and  C_10
REMARK    6  A    between atoms: C_9  and  C_12
REMARK    7  A    between atoms: C_14  and  S_15
REMARK    8  A    between atoms: S_15  and  C_16
REMARK    9  A    between atoms: C_16  and  O_17
REMARK                            x       y       z     vdW  Elec       q    Type
REMARK                         _______ _______ _______ _____ _____    ______ ____
ROOT
ATOM      1  C   UNL     1      46.180   5.936  13.574  0.00  0.00    +0.000 C 
ENDROOT
BRANCH   1   2
ATOM      2  C   UNL     1      45.059   5.268  12.790  0.00  0.00    +0.000 A 
ATOM      3  C   UNL     1      45.355   4.248  11.887  0.00  0.00    +0.000 A 
ATOM      4  C   UNL     1      44.337   3.734  11.079  0.00  0.00    +0.000 A 
ATOM      5  C   UNL     1      43.039   4.200  11.244  0.00  0.00    +0.000 A 
ATOM      6  C   UNL     1      42.821   5.183  12.193  0.00  0.00    +0.000 A 
ATOM      7  N   UNL     1      43.798   5.729  12.952  0.00  0.00    +0.000 NA
BRANCH   4   8
ATOM      8  S   UNL     1      44.715   2.528   9.811  0.00  0.00    +0.000 S 
BRANCH   8   9
ATOM      9  C   UNL     1      44.985   3.711   8.437  0.00  0.00    +0.000 C 
ATOM     10  C   UNL     1      45.862   3.124   7.301  0.00  0.00    +0.000 C 
ATOM     11  N   UNL     1      46.538   4.450   7.197  0.00  0.00    +0.000 NA
ATOM     12  C   UNL     1      46.208   4.652   8.640  0.00  0.00    +0.000 C 
ATOM     13  H   UNL     1      46.016   5.091   6.588  0.00  0.00    +0.000 HD
BRANCH   9  14
ATOM     14  O   UNL     1      43.753   4.368   8.065  0.00  0.00    +0.000 OA
ATOM     15  H   UNL     1      44.028   4.934   7.324  0.00  0.00    +0.000 HD
ENDBRANCH   9  14
ENDBRANCH   8   9
ENDBRANCH   4   8
ENDBRANCH   1   2
BRANCH   1  16
ATOM     16  C   UNL     1      46.822   7.070  12.778  0.00  0.00    +0.000 C 
ATOM     17  F   UNL     1      48.167   6.899  12.697  0.00  0.00    +0.000 F 
ENDBRANCH   1  16
BRANCH   1  18
ATOM     18  C   UNL     1      47.232   4.914  14.049  0.00  0.00    +0.000 C 
BRANCH  18  19
ATOM     19  N   UNL     1      46.852   4.287  15.305  0.00  0.00    +0.000 N 
ATOM     20  H   UNL     1      45.982   3.767  15.352  0.00  0.00    +0.000 HD
BRANCH  19  24
ATOM     21  C   UNL     1      48.842   4.619  18.857  0.00  0.00    +0.000 A 
ATOM     22  C   UNL     1      48.730   5.673  17.963  0.00  0.00    +0.000 A 
ATOM     23  N   UNL     1      48.074   5.564  16.778  0.00  0.00    +0.000 NA
ATOM     24  C   UNL     1      47.527   4.362  16.492  0.00  0.00    +0.000 A 
ATOM     25  C   UNL     1      47.659   3.312  17.403  0.00  0.00    +0.000 A 
ATOM     26  N   UNL     1      48.304   3.406  18.594  0.00  0.00    +0.000 NA
BRANCH  21  28
ATOM     27  N   UNL     1      50.041   4.876  21.139  0.00  0.00    +0.000 NA
ATOM     28  C   UNL     1      49.516   4.777  20.110  0.00  0.00    +0.000 C 
ENDBRANCH  21  28
ENDBRANCH  19  24
ENDBRANCH  18  19
ENDBRANCH   1  18
TORSDOF 9
ENDMDL
MODEL 8
REMARK VINA RESULT:    -5.883      5.245      8.548
REMARK INTER + INTRA:          -9.463
REMARK INTER:                  -9.093
REMARK INTRA:                  -0.370
REMARK UNBOUND:                -0.657
REMARK  Name = 
REMARK  9 active torsions:
REMARK  status: ('A' for Active; 'I' for Inactive)
REMARK    1  A    between atoms: C_2  and  C_3
REMARK    2  A    between atoms: C_6  and  N_7
REMARK    3  A    between atoms: N_7  and  C_8
REMARK    4  A    between atoms: C_8  and  C_9
REMARK    5  A    between atoms: C_9  and  C_10
REMARK    6  A    between atoms: C_9  and  C_12
REMARK    7  A    between atoms: C_14  and  S_15
REMARK    8  A    between atoms: S_15  and  C_16
REMARK    9  A    between atoms: C_16  and  O_17
REMARK                            x       y       z     vdW  Elec       q    Type
REMARK                         _______ _______ _______ _____ _____    ______ ____
ROOT
ATOM      1  C   UNL     1      48.109   4.400  16.237  0.00  0.00    +0.000 C 
ENDROOT
BRANCH   1   2
ATOM      2  C   UNL     1      47.563   5.061  14.980  0.00  0.00    +0.000 A 
ATOM      3  C   UNL     1      46.238   4.846  14.602  0.00  0.00    +0.000 A 
ATOM      4  C   UNL     1      45.786   5.351  13.380  0.00  0.00    +0.000 A 
ATOM      5  C   UNL     1      46.645   6.116  12.601  0.00  0.00    +0.000 A 
ATOM      6  C   UNL     1      47.932   6.319  13.068  0.00  0.00    +0.000 A 
ATOM      7  N   UNL     1      48.406   5.801  14.224  0.00  0.00    +0.000 NA
BRANCH   4   8
ATOM      8  S   UNL     1      44.135   4.968  12.802  0.00  0.00    +0.000 S 
BRANCH   8   9
ATOM      9  C   UNL     1      44.548   3.408  11.932  0.00  0.00    +0.000 C 
ATOM     10  C   UNL     1      44.775   3.610  10.411  0.00  0.00    +0.000 C 
ATOM     11  N   UNL     1      44.042   2.331  10.178  0.00  0.00    +0.000 NA
ATOM     12  C   UNL     1      43.307   2.603  11.450  0.00  0.00    +0.000 C 
ATOM     13  H   UNL     1      44.665   1.520  10.257  0.00  0.00    +0.000 HD
BRANCH   9  14
ATOM     14  O   UNL     1      45.534   2.648  12.665  0.00  0.00    +0.000 OA
ATOM     15  H   UNL     1      45.811   1.978  12.018  0.00  0.00    +0.000 HD
ENDBRANCH   9  14
ENDBRANCH   8   9
ENDBRANCH   4   8
ENDBRANCH   1   2
BRANCH   1  16
ATOM     16  C   UNL     1      46.994   4.067  17.226  0.00  0.00    +0.000 C 
ATOM     17  F   UNL     1      47.032   2.754  17.570  0.00  0.00    +0.000 F 
ENDBRANCH   1  16
BRANCH   1  18
ATOM     18  C   UNL     1      49.212   5.251  16.898  0.00  0.00    +0.000 C 
BRANCH  18  19
ATOM     19  N   UNL     1      49.881   4.535  17.972  0.00  0.00    +0.000 N 
ATOM     20  H   UNL     1      49.740   4.839  18.930  0.00  0.00    +0.000 HD
BRANCH  19  24
ATOM     21  C   UNL     1      52.553   1.461  17.656  0.00  0.00    +0.000 A 
ATOM     22  C   UNL     1      52.893   2.693  18.191  0.00  0.00    +0.000 A 
ATOM     23  N   UNL     1      52.009   3.720  18.292  0.00  0.00    +0.000 NA
ATOM     24  C   UNL     1      50.757   3.494  17.836  0.00  0.00    +0.000 A 
ATOM     25  C   UNL     1      50.437   2.247  17.293  0.00  0.00    +0.000 A 
ATOM     26  N   UNL     1      51.307   1.209  17.192  0.00  0.00    +0.000 NA
BRANCH  21  28
ATOM     27  N   UNL     1      54.281  -0.468  17.575  0.00  0.00    +0.000 NA
ATOM     28  C   UNL     1      53.502   0.391  17.591  0.00  0.00    +0.000 C 
ENDBRANCH  21  28
ENDBRANCH  19  24
ENDBRANCH  18  19
ENDBRANCH   1  18
TORSDOF 9
ENDMDL
MODEL 9
REMARK VINA RESULT:    -5.769      1.926      2.751
REMARK INTER + INTRA:          -9.293
REMARK INTER:                  -8.736
REMARK INTRA:                  -0.557
REMARK UNBOUND:                -0.657
REMARK  Name = 
REMARK  9 active torsions:
REMARK  status: ('A' for Active; 'I' for Inactive)
REMARK    1  A    between atoms: C_2  and  C_3
REMARK    2  A    between atoms: C_6  and  N_7
REMARK    3  A    between atoms: N_7  and  C_8
REMARK    4  A    between atoms: C_8  and  C_9
REMARK    5  A    between atoms: C_9  and  C_10
REMARK    6  A    between atoms: C_9  and  C_12
REMARK    7  A    between atoms: C_14  and  S_15
REMARK    8  A    between atoms: S_15  and  C_16
REMARK    9  A    between atoms: C_16  and  O_17
REMARK                            x       y       z     vdW  Elec       q    Type
REMARK                         _______ _______ _______ _____ _____    ______ ____
ROOT
ATOM      1  C   UNL     1      44.335   5.158  11.738  0.00  0.00    +0.000 C 
ENDROOT
BRANCH   1   2
ATOM      2  C   UNL     1      45.629   5.956  11.820  0.00  0.00    +0.000 A 
ATOM      3  C   UNL     1      46.037   6.494  13.039  0.00  0.00    +0.000 A 
ATOM      4  C   UNL     1      47.155   7.332  13.076  0.00  0.00    +0.000 A 
ATOM      5  C   UNL     1      47.876   7.553  11.909  0.00  0.00    +0.000 A 
ATOM      6  C   UNL     1      47.430   6.946  10.749  0.00  0.00    +0.000 A 
ATOM      7  N   UNL     1      46.324   6.171  10.679  0.00  0.00    +0.000 NA
BRANCH   4   8
ATOM      8  S   UNL     1      47.617   8.153  14.598  0.00  0.00    +0.000 S 
BRANCH   8   9
ATOM      9  C   UNL     1      48.843   6.915  15.168  0.00  0.00    +0.000 C 
ATOM     10  C   UNL     1      48.200   5.545  15.509  0.00  0.00    +0.000 C 
ATOM     11  N   UNL     1      49.113   5.460  16.687  0.00  0.00    +0.000 NA
ATOM     12  C   UNL     1      49.120   6.954  16.699  0.00  0.00    +0.000 C 
ATOM     13  H   UNL     1      50.026   5.072  16.427  0.00  0.00    +0.000 HD
BRANCH   9  14
ATOM     14  O   UNL     1      50.016   6.917  14.325  0.00  0.00    +0.000 OA
ATOM     15  H   UNL     1      50.498   6.129  14.628  0.00  0.00    +0.000 HD
ENDBRANCH   9  14
ENDBRANCH   8   9
ENDBRANCH   4   8
ENDBRANCH   1   2
BRANCH   1  16
ATOM     16  C   UNL     1      43.410   5.468  12.913  0.00  0.00    +0.000 C 
ATOM     17  F   UNL     1      42.108   5.390  12.534  0.00  0.00    +0.000 F 
ENDBRANCH   1  16
BRANCH   1  18
ATOM     18  C   UNL     1      44.603   3.645  11.616  0.00  0.00    +0.000 C 
BRANCH  18  19
ATOM     19  N   UNL     1      44.248   3.135  10.301  0.00  0.00    +0.000 N 
ATOM     20  H   UNL     1      43.295   2.828  10.132  0.00  0.00    +0.000 HD
BRANCH  19  24
ATOM     21  C   UNL     1      46.735   2.509   7.122  0.00  0.00    +0.000 A 
ATOM     22  C   UNL     1      46.416   1.510   8.027  0.00  0.00    +0.000 A 
ATOM     23  N   UNL     1      45.594   1.715   9.090  0.00  0.00    +0.000 NA
ATOM     24  C   UNL     1      45.091   2.961   9.239  0.00  0.00    +0.000 A 
ATOM     25  C   UNL     1      45.432   3.955   8.319  0.00  0.00    +0.000 A 
ATOM     26  N   UNL     1      46.246   3.764   7.249  0.00  0.00    +0.000 NA
BRANCH  21  28
ATOM     27  N   UNL     1      48.237   2.037   5.064  0.00  0.00    +0.000 NA
ATOM     28  C   UNL     1      47.582   2.250   5.997  0.00  0.00    +0.000 C 
ENDBRANCH  21  28
ENDBRANCH  19  24
ENDBRANCH  18  19
ENDBRANCH   1  18
TORSDOF 9
ENDMDL
