MODEL 1
REMARK VINA RESULT:    -8.651      0.000      0.000
REMARK INTER + INTRA:         -11.847
REMARK INTER:                 -11.179
REMARK INTRA:                  -0.668
REMARK UNBOUND:                -0.668
REMARK  Name = 
REMARK  5 active torsions:
REMARK  status: ('A' for Active; 'I' for Inactive)
REMARK    1  A    between atoms: C_2  and  C_4
REMARK    2  A    between atoms: C_7  and  C_8
REMARK    3  A    between atoms: C_8  and  C_9
REMARK    4  A    between atoms: C_9  and  C_10
REMARK    5  A    between atoms: C_13  and  C_14
REMARK                            x       y       z     vdW  Elec       q    Type
REMARK                         _______ _______ _______ _____ _____    ______ ____
ROOT
ATOM      1  C   UNL     1      44.092   4.623  11.736  0.00  0.00    +0.000 C 
ATOM      2  C   UNL     1      43.484   3.497  12.576  0.00  0.00    +0.000 C 
ATOM      3  C   UNL     1      43.017   4.905  12.791  0.00  0.00    +0.000 C 
ENDROOT
BRANCH   1   4
ATOM      4  C   UNL     1      45.506   5.048  12.132  0.00  0.00    +0.000 A 
ATOM      5  C   UNL     1      46.042   6.231  11.623  0.00  0.00    +0.000 A 
ATOM      6  C   UNL     1      47.095   6.838  12.290  0.00  0.00    +0.000 A 
ATOM      7  C   UNL     1      47.619   6.234  13.433  0.00  0.00    +0.000 A 
ATOM      8  C   UNL     1      47.148   4.974  13.766  0.00  0.00    +0.000 A 
ATOM      9  N   UNL     1      46.119   4.373  13.137  0.00  0.00    +0.000 NA
BRANCH   7  10
ATOM     10  C   UNL     1      48.563   6.933  14.354  0.00  0.00    +0.000 C 
ATOM     11  F   UNL     1      48.720   6.301  15.551  0.00  0.00    +0.000 F 
ATOM     12  F   UNL     1      49.816   7.023  13.823  0.00  0.00    +0.000 F 
ATOM     13  F   UNL     1      48.187   8.206  14.644  0.00  0.00    +0.000 F 
ENDBRANCH   7  10
ENDBRANCH   1   4
BRANCH   1  14
ATOM     14  C   UNL     1      43.827   4.735  10.244  0.00  0.00    +0.000 C 
BRANCH  14  18
ATOM     15  C   UNL     1      46.413   2.443   7.741  0.00  0.00    +0.000 A 
ATOM     16  C   UNL     1      45.610   1.769   8.660  0.00  0.00    +0.000 A 
ATOM     17  C   UNL     1      44.714   2.496   9.449  0.00  0.00    +0.000 A 
ATOM     18  C   UNL     1      44.630   3.879   9.291  0.00  0.00    +0.000 A 
ATOM     19  N   UNL     1      45.384   4.541   8.378  0.00  0.00    +0.000 NA
ATOM     20  C   UNL     1      46.271   3.818   7.642  0.00  0.00    +0.000 A 
BRANCH  15  22
ATOM     21  N   UNL     1      48.500   2.538   6.504  0.00  0.00    +0.000 N 
ATOM     22  C   UNL     1      47.436   1.777   6.908  0.00  0.00    +0.000 C 
ATOM     23  O   UNL     1      47.351   0.596   6.611  0.00  0.00    +0.000 OA
ATOM     24  H   UNL     1      49.241   2.046   6.024  0.00  0.00    +0.000 HD
ATOM     25  H   UNL     1      48.722   3.424   6.929  0.00  0.00    +0.000 HD
ENDBRANCH  15  22
ENDBRANCH  14  18
ENDBRANCH   1  14
TORSDOF 5
ENDMDL
MODEL 2
REMARK VINA RESULT:    -8.173      1.409      2.078
REMARK INTER + INTRA:         -11.229
REMARK INTER:                 -10.286
REMARK INTRA:                  -0.943
REMARK UNBOUND:                -0.668
REMARK  Name = 
REMARK  5 active torsions:
REMARK  status: ('A' for Active; 'I' for Inactive)
REMARK    1  A    between atoms: C_2  and  C_4
REMARK    2  A    between atoms: C_7  and  C_8
REMARK    3  A    between atoms: C_8  and  C_9
REMARK    4  A    between atoms: C_9  and  C_10
REMARK    5  A    between atoms: C_13  and  C_14
REMARK                            x       y       z     vdW  Elec       q    Type
REMARK                         _______ _______ _______ _____ _____    ______ ____
ROOT
ATOM      1  C   UNL     1      43.916   4.782  11.801  0.00  0.00    +0.000 C 
ATOM      2  C   UNL     1      43.673   3.588  12.727  0.00  0.00    +0.000 C 
ATOM      3  C   UNL     1      42.730   4.752  12.771  0.00  0.00    +0.000 C 
ENDROOT
BRANCH   1   4
ATOM      4  C   UNL     1      45.057   5.712  12.213  0.00  0.00    +0.000 A 
ATOM      5  C   UNL     1      46.158   5.197  12.897  0.00  0.00    +0.000 A 
ATOM      6  C   UNL     1      47.354   5.901  12.881  0.00  0.00    +0.000 A 
ATOM      7  C   UNL     1      47.418   7.124  12.214  0.00  0.00    +0.000 A 
ATOM      8  C   UNL     1      46.235   7.646  11.716  0.00  0.00    +0.000 A 
ATOM      9  N   UNL     1      45.066   6.974  11.712  0.00  0.00    +0.000 NA
BRANCH   7  10
ATOM     10  C   UNL     1      48.707   7.818  11.924  0.00  0.00    +0.000 C 
ATOM     11  F   UNL     1      48.599   9.176  11.903  0.00  0.00    +0.000 F 
ATOM     12  F   UNL     1      49.655   7.541  12.864  0.00  0.00    +0.000 F 
ATOM     13  F   UNL     1      49.250   7.462  10.729  0.00  0.00    +0.000 F 
ENDBRANCH   7  10
ENDBRANCH   1   4
BRANCH   1  14
ATOM     14  C   UNL     1      43.748   4.669  10.296  0.00  0.00    +0.000 C 
BRANCH  14  18
ATOM     15  C   UNL     1      46.533   2.654   7.769  0.00  0.00    +0.000 A 
ATOM     16  C   UNL     1      46.509   4.047   7.750  0.00  0.00    +0.000 A 
ATOM     17  C   UNL     1      45.645   4.728   8.613  0.00  0.00    +0.000 A 
ATOM     18  C   UNL     1      44.836   4.000   9.485  0.00  0.00    +0.000 A 
ATOM     19  N   UNL     1      44.874   2.645   9.532  0.00  0.00    +0.000 NA
ATOM     20  C   UNL     1      45.700   2.002   8.664  0.00  0.00    +0.000 A 
BRANCH  15  22
ATOM     21  N   UNL     1      48.437   2.457   6.274  0.00  0.00    +0.000 N 
ATOM     22  C   UNL     1      47.362   1.839   6.854  0.00  0.00    +0.000 C 
ATOM     23  O   UNL     1      47.115   0.662   6.643  0.00  0.00    +0.000 OA
ATOM     24  H   UNL     1      49.053   1.863   5.736  0.00  0.00    +0.000 HD
ATOM     25  H   UNL     1      48.806   3.331   6.614  0.00  0.00    +0.000 HD
ENDBRANCH  15  22
ENDBRANCH  14  18
ENDBRANCH   1  14
TORSDOF 5
ENDMDL
MODEL 3
REMARK VINA RESULT:    -8.109      4.384      7.139
REMARK INTER + INTRA:         -11.147
REMARK INTER:                 -10.717
REMARK INTRA:                  -0.430
REMARK UNBOUND:                -0.668
REMARK  Name = 
REMARK  5 active torsions:
REMARK  status: ('A' for Active; 'I' for Inactive)
REMARK    1  A    between atoms: C_2  and  C_4
REMARK    2  A    between atoms: C_7  and  C_8
REMARK    3  A    between atoms: C_8  and  C_9
REMARK    4  A    between atoms: C_9  and  C_10
REMARK    5  A    between atoms: C_13  and  C_14
REMARK                            x       y       z     vdW  Elec       q    Type
REMARK                         _______ _______ _______ _____ _____    ______ ____
ROOT
ATOM      1  C   UNL     1      44.490   4.047  11.227  0.00  0.00    +0.000 C 
ATOM      2  C   UNL     1      43.952   5.476  11.330  0.00  0.00    +0.000 C 
ATOM      3  C   UNL     1      43.002   4.326  11.462  0.00  0.00    +0.000 C 
ENDROOT
BRANCH   1   4
ATOM      4  C   UNL     1      44.838   3.576   9.815  0.00  0.00    +0.000 A 
ATOM      5  C   UNL     1      45.299   4.495   8.873  0.00  0.00    +0.000 A 
ATOM      6  C   UNL     1      46.017   4.038   7.777  0.00  0.00    +0.000 A 
ATOM      7  C   UNL     1      46.231   2.669   7.623  0.00  0.00    +0.000 A 
ATOM      8  C   UNL     1      45.588   1.816   8.506  0.00  0.00    +0.000 A 
ATOM      9  N   UNL     1      44.895   2.240   9.582  0.00  0.00    +0.000 NA
BRANCH   7  10
ATOM     10  C   UNL     1      47.199   2.109   6.635  0.00  0.00    +0.000 C 
ATOM     11  F   UNL     1      47.010   2.573   5.368  0.00  0.00    +0.000 F 
ATOM     12  F   UNL     1      48.487   2.425   6.952  0.00  0.00    +0.000 F 
ATOM     13  F   UNL     1      47.157   0.753   6.552  0.00  0.00    +0.000 F 
ENDBRANCH   7  10
ENDBRANCH   1   4
BRANCH   1  14
ATOM     14  C   UNL     1      45.394   3.458  12.296  0.00  0.00    +0.000 C 
BRANCH  14  18
ATOM     15  C   UNL     1      47.903   5.825  14.806  0.00  0.00    +0.000 A 
ATOM     16  C   UNL     1      47.686   6.249  13.496  0.00  0.00    +0.000 A 
ATOM     17  C   UNL     1      46.821   5.519  12.675  0.00  0.00    +0.000 A 
ATOM     18  C   UNL     1      46.181   4.391  13.187  0.00  0.00    +0.000 A 
ATOM     19  N   UNL     1      46.362   3.988  14.470  0.00  0.00    +0.000 NA
ATOM     20  C   UNL     1      47.230   4.695  15.242  0.00  0.00    +0.000 A 
BRANCH  15  22
ATOM     21  N   UNL     1      48.314   7.057  16.858  0.00  0.00    +0.000 N 
ATOM     22  C   UNL     1      48.846   6.487  15.732  0.00  0.00    +0.000 C 
ATOM     23  O   UNL     1      50.048   6.506  15.519  0.00  0.00    +0.000 OA
ATOM     24  H   UNL     1      48.978   7.413  17.532  0.00  0.00    +0.000 HD
ATOM     25  H   UNL     1      47.382   6.845  17.182  0.00  0.00    +0.000 HD
ENDBRANCH  15  22
ENDBRANCH  14  18
ENDBRANCH   1  14
TORSDOF 5
ENDMDL
MODEL 4
REMARK VINA RESULT:    -7.686      1.466      2.074
REMARK INTER + INTRA:         -10.601
REMARK INTER:                 -10.369
REMARK INTRA:                  -0.231
REMARK UNBOUND:                -0.668
REMARK  Name = 
REMARK  5 active torsions:
REMARK  status: ('A' for Active; 'I' for Inactive)
REMARK    1  A    between atoms: C_2  and  C_4
REMARK    2  A    between atoms: C_7  and  C_8
REMARK    3  A    between atoms: C_8  and  C_9
REMARK    4  A    between atoms: C_9  and  C_10
REMARK    5  A    between atoms: C_13  and  C_14
REMARK                            x       y       z     vdW  Elec       q    Type
REMARK                         _______ _______ _______ _____ _____    ______ ____
ROOT
ATOM      1  C   UNL     1      43.836   4.762  11.407  0.00  0.00    +0.000 C 
ATOM      2  C   UNL     1      42.627   5.315  12.165  0.00  0.00    +0.000 C 
ATOM      3  C   UNL     1      43.350   6.199  11.196  0.00  0.00    +0.000 C 
ENDROOT
BRANCH   1   4
ATOM      4  C   UNL     1      45.121   4.633  12.224  0.00  0.00    +0.000 A 
ATOM      5  C   UNL     1      45.823   5.780  12.596  0.00  0.00    +0.000 A 
ATOM      6  C   UNL     1      46.701   5.717  13.669  0.00  0.00    +0.000 A 
ATOM      7  C   UNL     1      46.889   4.502  14.327  0.00  0.00    +0.000 A 
ATOM      8  C   UNL     1      46.291   3.377  13.782  0.00  0.00    +0.000 A 
ATOM      9  N   UNL     1      45.428   3.419  12.748  0.00  0.00    +0.000 NA
BRANCH   7  10
ATOM     10  C   UNL     1      47.600   4.395  15.635  0.00  0.00    +0.000 C 
ATOM     11  F   UNL     1      46.770   4.472  16.712  0.00  0.00    +0.000 F 
ATOM     12  F   UNL     1      48.252   3.204  15.761  0.00  0.00    +0.000 F 
ATOM     13  F   UNL     1      48.543   5.358  15.813  0.00  0.00    +0.000 F 
ENDBRANCH   7  10
ENDBRANCH   1   4
BRANCH   1  14
ATOM     14  C   UNL     1      43.685   3.681  10.351  0.00  0.00    +0.000 C 
BRANCH  14  18
ATOM     15  C   UNL     1      46.681   2.726   7.467  0.00  0.00    +0.000 A 
ATOM     16  C   UNL     1      46.282   4.055   7.594  0.00  0.00    +0.000 A 
ATOM     17  C   UNL     1      45.344   4.399   8.572  0.00  0.00    +0.000 A 
ATOM     18  C   UNL     1      44.838   3.407   9.412  0.00  0.00    +0.000 A 
ATOM     19  N   UNL     1      45.243   2.115   9.317  0.00  0.00    +0.000 NA
ATOM     20  C   UNL     1      46.133   1.799   8.339  0.00  0.00    +0.000 A 
BRANCH  15  22
ATOM     21  N   UNL     1      47.816   3.071   5.348  0.00  0.00    +0.000 N 
ATOM     22  C   UNL     1      47.615   2.250   6.425  0.00  0.00    +0.000 C 
ATOM     23  O   UNL     1      48.203   1.185   6.529  0.00  0.00    +0.000 OA
ATOM     24  H   UNL     1      48.533   2.783   4.697  0.00  0.00    +0.000 HD
ATOM     25  H   UNL     1      47.548   4.043   5.352  0.00  0.00    +0.000 HD
ENDBRANCH  15  22
ENDBRANCH  14  18
ENDBRANCH   1  14
TORSDOF 5
ENDMDL
MODEL 5
REMARK VINA RESULT:    -7.497      4.483      6.984
REMARK INTER + INTRA:         -10.357
REMARK INTER:                 -10.347
REMARK INTRA:                  -0.010
REMARK UNBOUND:                -0.668
REMARK  Name = 
REMARK  5 active torsions:
REMARK  status: ('A' for Active; 'I' for Inactive)
REMARK    1  A    between atoms: C_2  and  C_4
REMARK    2  A    between atoms: C_7  and  C_8
REMARK    3  A    between atoms: C_8  and  C_9
REMARK    4  A    between atoms: C_9  and  C_10
REMARK    5  A    between atoms: C_13  and  C_14
REMARK                            x       y       z     vdW  Elec       q    Type
REMARK                         _______ _______ _______ _____ _____    ______ ____
ROOT
ATOM      1  C   UNL     1      44.389   4.116  11.023  0.00  0.00    +0.000 C 
ATOM      2  C   UNL     1      43.567   3.159  11.889  0.00  0.00    +0.000 C 
ATOM      3  C   UNL     1      45.008   3.392  12.223  0.00  0.00    +0.000 C 
ENDROOT
BRANCH   1   4
ATOM      4  C   UNL     1      44.810   3.571   9.659  0.00  0.00    +0.000 A 
ATOM      5  C   UNL     1      45.299   4.442   8.685  0.00  0.00    +0.000 A 
ATOM      6  C   UNL     1      46.074   3.936   7.652  0.00  0.00    +0.000 A 
ATOM      7  C   UNL     1      46.317   2.564   7.589  0.00  0.00    +0.000 A 
ATOM      8  C   UNL     1      45.649   1.752   8.491  0.00  0.00    +0.000 A 
ATOM      9  N   UNL     1      44.900   2.225   9.508  0.00  0.00    +0.000 NA
BRANCH   7  10
ATOM     10  C   UNL     1      47.339   1.966   6.681  0.00  0.00    +0.000 C 
ATOM     11  F   UNL     1      47.088   2.188   5.360  0.00  0.00    +0.000 F 
ATOM     12  F   UNL     1      48.582   2.480   6.907  0.00  0.00    +0.000 F 
ATOM     13  F   UNL     1      47.460   0.619   6.822  0.00  0.00    +0.000 F 
ENDBRANCH   7  10
ENDBRANCH   1   4
BRANCH   1  14
ATOM     14  C   UNL     1      44.121   5.611  11.014  0.00  0.00    +0.000 C 
BRANCH  14  18
ATOM     15  C   UNL     1      46.999   8.113  12.927  0.00  0.00    +0.000 A 
ATOM     16  C   UNL     1      47.456   7.058  12.140  0.00  0.00    +0.000 A 
ATOM     17  C   UNL     1      46.531   6.261  11.458  0.00  0.00    +0.000 A 
ATOM     18  C   UNL     1      45.171   6.548  11.566  0.00  0.00    +0.000 A 
ATOM     19  N   UNL     1      44.718   7.592  12.305  0.00  0.00    +0.000 NA
ATOM     20  C   UNL     1      45.632   8.335  12.984  0.00  0.00    +0.000 A 
BRANCH  15  22
ATOM     21  N   UNL     1      47.546   9.156  15.050  0.00  0.00    +0.000 N 
ATOM     22  C   UNL     1      47.888   8.972  13.738  0.00  0.00    +0.000 C 
ATOM     23  O   UNL     1      48.896   9.475  13.268  0.00  0.00    +0.000 OA
ATOM     24  H   UNL     1      48.216   9.658  15.618  0.00  0.00    +0.000 HD
ATOM     25  H   UNL     1      46.878   8.567  15.523  0.00  0.00    +0.000 HD
ENDBRANCH  15  22
ENDBRANCH  14  18
ENDBRANCH   1  14
TORSDOF 5
ENDMDL
MODEL 6
REMARK VINA RESULT:    -6.533      4.471      6.984
REMARK INTER + INTRA:          -9.111
REMARK INTER:                  -8.848
REMARK INTRA:                  -0.263
REMARK UNBOUND:                -0.668
REMARK  Name = 
REMARK  5 active torsions:
REMARK  status: ('A' for Active; 'I' for Inactive)
REMARK    1  A    between atoms: C_2  and  C_4
REMARK    2  A    between atoms: C_7  and  C_8
REMARK    3  A    between atoms: C_8  and  C_9
REMARK    4  A    between atoms: C_9  and  C_10
REMARK    5  A    between atoms: C_13  and  C_14
REMARK                            x       y       z     vdW  Elec       q    Type
REMARK                         _______ _______ _______ _____ _____    ______ ____
ROOT
ATOM      1  C   UNL     1      45.306   5.863  11.401  0.00  0.00    +0.000 C 
ATOM      2  C   UNL     1      44.299   7.015  11.375  0.00  0.00    +0.000 C 
ATOM      3  C   UNL     1      44.048   5.844  12.274  0.00  0.00    +0.000 C 
ENDROOT
BRANCH   1   4
ATOM      4  C   UNL     1      45.262   4.926  10.194  0.00  0.00    +0.000 A 
ATOM      5  C   UNL     1      45.815   5.333   8.980  0.00  0.00    +0.000 A 
ATOM      6  C   UNL     1      46.174   4.374   8.044  0.00  0.00    +0.000 A 
ATOM      7  C   UNL     1      45.942   3.028   8.323  0.00  0.00    +0.000 A 
ATOM      8  C   UNL     1      45.229   2.723   9.471  0.00  0.00    +0.000 A 
ATOM      9  N   UNL     1      44.880   3.639  10.397  0.00  0.00    +0.000 NA
BRANCH   7  10
ATOM     10  C   UNL     1      46.524   1.922   7.506  0.00  0.00    +0.000 C 
ATOM     11  F   UNL     1      46.153   1.963   6.196  0.00  0.00    +0.000 F 
ATOM     12  F   UNL     1      47.887   1.960   7.500  0.00  0.00    +0.000 F 
ATOM     13  F   UNL     1      46.186   0.686   7.958  0.00  0.00    +0.000 F 
ENDBRANCH   7  10
ENDBRANCH   1   4
BRANCH   1  14
ATOM     14  C   UNL     1      46.702   6.038  11.974  0.00  0.00    +0.000 C 
BRANCH  14  18
ATOM     15  C   UNL     1      47.469   4.017  15.652  0.00  0.00    +0.000 A 
ATOM     16  C   UNL     1      47.046   3.265  14.558  0.00  0.00    +0.000 A 
ATOM     17  C   UNL     1      46.845   3.899  13.328  0.00  0.00    +0.000 A 
ATOM     18  C   UNL     1      47.086   5.268  13.217  0.00  0.00    +0.000 A 
ATOM     19  N   UNL     1      47.528   6.003  14.268  0.00  0.00    +0.000 NA
ATOM     20  C   UNL     1      47.688   5.373  15.462  0.00  0.00    +0.000 A 
BRANCH  15  22
ATOM     21  N   UNL     1      48.850   3.688  17.623  0.00  0.00    +0.000 N 
ATOM     22  C   UNL     1      47.648   3.457  17.009  0.00  0.00    +0.000 C 
ATOM     23  O   UNL     1      46.758   2.837  17.569  0.00  0.00    +0.000 OA
ATOM     24  H   UNL     1      48.921   3.390  18.586  0.00  0.00    +0.000 HD
ATOM     25  H   UNL     1      49.495   4.392  17.299  0.00  0.00    +0.000 HD
ENDBRANCH  15  22
ENDBRANCH  14  18
ENDBRANCH   1  14
TORSDOF 5
ENDMDL
MODEL 7
REMARK VINA RESULT:    -6.497      4.676      6.961
REMARK INTER + INTRA:          -9.063
REMARK INTER:                  -8.430
REMARK INTRA:                  -0.633
REMARK UNBOUND:                -0.668
REMARK  Name = 
REMARK  5 active torsions:
REMARK  status: ('A' for Active; 'I' for Inactive)
REMARK    1  A    between atoms: C_2  and  C_4
REMARK    2  A    between atoms: C_7  and  C_8
REMARK    3  A    between atoms: C_8  and  C_9
REMARK    4  A    between atoms: C_9  and  C_10
REMARK    5  A    between atoms: C_13  and  C_14
REMARK                            x       y       z     vdW  Elec       q    Type
REMARK                         _______ _______ _______ _____ _____    ______ ____
ROOT
ATOM      1  C   UNL     1      44.881   5.086  11.453  0.00  0.00    +0.000 C 
ATOM      2  C   UNL     1      44.160   6.431  11.336  0.00  0.00    +0.000 C 
ATOM      3  C   UNL     1      43.439   5.264  11.938  0.00  0.00    +0.000 C 
ENDROOT
BRANCH   1   4
ATOM      4  C   UNL     1      45.025   4.302  10.148  0.00  0.00    +0.000 A 
ATOM      5  C   UNL     1      45.567   4.923   9.023  0.00  0.00    +0.000 A 
ATOM      6  C   UNL     1      46.101   4.140   8.010  0.00  0.00    +0.000 A 
ATOM      7  C   UNL     1      46.050   2.751   8.121  0.00  0.00    +0.000 A 
ATOM      8  C   UNL     1      45.336   2.218   9.182  0.00  0.00    +0.000 A 
ATOM      9  N   UNL     1      44.820   2.960  10.182  0.00  0.00    +0.000 NA
BRANCH   7  10
ATOM     10  C   UNL     1      46.819   1.840   7.222  0.00  0.00    +0.000 C 
ATOM     11  F   UNL     1      46.642   0.520   7.507  0.00  0.00    +0.000 F 
ATOM     12  F   UNL     1      46.449   1.985   5.918  0.00  0.00    +0.000 F 
ATOM     13  F   UNL     1      48.160   2.059   7.257  0.00  0.00    +0.000 F 
ENDBRANCH   7  10
ENDBRANCH   1   4
BRANCH   1  14
ATOM     14  C   UNL     1      46.049   4.889  12.402  0.00  0.00    +0.000 C 
BRANCH  14  18
ATOM     15  C   UNL     1      48.512   8.340  12.880  0.00  0.00    +0.000 A 
ATOM     16  C   UNL     1      48.076   7.673  14.023  0.00  0.00    +0.000 A 
ATOM     17  C   UNL     1      47.317   6.506  13.888  0.00  0.00    +0.000 A 
ATOM     18  C   UNL     1      47.024   6.026  12.612  0.00  0.00    +0.000 A 
ATOM     19  N   UNL     1      47.469   6.650  11.493  0.00  0.00    +0.000 NA
ATOM     20  C   UNL     1      48.181   7.799  11.647  0.00  0.00    +0.000 A 
BRANCH  15  22
ATOM     21  N   UNL     1      49.359  10.309  11.739  0.00  0.00    +0.000 N 
ATOM     22  C   UNL     1      49.264   9.612  12.913  0.00  0.00    +0.000 C 
ATOM     23  O   UNL     1      49.758  10.038  13.945  0.00  0.00    +0.000 OA
ATOM     24  H   UNL     1      49.784  11.224  11.798  0.00  0.00    +0.000 HD
ATOM     25  H   UNL     1      48.764  10.117  10.947  0.00  0.00    +0.000 HD
ENDBRANCH  15  22
ENDBRANCH  14  18
ENDBRANCH   1  14
TORSDOF 5
ENDMDL
MODEL 8
REMARK VINA RESULT:    -6.406      4.575      7.226
REMARK INTER + INTRA:          -8.946
REMARK INTER:                  -8.458
REMARK INTRA:                  -0.488
REMARK UNBOUND:                -0.668
REMARK  Name = 
REMARK  5 active torsions:
REMARK  status: ('A' for Active; 'I' for Inactive)
REMARK    1  A    between atoms: C_2  and  C_4
REMARK    2  A    between atoms: C_7  and  C_8
REMARK    3  A    between atoms: C_8  and  C_9
REMARK    4  A    between atoms: C_9  and  C_10
REMARK    5  A    between atoms: C_13  and  C_14
REMARK                            x       y       z     vdW  Elec       q    Type
REMARK                         _______ _______ _______ _____ _____    ______ ____
ROOT
ATOM      1  C   UNL     1      47.639   7.764  12.627  0.00  0.00    +0.000 C 
ATOM      2  C   UNL     1      48.134   8.989  11.854  0.00  0.00    +0.000 C 
ATOM      3  C   UNL     1      47.453   9.183  13.174  0.00  0.00    +0.000 C 
ENDROOT
BRANCH   1   4
ATOM      4  C   UNL     1      46.365   7.115  12.084  0.00  0.00    +0.000 A 
ATOM      5  C   UNL     1      46.412   6.383  10.898  0.00  0.00    +0.000 A 
ATOM      6  C   UNL     1      45.417   5.452  10.638  0.00  0.00    +0.000 A 
ATOM      7  C   UNL     1      44.373   5.296  11.550  0.00  0.00    +0.000 A 
ATOM      8  C   UNL     1      44.307   6.186  12.610  0.00  0.00    +0.000 A 
ATOM      9  N   UNL     1      45.269   7.089  12.885  0.00  0.00    +0.000 NA
BRANCH   7  10
ATOM     10  C   UNL     1      43.412   4.155  11.489  0.00  0.00    +0.000 C 
ATOM     11  F   UNL     1      43.457   3.349  12.586  0.00  0.00    +0.000 F 
ATOM     12  F   UNL     1      42.121   4.584  11.403  0.00  0.00    +0.000 F 
ATOM     13  F   UNL     1      43.609   3.345  10.415  0.00  0.00    +0.000 F 
ENDBRANCH   7  10
ENDBRANCH   1   4
BRANCH   1  14
ATOM     14  C   UNL     1      48.605   6.766  13.241  0.00  0.00    +0.000 C 
BRANCH  14  18
ATOM     15  C   UNL     1      47.679   4.344  16.628  0.00  0.00    +0.000 A 
ATOM     16  C   UNL     1      48.402   5.517  16.830  0.00  0.00    +0.000 A 
ATOM     17  C   UNL     1      48.666   6.355  15.742  0.00  0.00    +0.000 A 
ATOM     18  C   UNL     1      48.188   6.007  14.479  0.00  0.00    +0.000 A 
ATOM     19  N   UNL     1      47.457   4.882  14.277  0.00  0.00    +0.000 NA
ATOM     20  C   UNL     1      47.237   4.067  15.344  0.00  0.00    +0.000 A 
BRANCH  15  22
ATOM     21  N   UNL     1      48.195   3.415  18.811  0.00  0.00    +0.000 N 
ATOM     22  C   UNL     1      47.403   3.360  17.697  0.00  0.00    +0.000 C 
ATOM     23  O   UNL     1      46.494   2.550  17.603  0.00  0.00    +0.000 OA
ATOM     24  H   UNL     1      47.930   2.809  19.575  0.00  0.00    +0.000 HD
ATOM     25  H   UNL     1      48.775   4.213  19.024  0.00  0.00    +0.000 HD
ENDBRANCH  15  22
ENDBRANCH  14  18
ENDBRANCH   1  14
TORSDOF 5
ENDMDL
MODEL 9
REMARK VINA RESULT:    -6.257      3.214      4.853
REMARK INTER + INTRA:          -8.754
REMARK INTER:                  -8.402
REMARK INTRA:                  -0.352
REMARK UNBOUND:                -0.668
REMARK  Name = 
REMARK  5 active torsions:
REMARK  status: ('A' for Active; 'I' for Inactive)
REMARK    1  A    between atoms: C_2  and  C_4
REMARK    2  A    between atoms: C_7  and  C_8
REMARK    3  A    between atoms: C_8  and  C_9
REMARK    4  A    between atoms: C_9  and  C_10
REMARK    5  A    between atoms: C_13  and  C_14
REMARK                            x       y       z     vdW  Elec       q    Type
REMARK                         _______ _______ _______ _____ _____    ______ ____
ROOT
ATOM      1  C   UNL     1      48.031   7.572  13.014  0.00  0.00    +0.000 C 
ATOM      2  C   UNL     1      49.099   8.660  12.877  0.00  0.00    +0.000 C 
ATOM      3  C   UNL     1      49.073   7.532  11.892  0.00  0.00    +0.000 C 
ENDROOT
BRANCH   1   4
ATOM      4  C   UNL     1      48.262   6.563  14.139  0.00  0.00    +0.000 A 
ATOM      5  C   UNL     1      48.871   6.974  15.325  0.00  0.00    +0.000 A 
ATOM      6  C   UNL     1      48.689   6.221  16.475  0.00  0.00    +0.000 A 
ATOM      7  C   UNL     1      47.933   5.050  16.413  0.00  0.00    +0.000 A 
ATOM      8  C   UNL     1      47.516   4.621  15.163  0.00  0.00    +0.000 A 
ATOM      9  N   UNL     1      47.674   5.344  14.036  0.00  0.00    +0.000 NA
BRANCH   7  10
ATOM     10  C   UNL     1      47.469   4.323  17.631  0.00  0.00    +0.000 C 
ATOM     11  F   UNL     1      48.484   3.943  18.455  0.00  0.00    +0.000 F 
ATOM     12  F   UNL     1      46.644   5.093  18.397  0.00  0.00    +0.000 F 
ATOM     13  F   UNL     1      46.768   3.193  17.347  0.00  0.00    +0.000 F 
ENDBRANCH   7  10
ENDBRANCH   1   4
BRANCH   1  14
ATOM     14  C   UNL     1      46.562   7.862  12.761  0.00  0.00    +0.000 C 
BRANCH  14  18
ATOM     15  C   UNL     1      44.386   4.538  11.207  0.00  0.00    +0.000 A 
ATOM     16  C   UNL     1      43.967   5.101  12.411  0.00  0.00    +0.000 A 
ATOM     17  C   UNL     1      44.630   6.227  12.908  0.00  0.00    +0.000 A 
ATOM     18  C   UNL     1      45.688   6.773  12.183  0.00  0.00    +0.000 A 
ATOM     19  N   UNL     1      46.085   6.250  10.995  0.00  0.00    +0.000 NA
ATOM     20  C   UNL     1      45.446   5.138  10.545  0.00  0.00    +0.000 A 
BRANCH  15  22
ATOM     21  N   UNL     1      44.121   3.017   9.333  0.00  0.00    +0.000 N 
ATOM     22  C   UNL     1      43.796   3.312  10.630  0.00  0.00    +0.000 C 
ATOM     23  O   UNL     1      43.070   2.580  11.284  0.00  0.00    +0.000 OA
ATOM     24  H   UNL     1      43.796   2.125   8.986  0.00  0.00    +0.000 HD
ATOM     25  H   UNL     1      44.897   3.452   8.859  0.00  0.00    +0.000 HD
ENDBRANCH  15  22
ENDBRANCH  14  18
ENDBRANCH   1  14
TORSDOF 5
ENDMDL
