MODEL 1
REMARK VINA RESULT:    -8.641      0.000      0.000
REMARK INTER + INTRA:         -10.895
REMARK INTER:                 -10.661
REMARK INTRA:                  -0.234
REMARK UNBOUND:                -0.234
REMARK  Name = 
REMARK  4 active torsions:
REMARK  status: ('A' for Active; 'I' for Inactive)
REMARK    1  A    between atoms: C_2  and  C_4
REMARK    2  A    between atoms: C_7  and  N_8
REMARK    3  A    between atoms: N_8  and  C_9
REMARK    4  A    between atoms: C_9  and  C_10
REMARK                            x       y       z     vdW  Elec       q    Type
REMARK                         _______ _______ _______ _____ _____    ______ ____
ROOT
ATOM      1  N   UNL     1      43.815   4.638  10.178  0.00  0.00    +0.000 N 
ATOM      2  H   UNL     1      42.850   4.444   9.918  0.00  0.00    +0.000 HD
ENDROOT
BRANCH   1   6
ATOM      3  C   UNL     1      46.406   2.320   7.778  0.00  0.00    +0.000 A 
ATOM      4  C   UNL     1      46.407   3.709   7.636  0.00  0.00    +0.000 A 
ATOM      5  C   UNL     1      45.541   4.499   8.404  0.00  0.00    +0.000 A 
ATOM      6  C   UNL     1      44.682   3.915   9.336  0.00  0.00    +0.000 A 
ATOM      7  C   UNL     1      44.696   2.520   9.476  0.00  0.00    +0.000 A 
ATOM      8  C   UNL     1      45.534   1.723   8.693  0.00  0.00    +0.000 A 
BRANCH   3  10
ATOM      9  N   UNL     1      48.384   2.015   6.394  0.00  0.00    +0.000 N 
ATOM     10  C   UNL     1      47.286   1.436   6.969  0.00  0.00    +0.000 C 
ATOM     11  O   UNL     1      47.069   0.241   6.848  0.00  0.00    +0.000 OA
ATOM     12  H   UNL     1      49.029   1.386   5.931  0.00  0.00    +0.000 HD
ATOM     13  H   UNL     1      48.738   2.918   6.683  0.00  0.00    +0.000 HD
ENDBRANCH   3  10
ENDBRANCH   1   6
BRANCH   1  14
ATOM     14  C   UNL     1      44.037   4.868  11.621  0.00  0.00    +0.000 C 
ATOM     15  C   UNL     1      43.416   3.801  12.510  0.00  0.00    +0.000 C 
ATOM     16  C   UNL     1      42.882   5.196  12.546  0.00  0.00    +0.000 C 
BRANCH  14  17
ATOM     17  C   UNL     1      45.430   5.379  11.964  0.00  0.00    +0.000 A 
ATOM     18  C   UNL     1      45.946   6.556  11.402  0.00  0.00    +0.000 A 
ATOM     19  C   UNL     1      47.162   7.081  11.838  0.00  0.00    +0.000 A 
ATOM     20  C   UNL     1      47.849   6.394  12.821  0.00  0.00    +0.000 A 
ATOM     21 CL   UNL     1      49.309   7.010  13.474  0.00  0.00    +0.000 Cl
ATOM     22  N   UNL     1      47.434   5.236  13.366  0.00  0.00    +0.000 NA
ATOM     23  C   UNL     1      46.245   4.763  12.920  0.00  0.00    +0.000 A 
ENDBRANCH  14  17
ENDBRANCH   1  14
TORSDOF 4
ENDMDL
MODEL 2
REMARK VINA RESULT:    -7.366      3.798      6.599
REMARK INTER + INTRA:          -9.323
REMARK INTER:                  -8.804
REMARK INTRA:                  -0.519
REMARK UNBOUND:                -0.234
REMARK  Name = 
REMARK  4 active torsions:
REMARK  status: ('A' for Active; 'I' for Inactive)
REMARK    1  A    between atoms: C_2  and  C_4
REMARK    2  A    between atoms: C_7  and  N_8
REMARK    3  A    between atoms: N_8  and  C_9
REMARK    4  A    between atoms: C_9  and  C_10
REMARK                            x       y       z     vdW  Elec       q    Type
REMARK                         _______ _______ _______ _____ _____    ______ ____
ROOT
ATOM      1  N   UNL     1      44.637   6.010  10.711  0.00  0.00    +0.000 N 
ATOM      2  H   UNL     1      44.647   6.411   9.775  0.00  0.00    +0.000 HD
ENDROOT
BRANCH   1   6
ATOM      3  C   UNL     1      47.147   8.335  13.189  0.00  0.00    +0.000 A 
ATOM      4  C   UNL     1      47.688   7.247  12.501  0.00  0.00    +0.000 A 
ATOM      5  C   UNL     1      46.872   6.446  11.691  0.00  0.00    +0.000 A 
ATOM      6  C   UNL     1      45.514   6.735  11.540  0.00  0.00    +0.000 A 
ATOM      7  C   UNL     1      44.985   7.835  12.228  0.00  0.00    +0.000 A 
ATOM      8  C   UNL     1      45.784   8.620  13.062  0.00  0.00    +0.000 A 
BRANCH   3  10
ATOM      9  N   UNL     1      47.651   9.184  15.413  0.00  0.00    +0.000 N 
ATOM     10  C   UNL     1      47.963   9.200  14.081  0.00  0.00    +0.000 C 
ATOM     11  O   UNL     1      48.895   9.868  13.661  0.00  0.00    +0.000 OA
ATOM     12  H   UNL     1      48.276   9.697  16.023  0.00  0.00    +0.000 HD
ATOM     13  H   UNL     1      47.079   8.461  15.830  0.00  0.00    +0.000 HD
ENDBRANCH   3  10
ENDBRANCH   1   6
BRANCH   1  14
ATOM     14  C   UNL     1      44.446   4.545  10.760  0.00  0.00    +0.000 C 
ATOM     15  C   UNL     1      43.070   4.127  11.255  0.00  0.00    +0.000 C 
ATOM     16  C   UNL     1      44.277   3.824  12.082  0.00  0.00    +0.000 C 
BRANCH  14  17
ATOM     17  C   UNL     1      45.052   3.797   9.580  0.00  0.00    +0.000 A 
ATOM     18  C   UNL     1      45.635   4.471   8.496  0.00  0.00    +0.000 A 
ATOM     19  C   UNL     1      46.310   3.768   7.499  0.00  0.00    +0.000 A 
ATOM     20  C   UNL     1      46.364   2.391   7.601  0.00  0.00    +0.000 A 
ATOM     21 CL   UNL     1      47.242   1.455   6.465  0.00  0.00    +0.000 Cl
ATOM     22  N   UNL     1      45.784   1.681   8.586  0.00  0.00    +0.000 NA
ATOM     23  C   UNL     1      45.144   2.401   9.538  0.00  0.00    +0.000 A 
ENDBRANCH  14  17
ENDBRANCH   1  14
TORSDOF 4
ENDMDL
MODEL 3
REMARK VINA RESULT:    -7.124      3.608      6.234
REMARK INTER + INTRA:          -9.024
REMARK INTER:                  -8.540
REMARK INTRA:                  -0.484
REMARK UNBOUND:                -0.234
REMARK  Name = 
REMARK  4 active torsions:
REMARK  status: ('A' for Active; 'I' for Inactive)
REMARK    1  A    between atoms: C_2  and  C_4
REMARK    2  A    between atoms: C_7  and  N_8
REMARK    3  A    between atoms: N_8  and  C_9
REMARK    4  A    between atoms: C_9  and  C_10
REMARK                            x       y       z     vdW  Elec       q    Type
REMARK                         _______ _______ _______ _____ _____    ______ ____
ROOT
ATOM      1  N   UNL     1      44.803   5.661  11.569  0.00  0.00    +0.000 N 
ATOM      2  H   UNL     1      44.519   6.387  10.914  0.00  0.00    +0.000 HD
ENDROOT
BRANCH   1   6
ATOM      3  C   UNL     1      48.454   6.886  13.307  0.00  0.00    +0.000 A 
ATOM      4  C   UNL     1      47.681   5.920  13.956  0.00  0.00    +0.000 A 
ATOM      5  C   UNL     1      46.456   5.513  13.412  0.00  0.00    +0.000 A 
ATOM      6  C   UNL     1      45.999   6.047  12.206  0.00  0.00    +0.000 A 
ATOM      7  C   UNL     1      46.788   7.009  11.559  0.00  0.00    +0.000 A 
ATOM      8  C   UNL     1      47.995   7.443  12.110  0.00  0.00    +0.000 A 
BRANCH   3  10
ATOM      9  N   UNL     1      50.705   7.739  12.950  0.00  0.00    +0.000 N 
ATOM     10  C   UNL     1      49.748   7.370  13.856  0.00  0.00    +0.000 C 
ATOM     11  O   UNL     1      49.946   7.473  15.056  0.00  0.00    +0.000 OA
ATOM     12  H   UNL     1      51.542   8.161  13.333  0.00  0.00    +0.000 HD
ATOM     13  H   UNL     1      50.493   7.919  11.977  0.00  0.00    +0.000 HD
ENDBRANCH   3  10
ENDBRANCH   1   6
BRANCH   1  14
ATOM     14  C   UNL     1      44.478   4.281  11.151  0.00  0.00    +0.000 C 
ATOM     15  C   UNL     1      43.021   3.906  11.372  0.00  0.00    +0.000 C 
ATOM     16  C   UNL     1      44.087   3.229  12.169  0.00  0.00    +0.000 C 
BRANCH  14  17
ATOM     17  C   UNL     1      45.152   3.846   9.857  0.00  0.00    +0.000 A 
ATOM     18  C   UNL     1      45.271   2.494   9.501  0.00  0.00    +0.000 A 
ATOM     19  C   UNL     1      45.760   2.127   8.248  0.00  0.00    +0.000 A 
ATOM     20  C   UNL     1      46.145   3.133   7.383  0.00  0.00    +0.000 A 
ATOM     21 CL   UNL     1      46.681   2.775   5.795  0.00  0.00    +0.000 Cl
ATOM     22  N   UNL     1      46.104   4.444   7.680  0.00  0.00    +0.000 NA
ATOM     23  C   UNL     1      45.616   4.760   8.904  0.00  0.00    +0.000 A 
ENDBRANCH  14  17
ENDBRANCH   1  14
TORSDOF 4
ENDMDL
MODEL 4
REMARK VINA RESULT:    -6.760      3.794      6.380
REMARK INTER + INTRA:          -8.575
REMARK INTER:                  -8.565
REMARK INTRA:                  -0.011
REMARK UNBOUND:                -0.234
REMARK  Name = 
REMARK  4 active torsions:
REMARK  status: ('A' for Active; 'I' for Inactive)
REMARK    1  A    between atoms: C_2  and  C_4
REMARK    2  A    between atoms: C_7  and  N_8
REMARK    3  A    between atoms: N_8  and  C_9
REMARK    4  A    between atoms: C_9  and  C_10
REMARK                            x       y       z     vdW  Elec       q    Type
REMARK                         _______ _______ _______ _____ _____    ______ ____
ROOT
ATOM      1  N   UNL     1      45.313   4.614  12.414  0.00  0.00    +0.000 N 
ATOM      2  H   UNL     1      45.071   4.380  13.375  0.00  0.00    +0.000 HD
ENDROOT
BRANCH   1   6
ATOM      3  C   UNL     1      46.715   8.596  12.238  0.00  0.00    +0.000 A 
ATOM      4  C   UNL     1      47.623   7.547  12.081  0.00  0.00    +0.000 A 
ATOM      5  C   UNL     1      47.187   6.217  12.158  0.00  0.00    +0.000 A 
ATOM      6  C   UNL     1      45.840   5.920  12.370  0.00  0.00    +0.000 A 
ATOM      7  C   UNL     1      44.936   6.982  12.517  0.00  0.00    +0.000 A 
ATOM      8  C   UNL     1      45.367   8.309  12.472  0.00  0.00    +0.000 A 
BRANCH   3  10
ATOM      9  N   UNL     1      46.136  10.960  12.267  0.00  0.00    +0.000 N 
ATOM     10  C   UNL     1      47.130  10.023  12.192  0.00  0.00    +0.000 C 
ATOM     11  O   UNL     1      48.303  10.355  12.126  0.00  0.00    +0.000 OA
ATOM     12  H   UNL     1      46.436  11.924  12.336  0.00  0.00    +0.000 HD
ATOM     13  H   UNL     1      45.201  10.737  12.584  0.00  0.00    +0.000 HD
ENDBRANCH   3  10
ENDBRANCH   1   6
BRANCH   1  14
ATOM     14  C   UNL     1      44.429   4.026  11.386  0.00  0.00    +0.000 C 
ATOM     15  C   UNL     1      43.027   4.614  11.381  0.00  0.00    +0.000 C 
ATOM     16  C   UNL     1      43.228   3.188  11.777  0.00  0.00    +0.000 C 
BRANCH  14  17
ATOM     17  C   UNL     1      45.112   3.764  10.051  0.00  0.00    +0.000 A 
ATOM     18  C   UNL     1      45.294   2.466   9.553  0.00  0.00    +0.000 A 
ATOM     19  C   UNL     1      45.791   2.258   8.267  0.00  0.00    +0.000 A 
ATOM     20  C   UNL     1      46.118   3.368   7.512  0.00  0.00    +0.000 A 
ATOM     21 CL   UNL     1      46.657   3.208   5.893  0.00  0.00    +0.000 Cl
ATOM     22  N   UNL     1      46.015   4.637   7.947  0.00  0.00    +0.000 NA
ATOM     23  C   UNL     1      45.522   4.796   9.199  0.00  0.00    +0.000 A 
ENDBRANCH  14  17
ENDBRANCH   1  14
TORSDOF 4
ENDMDL
MODEL 5
REMARK VINA RESULT:    -6.104      2.875      4.422
REMARK INTER + INTRA:          -7.765
REMARK INTER:                  -7.678
REMARK INTRA:                  -0.086
REMARK UNBOUND:                -0.234
REMARK  Name = 
REMARK  4 active torsions:
REMARK  status: ('A' for Active; 'I' for Inactive)
REMARK    1  A    between atoms: C_2  and  C_4
REMARK    2  A    between atoms: C_7  and  N_8
REMARK    3  A    between atoms: N_8  and  C_9
REMARK    4  A    between atoms: C_9  and  C_10
REMARK                            x       y       z     vdW  Elec       q    Type
REMARK                         _______ _______ _______ _____ _____    ______ ____
ROOT
ATOM      1  N   UNL     1      46.097   6.223  13.377  0.00  0.00    +0.000 N 
ATOM      2  H   UNL     1      45.393   6.105  14.103  0.00  0.00    +0.000 HD
ENDROOT
BRANCH   1   6
ATOM      3  C   UNL     1      44.999   3.847  10.061  0.00  0.00    +0.000 A 
ATOM      4  C   UNL     1      45.446   5.152   9.845  0.00  0.00    +0.000 A 
ATOM      5  C   UNL     1      45.795   5.969  10.930  0.00  0.00    +0.000 A 
ATOM      6  C   UNL     1      45.723   5.486  12.238  0.00  0.00    +0.000 A 
ATOM      7  C   UNL     1      45.282   4.171  12.441  0.00  0.00    +0.000 A 
ATOM      8  C   UNL     1      44.903   3.361  11.368  0.00  0.00    +0.000 A 
BRANCH   3  10
ATOM      9  N   UNL     1      44.288   3.545   7.754  0.00  0.00    +0.000 N 
ATOM     10  C   UNL     1      44.593   2.950   8.947  0.00  0.00    +0.000 C 
ATOM     11  O   UNL     1      44.565   1.736   9.070  0.00  0.00    +0.000 OA
ATOM     12  H   UNL     1      44.111   2.920   6.976  0.00  0.00    +0.000 HD
ATOM     13  H   UNL     1      44.551   4.497   7.537  0.00  0.00    +0.000 HD
ENDBRANCH   3  10
ENDBRANCH   1   6
BRANCH   1  14
ATOM     14  C   UNL     1      47.483   6.370  13.870  0.00  0.00    +0.000 C 
ATOM     15  C   UNL     1      47.990   7.803  13.842  0.00  0.00    +0.000 C 
ATOM     16  C   UNL     1      48.603   6.784  12.938  0.00  0.00    +0.000 C 
BRANCH  14  17
ATOM     17  C   UNL     1      47.808   5.508  15.083  0.00  0.00    +0.000 A 
ATOM     18  C   UNL     1      48.709   5.930  16.071  0.00  0.00    +0.000 A 
ATOM     19  C   UNL     1      48.882   5.191  17.241  0.00  0.00    +0.000 A 
ATOM     20  C   UNL     1      48.156   4.024  17.383  0.00  0.00    +0.000 A 
ATOM     21 CL   UNL     1      48.244   3.098  18.822  0.00  0.00    +0.000 Cl
ATOM     22  N   UNL     1      47.314   3.539  16.453  0.00  0.00    +0.000 NA
ATOM     23  C   UNL     1      47.169   4.288  15.334  0.00  0.00    +0.000 A 
ENDBRANCH  14  17
ENDBRANCH   1  14
TORSDOF 4
ENDMDL
MODEL 6
REMARK VINA RESULT:    -6.015      3.318      5.065
REMARK INTER + INTRA:          -7.656
REMARK INTER:                  -7.062
REMARK INTRA:                  -0.594
REMARK UNBOUND:                -0.234
REMARK  Name = 
REMARK  4 active torsions:
REMARK  status: ('A' for Active; 'I' for Inactive)
REMARK    1  A    between atoms: C_2  and  C_4
REMARK    2  A    between atoms: C_7  and  N_8
REMARK    3  A    between atoms: N_8  and  C_9
REMARK    4  A    between atoms: C_9  and  C_10
REMARK                            x       y       z     vdW  Elec       q    Type
REMARK                         _______ _______ _______ _____ _____    ______ ____
ROOT
ATOM      1  N   UNL     1      46.154   7.722  13.243  0.00  0.00    +0.000 N 
ATOM      2  H   UNL     1      45.736   7.903  14.155  0.00  0.00    +0.000 HD
ENDROOT
BRANCH   1   6
ATOM      3  C   UNL     1      44.492   4.194  11.616  0.00  0.00    +0.000 A 
ATOM      4  C   UNL     1      44.210   5.422  11.012  0.00  0.00    +0.000 A 
ATOM      5  C   UNL     1      44.731   6.609  11.545  0.00  0.00    +0.000 A 
ATOM      6  C   UNL     1      45.554   6.582  12.672  0.00  0.00    +0.000 A 
ATOM      7  C   UNL     1      45.838   5.344  13.264  0.00  0.00    +0.000 A 
ATOM      8  C   UNL     1      45.299   4.160  12.757  0.00  0.00    +0.000 A 
BRANCH   3  10
ATOM      9  N   UNL     1      44.585   2.347  10.035  0.00  0.00    +0.000 N 
ATOM     10  C   UNL     1      43.944   2.911  11.104  0.00  0.00    +0.000 C 
ATOM     11  O   UNL     1      42.991   2.358  11.629  0.00  0.00    +0.000 OA
ATOM     12  H   UNL     1      44.266   1.426   9.759  0.00  0.00    +0.000 HD
ATOM     13  H   UNL     1      45.513   2.626   9.747  0.00  0.00    +0.000 HD
ENDBRANCH   3  10
ENDBRANCH   1   6
BRANCH   1  14
ATOM     14  C   UNL     1      47.587   8.066  13.134  0.00  0.00    +0.000 C 
ATOM     15  C   UNL     1      47.856   9.280  12.258  0.00  0.00    +0.000 C 
ATOM     16  C   UNL     1      48.323   7.932  11.816  0.00  0.00    +0.000 C 
BRANCH  14  17
ATOM     17  C   UNL     1      48.364   7.923  14.436  0.00  0.00    +0.000 A 
ATOM     18  C   UNL     1      48.177   8.804  15.511  0.00  0.00    +0.000 A 
ATOM     19  C   UNL     1      48.790   8.569  16.740  0.00  0.00    +0.000 A 
ATOM     20  C   UNL     1      49.604   7.458  16.856  0.00  0.00    +0.000 A 
ATOM     21 CL   UNL     1      50.332   7.048  18.353  0.00  0.00    +0.000 Cl
ATOM     22  N   UNL     1      49.864   6.602  15.852  0.00  0.00    +0.000 NA
ATOM     23  C   UNL     1      49.244   6.861  14.676  0.00  0.00    +0.000 A 
ENDBRANCH  14  17
ENDBRANCH   1  14
TORSDOF 4
ENDMDL
