MODEL 1
REMARK VINA RESULT:    -7.918      0.000      0.000
REMARK INTER + INTRA:         -11.932
REMARK INTER:                 -10.695
REMARK INTRA:                  -1.237
REMARK UNBOUND:                -1.237
REMARK  Name = 
REMARK  6 active torsions:
REMARK  status: ('A' for Active; 'I' for Inactive)
REMARK    1  A    between atoms: C_2  and  C_25
REMARK    2  A    between atoms: N_3  and  C_4
REMARK    3  A    between atoms: C_4  and  C_5
REMARK    4  A    between atoms: C_8  and  C_9
REMARK    5  A    between atoms: C_9  and  N_10
REMARK    6  A    between atoms: C_11  and  C_13
REMARK                            x       y       z     vdW  Elec       q    Type
REMARK                         _______ _______ _______ _____ _____    ______ ____
ROOT
ATOM      1  C   UNL     1      45.151   5.598  11.255  0.00  0.00    +0.000 C 
ATOM      2  C   UNL     1      44.340   6.734  11.881  0.00  0.00    +0.000 C 
ATOM      3  C   UNL     1      45.152   7.495  12.912  0.00  0.00    +0.000 C 
ATOM      4  C   UNL     1      46.436   8.093  12.328  0.00  0.00    +0.000 C 
ATOM      5  C   UNL     1      47.269   6.975  11.679  0.00  0.00    +0.000 C 
ATOM      6  C   UNL     1      46.456   6.158  10.659  0.00  0.00    +0.000 C 
ENDROOT
BRANCH   1   7
ATOM      7  C   UNL     1      44.304   4.867  10.196  0.00  0.00    +0.000 C 
BRANCH   7  10
ATOM      8  O   UNL     1      44.676   2.118   9.547  0.00  0.00    +0.000 OA
ATOM      9  C   UNL     1      45.237   2.973   8.874  0.00  0.00    +0.000 C 
ATOM     10  N   UNL     1      45.125   4.324   9.128  0.00  0.00    +0.000 N 
ATOM     11  H   UNL     1      45.452   4.962   8.418  0.00  0.00    +0.000 HD
BRANCH   9  12
ATOM     12  C   UNL     1      46.077   2.644   7.736  0.00  0.00    +0.000 A 
ATOM     13  C   UNL     1      46.349   3.345   6.571  0.00  0.00    +0.000 A 
ATOM     14  C   UNL     1      47.227   2.572   5.777  0.00  0.00    +0.000 A 
ATOM     15  C   UNL     1      47.494   1.418   6.474  0.00  0.00    +0.000 A 
ATOM     16  N   UNL     1      46.809   1.474   7.661  0.00  0.00    +0.000 N 
ATOM     17  H   UNL     1      46.817   0.761   8.382  0.00  0.00    +0.000 HD
ENDBRANCH   9  12
ENDBRANCH   7  10
ENDBRANCH   1   7
BRANCH   4  18
ATOM     18  C   UNL     1      47.236   8.842  13.411  0.00  0.00    +0.000 C 
BRANCH  18  19
ATOM     19  N   UNL     1      47.512   8.014  14.573  0.00  0.00    +0.000 N 
ATOM     20  C   UNL     1      48.768   7.516  14.824  0.00  0.00    +0.000 C 
ATOM     21  O   UNL     1      49.737   7.797  14.125  0.00  0.00    +0.000 OA
ATOM     22  H   UNL     1      46.733   7.542  15.016  0.00  0.00    +0.000 HD
BRANCH  20  23
ATOM     23  C   UNL     1      48.906   6.674  16.022  0.00  0.00    +0.000 A 
ATOM     24  C   UNL     1      49.761   7.063  17.042  0.00  0.00    +0.000 A 
ATOM     25  S   UNL     1      49.781   5.987  18.369  0.00  0.00    +0.000 S 
ATOM     26  C   UNL     1      48.674   4.943  17.611  0.00  0.00    +0.000 A 
ATOM     27  N   UNL     1      48.273   3.788  18.213  0.00  0.00    +0.000 NA
ATOM     28  C   UNL     1      47.441   3.085  17.515  0.00  0.00    +0.000 A 
ATOM     29  N   UNL     1      46.974   3.435  16.275  0.00  0.00    +0.000 N 
ATOM     30  C   UNL     1      47.356   4.585  15.633  0.00  0.00    +0.000 A 
ATOM     31  O   UNL     1      46.921   4.869  14.527  0.00  0.00    +0.000 OA
ATOM     32  C   UNL     1      48.283   5.417  16.373  0.00  0.00    +0.000 A 
ATOM     33  H   UNL     1      46.320   2.844  15.780  0.00  0.00    +0.000 HD
ENDBRANCH  20  23
ENDBRANCH  18  19
ENDBRANCH   4  18
TORSDOF 6
ENDMDL
MODEL 2
REMARK VINA RESULT:    -7.736      1.727      2.130
REMARK INTER + INTRA:         -11.687
REMARK INTER:                 -11.065
REMARK INTRA:                  -0.622
REMARK UNBOUND:                -1.237
REMARK  Name = 
REMARK  6 active torsions:
REMARK  status: ('A' for Active; 'I' for Inactive)
REMARK    1  A    between atoms: C_2  and  C_25
REMARK    2  A    between atoms: N_3  and  C_4
REMARK    3  A    between atoms: C_4  and  C_5
REMARK    4  A    between atoms: C_8  and  C_9
REMARK    5  A    between atoms: C_9  and  N_10
REMARK    6  A    between atoms: C_11  and  C_13
REMARK                            x       y       z     vdW  Elec       q    Type
REMARK                         _______ _______ _______ _____ _____    ______ ____
ROOT
ATOM      1  C   UNL     1      44.913   4.887  12.048  0.00  0.00    +0.000 C 
ATOM      2  C   UNL     1      45.634   5.825  11.079  0.00  0.00    +0.000 C 
ATOM      3  C   UNL     1      46.453   6.868  11.817  0.00  0.00    +0.000 C 
ATOM      4  C   UNL     1      47.501   6.245  12.746  0.00  0.00    +0.000 C 
ATOM      5  C   UNL     1      46.806   5.286  13.726  0.00  0.00    +0.000 C 
ATOM      6  C   UNL     1      45.933   4.244  13.005  0.00  0.00    +0.000 C 
ENDROOT
BRANCH   1   7
ATOM      7  C   UNL     1      44.115   3.829  11.263  0.00  0.00    +0.000 C 
BRANCH   7  10
ATOM      8  O   UNL     1      44.193   4.199   8.439  0.00  0.00    +0.000 OA
ATOM      9  C   UNL     1      44.935   3.373   8.956  0.00  0.00    +0.000 C 
ATOM     10  N   UNL     1      44.951   3.119  10.311  0.00  0.00    +0.000 N 
ATOM     11  H   UNL     1      45.719   2.576  10.676  0.00  0.00    +0.000 HD
BRANCH   9  12
ATOM     12  C   UNL     1      45.875   2.580   8.185  0.00  0.00    +0.000 A 
ATOM     13  C   UNL     1      46.797   2.945   7.217  0.00  0.00    +0.000 A 
ATOM     14  C   UNL     1      47.463   1.782   6.768  0.00  0.00    +0.000 A 
ATOM     15  C   UNL     1      46.952   0.722   7.479  0.00  0.00    +0.000 A 
ATOM     16  N   UNL     1      46.006   1.212   8.343  0.00  0.00    +0.000 N 
ATOM     17  H   UNL     1      45.461   0.661   8.997  0.00  0.00    +0.000 HD
ENDBRANCH   9  12
ENDBRANCH   7  10
ENDBRANCH   1   7
BRANCH   4  18
ATOM     18  C   UNL     1      48.297   7.337  13.486  0.00  0.00    +0.000 C 
BRANCH  18  19
ATOM     19  N   UNL     1      48.110   7.284  14.926  0.00  0.00    +0.000 N 
ATOM     20  C   UNL     1      49.131   6.936  15.776  0.00  0.00    +0.000 C 
ATOM     21  O   UNL     1      50.272   6.718  15.377  0.00  0.00    +0.000 OA
ATOM     22  H   UNL     1      47.164   7.190  15.278  0.00  0.00    +0.000 HD
BRANCH  20  23
ATOM     23  C   UNL     1      48.801   6.902  17.209  0.00  0.00    +0.000 A 
ATOM     24  C   UNL     1      48.377   8.058  17.846  0.00  0.00    +0.000 A 
ATOM     25  S   UNL     1      48.010   7.835  19.499  0.00  0.00    +0.000 S 
ATOM     26  C   UNL     1      48.441   6.193  19.433  0.00  0.00    +0.000 A 
ATOM     27  N   UNL     1      48.380   5.404  20.542  0.00  0.00    +0.000 NA
ATOM     28  C   UNL     1      48.752   4.180  20.347  0.00  0.00    +0.000 A 
ATOM     29  N   UNL     1      49.174   3.676  19.145  0.00  0.00    +0.000 N 
ATOM     30  C   UNL     1      49.254   4.437  18.006  0.00  0.00    +0.000 A 
ATOM     31  O   UNL     1      49.633   3.957  16.948  0.00  0.00    +0.000 OA
ATOM     32  C   UNL     1      48.842   5.816  18.164  0.00  0.00    +0.000 A 
ATOM     33  H   UNL     1      49.448   2.708  19.055  0.00  0.00    +0.000 HD
ENDBRANCH  20  23
ENDBRANCH  18  19
ENDBRANCH   4  18
TORSDOF 6
ENDMDL
MODEL 3
REMARK VINA RESULT:    -7.610      1.957      2.482
REMARK INTER + INTRA:         -11.516
REMARK INTER:                 -10.536
REMARK INTRA:                  -0.980
REMARK UNBOUND:                -1.237
REMARK  Name = 
REMARK  6 active torsions:
REMARK  status: ('A' for Active; 'I' for Inactive)
REMARK    1  A    between atoms: C_2  and  C_25
REMARK    2  A    between atoms: N_3  and  C_4
REMARK    3  A    between atoms: C_4  and  C_5
REMARK    4  A    between atoms: C_8  and  C_9
REMARK    5  A    between atoms: C_9  and  N_10
REMARK    6  A    between atoms: C_11  and  C_13
REMARK                            x       y       z     vdW  Elec       q    Type
REMARK                         _______ _______ _______ _____ _____    ______ ____
ROOT
ATOM      1  C   UNL     1      44.649   5.557  11.655  0.00  0.00    +0.000 C 
ATOM      2  C   UNL     1      45.428   6.703  11.008  0.00  0.00    +0.000 C 
ATOM      3  C   UNL     1      46.220   7.488  12.036  0.00  0.00    +0.000 C 
ATOM      4  C   UNL     1      47.214   6.614  12.809  0.00  0.00    +0.000 C 
ATOM      5  C   UNL     1      46.461   5.443  13.462  0.00  0.00    +0.000 C 
ATOM      6  C   UNL     1      45.614   4.655  12.447  0.00  0.00    +0.000 C 
ENDROOT
BRANCH   1   7
ATOM      7  C   UNL     1      43.880   4.768  10.578  0.00  0.00    +0.000 C 
BRANCH   7  10
ATOM      8  O   UNL     1      44.308   2.049   9.842  0.00  0.00    +0.000 OA
ATOM      9  C   UNL     1      44.899   2.934   9.236  0.00  0.00    +0.000 C 
ATOM     10  N   UNL     1      44.763   4.273   9.537  0.00  0.00    +0.000 N 
ATOM     11  H   UNL     1      45.124   4.941   8.872  0.00  0.00    +0.000 HD
BRANCH   9  12
ATOM     12  C   UNL     1      45.803   2.656   8.134  0.00  0.00    +0.000 A 
ATOM     13  C   UNL     1      46.210   3.443   7.068  0.00  0.00    +0.000 A 
ATOM     14  C   UNL     1      47.097   2.689   6.265  0.00  0.00    +0.000 A 
ATOM     15  C   UNL     1      47.234   1.458   6.860  0.00  0.00    +0.000 A 
ATOM     16  N   UNL     1      46.463   1.449   7.995  0.00  0.00    +0.000 N 
ATOM     17  H   UNL     1      46.369   0.672   8.639  0.00  0.00    +0.000 HD
ENDBRANCH   9  12
ENDBRANCH   7  10
ENDBRANCH   1   7
BRANCH   4  18
ATOM     18  C   UNL     1      47.984   7.447  13.851  0.00  0.00    +0.000 C 
BRANCH  18  19
ATOM     19  N   UNL     1      47.905   6.880  15.187  0.00  0.00    +0.000 N 
ATOM     20  C   UNL     1      49.027   6.471  15.867  0.00  0.00    +0.000 C 
ATOM     21  O   UNL     1      50.159   6.623  15.417  0.00  0.00    +0.000 OA
ATOM     22  H   UNL     1      47.018   6.493  15.487  0.00  0.00    +0.000 HD
BRANCH  20  23
ATOM     23  C   UNL     1      48.805   5.896  17.202  0.00  0.00    +0.000 A 
ATOM     24  C   UNL     1      49.043   4.547  17.420  0.00  0.00    +0.000 A 
ATOM     25  S   UNL     1      48.761   4.052  19.030  0.00  0.00    +0.000 S 
ATOM     26  C   UNL     1      48.274   5.615  19.486  0.00  0.00    +0.000 A 
ATOM     27  N   UNL     1      47.870   5.882  20.760  0.00  0.00    +0.000 NA
ATOM     28  C   UNL     1      47.514   7.110  20.960  0.00  0.00    +0.000 A 
ATOM     29  N   UNL     1      47.530   8.091  20.004  0.00  0.00    +0.000 N 
ATOM     30  C   UNL     1      47.925   7.863  18.710  0.00  0.00    +0.000 A 
ATOM     31  O   UNL     1      47.929   8.760  17.880  0.00  0.00    +0.000 OA
ATOM     32  C   UNL     1      48.343   6.504  18.430  0.00  0.00    +0.000 A 
ATOM     33  H   UNL     1      47.243   9.035  20.223  0.00  0.00    +0.000 HD
ENDBRANCH  20  23
ENDBRANCH  18  19
ENDBRANCH   4  18
TORSDOF 6
ENDMDL
MODEL 4
REMARK VINA RESULT:    -7.193      1.362      1.817
REMARK INTER + INTRA:         -10.953
REMARK INTER:                  -9.851
REMARK INTRA:                  -1.101
REMARK UNBOUND:                -1.237
REMARK  Name = 
REMARK  6 active torsions:
REMARK  status: ('A' for Active; 'I' for Inactive)
REMARK    1  A    between atoms: C_2  and  C_25
REMARK    2  A    between atoms: N_3  and  C_4
REMARK    3  A    between atoms: C_4  and  C_5
REMARK    4  A    between atoms: C_8  and  C_9
REMARK    5  A    between atoms: C_9  and  N_10
REMARK    6  A    between atoms: C_11  and  C_13
REMARK                            x       y       z     vdW  Elec       q    Type
REMARK                         _______ _______ _______ _____ _____    ______ ____
ROOT
ATOM      1  C   UNL     1      46.000   7.049  12.160  0.00  0.00    +0.000 C 
ATOM      2  C   UNL     1      45.770   8.431  12.775  0.00  0.00    +0.000 C 
ATOM      3  C   UNL     1      46.757   8.716  13.891  0.00  0.00    +0.000 C 
ATOM      4  C   UNL     1      48.215   8.640  13.422  0.00  0.00    +0.000 C 
ATOM      5  C   UNL     1      48.474   7.264  12.787  0.00  0.00    +0.000 C 
ATOM      6  C   UNL     1      47.458   6.931  11.680  0.00  0.00    +0.000 C 
ENDROOT
BRANCH   1   7
ATOM      7  C   UNL     1      44.998   6.808  11.016  0.00  0.00    +0.000 C 
BRANCH   7  10
ATOM      8  O   UNL     1      43.569   4.370  10.651  0.00  0.00    +0.000 OA
ATOM      9  C   UNL     1      44.625   4.541  10.054  0.00  0.00    +0.000 C 
ATOM     10  N   UNL     1      45.388   5.682  10.185  0.00  0.00    +0.000 N 
ATOM     11  H   UNL     1      46.130   5.828   9.517  0.00  0.00    +0.000 HD
BRANCH   9  12
ATOM     12  C   UNL     1      45.175   3.552   9.144  0.00  0.00    +0.000 A 
ATOM     13  C   UNL     1      45.753   3.689   7.891  0.00  0.00    +0.000 A 
ATOM     14  C   UNL     1      46.117   2.406   7.422  0.00  0.00    +0.000 A 
ATOM     15  C   UNL     1      45.773   1.504   8.400  0.00  0.00    +0.000 A 
ATOM     16  N   UNL     1      45.219   2.203   9.443  0.00  0.00    +0.000 N 
ATOM     17  H   UNL     1      44.874   1.801  10.306  0.00  0.00    +0.000 HD
ENDBRANCH   9  12
ENDBRANCH   7  10
ENDBRANCH   1   7
BRANCH   4  18
ATOM     18  C   UNL     1      49.182   8.920  14.589  0.00  0.00    +0.000 C 
BRANCH  18  19
ATOM     19  N   UNL     1      49.113   7.904  15.626  0.00  0.00    +0.000 N 
ATOM     20  C   UNL     1      50.176   7.078  15.902  0.00  0.00    +0.000 C 
ATOM     21  O   UNL     1      51.262   7.196  15.340  0.00  0.00    +0.000 OA
ATOM     22  H   UNL     1      48.197   7.589  15.922  0.00  0.00    +0.000 HD
BRANCH  20  23
ATOM     23  C   UNL     1      49.967   6.080  16.961  0.00  0.00    +0.000 A 
ATOM     24  C   UNL     1      50.794   6.072  18.074  0.00  0.00    +0.000 A 
ATOM     25  S   UNL     1      50.395   4.867  19.217  0.00  0.00    +0.000 S 
ATOM     26  C   UNL     1      49.124   4.288  18.249  0.00  0.00    +0.000 A 
ATOM     27  N   UNL     1      48.369   3.225  18.642  0.00  0.00    +0.000 NA
ATOM     28  C   UNL     1      47.447   2.885  17.799  0.00  0.00    +0.000 A 
ATOM     29  N   UNL     1      47.213   3.514  16.605  0.00  0.00    +0.000 N 
ATOM     30  C   UNL     1      47.952   4.585  16.171  0.00  0.00    +0.000 A 
ATOM     31  O   UNL     1      47.717   5.126  15.100  0.00  0.00    +0.000 OA
ATOM     32  C   UNL     1      48.995   5.015  17.079  0.00  0.00    +0.000 A 
ATOM     33  H   UNL     1      46.473   3.204  15.990  0.00  0.00    +0.000 HD
ENDBRANCH  20  23
ENDBRANCH  18  19
ENDBRANCH   4  18
TORSDOF 6
ENDMDL
MODEL 5
REMARK VINA RESULT:    -6.995      2.542      3.346
REMARK INTER + INTRA:         -10.686
REMARK INTER:                 -10.046
REMARK INTRA:                  -0.640
REMARK UNBOUND:                -1.237
REMARK  Name = 
REMARK  6 active torsions:
REMARK  status: ('A' for Active; 'I' for Inactive)
REMARK    1  A    between atoms: C_2  and  C_25
REMARK    2  A    between atoms: N_3  and  C_4
REMARK    3  A    between atoms: C_4  and  C_5
REMARK    4  A    between atoms: C_8  and  C_9
REMARK    5  A    between atoms: C_9  and  N_10
REMARK    6  A    between atoms: C_11  and  C_13
REMARK                            x       y       z     vdW  Elec       q    Type
REMARK                         _______ _______ _______ _____ _____    ______ ____
ROOT
ATOM      1  C   UNL     1      45.435   6.011  11.345  0.00  0.00    +0.000 C 
ATOM      2  C   UNL     1      46.833   6.341  11.871  0.00  0.00    +0.000 C 
ATOM      3  C   UNL     1      46.915   6.172  13.377  0.00  0.00    +0.000 C 
ATOM      4  C   UNL     1      46.558   4.753  13.831  0.00  0.00    +0.000 C 
ATOM      5  C   UNL     1      45.160   4.387  13.306  0.00  0.00    +0.000 C 
ATOM      6  C   UNL     1      45.035   4.591  11.786  0.00  0.00    +0.000 C 
ENDROOT
BRANCH   1   7
ATOM      7  C   UNL     1      45.398   6.168   9.813  0.00  0.00    +0.000 C 
BRANCH   7  10
ATOM      8  O   UNL     1      44.213   4.064   8.301  0.00  0.00    +0.000 OA
ATOM      9  C   UNL     1      45.431   4.107   8.415  0.00  0.00    +0.000 C 
ATOM     10  N   UNL     1      46.086   5.080   9.142  0.00  0.00    +0.000 N 
ATOM     11  H   UNL     1      47.085   5.159   9.023  0.00  0.00    +0.000 HD
BRANCH   9  12
ATOM     12  C   UNL     1      46.308   3.133   7.791  0.00  0.00    +0.000 A 
ATOM     13  C   UNL     1      46.339   1.749   7.873  0.00  0.00    +0.000 A 
ATOM     14  C   UNL     1      47.405   1.275   7.074  0.00  0.00    +0.000 A 
ATOM     15  C   UNL     1      48.000   2.373   6.500  0.00  0.00    +0.000 A 
ATOM     16  N   UNL     1      47.325   3.489   6.924  0.00  0.00    +0.000 N 
ATOM     17  H   UNL     1      47.539   4.444   6.661  0.00  0.00    +0.000 HD
ENDBRANCH   9  12
ENDBRANCH   7  10
ENDBRANCH   1   7
BRANCH   4  18
ATOM     18  C   UNL     1      46.639   4.631  15.365  0.00  0.00    +0.000 C 
BRANCH  18  19
ATOM     19  N   UNL     1      48.008   4.540  15.846  0.00  0.00    +0.000 N 
ATOM     20  C   UNL     1      48.297   4.340  17.174  0.00  0.00    +0.000 C 
ATOM     21  O   UNL     1      47.422   4.158  18.016  0.00  0.00    +0.000 OA
ATOM     22  H   UNL     1      48.741   4.939  15.270  0.00  0.00    +0.000 HD
BRANCH  20  23
ATOM     23  C   UNL     1      49.723   4.288  17.528  0.00  0.00    +0.000 A 
ATOM     24  C   UNL     1      50.362   5.432  17.985  0.00  0.00    +0.000 A 
ATOM     25  S   UNL     1      52.007   5.189  18.377  0.00  0.00    +0.000 S 
ATOM     26  C   UNL     1      51.935   3.554  17.915  0.00  0.00    +0.000 A 
ATOM     27  N   UNL     1      53.037   2.756  17.981  0.00  0.00    +0.000 NA
ATOM     28  C   UNL     1      52.839   1.541  17.585  0.00  0.00    +0.000 A 
ATOM     29  N   UNL     1      51.641   1.054  17.132  0.00  0.00    +0.000 N 
ATOM     30  C   UNL     1      50.510   1.825  17.046  0.00  0.00    +0.000 A 
ATOM     31  O   UNL     1      49.455   1.361  16.639  0.00  0.00    +0.000 OA
ATOM     32  C   UNL     1      50.671   3.196  17.485  0.00  0.00    +0.000 A 
ATOM     33  H   UNL     1      51.548   0.091  16.839  0.00  0.00    +0.000 HD
ENDBRANCH  20  23
ENDBRANCH  18  19
ENDBRANCH   4  18
TORSDOF 6
ENDMDL
MODEL 6
REMARK VINA RESULT:    -6.697      3.560      4.811
REMARK INTER + INTRA:         -10.283
REMARK INTER:                  -9.353
REMARK INTRA:                  -0.930
REMARK UNBOUND:                -1.237
REMARK  Name = 
REMARK  6 active torsions:
REMARK  status: ('A' for Active; 'I' for Inactive)
REMARK    1  A    between atoms: C_2  and  C_25
REMARK    2  A    between atoms: N_3  and  C_4
REMARK    3  A    between atoms: C_4  and  C_5
REMARK    4  A    between atoms: C_8  and  C_9
REMARK    5  A    between atoms: C_9  and  N_10
REMARK    6  A    between atoms: C_11  and  C_13
REMARK                            x       y       z     vdW  Elec       q    Type
REMARK                         _______ _______ _______ _____ _____    ______ ____
ROOT
ATOM      1  C   UNL     1      44.878   4.330  12.360  0.00  0.00    +0.000 C 
ATOM      2  C   UNL     1      45.425   5.562  11.637  0.00  0.00    +0.000 C 
ATOM      3  C   UNL     1      46.239   6.440  12.569  0.00  0.00    +0.000 C 
ATOM      4  C   UNL     1      47.421   5.694  13.198  0.00  0.00    +0.000 C 
ATOM      5  C   UNL     1      46.904   4.441  13.924  0.00  0.00    +0.000 C 
ATOM      6  C   UNL     1      46.037   3.554  13.012  0.00  0.00    +0.000 C 
ENDROOT
BRANCH   1   7
ATOM      7  C   UNL     1      44.081   3.452  11.377  0.00  0.00    +0.000 C 
BRANCH   7  10
ATOM      8  O   UNL     1      44.185   4.233   8.639  0.00  0.00    +0.000 OA
ATOM      9  C   UNL     1      44.927   3.343   9.037  0.00  0.00    +0.000 C 
ATOM     10  N   UNL     1      44.931   2.893  10.341  0.00  0.00    +0.000 N 
ATOM     11  H   UNL     1      45.698   2.305  10.630  0.00  0.00    +0.000 HD
BRANCH   9  12
ATOM     12  C   UNL     1      45.880   2.675   8.169  0.00  0.00    +0.000 A 
ATOM     13  C   UNL     1      46.702   3.168   7.168  0.00  0.00    +0.000 A 
ATOM     14  C   UNL     1      47.435   2.092   6.616  0.00  0.00    +0.000 A 
ATOM     15  C   UNL     1      47.064   0.958   7.298  0.00  0.00    +0.000 A 
ATOM     16  N   UNL     1      46.137   1.319   8.244  0.00  0.00    +0.000 N 
ATOM     17  H   UNL     1      45.686   0.690   8.898  0.00  0.00    +0.000 HD
ENDBRANCH   9  12
ENDBRANCH   7  10
ENDBRANCH   1   7
BRANCH   4  18
ATOM     18  C   UNL     1      48.210   6.616  14.147  0.00  0.00    +0.000 C 
BRANCH  18  19
ATOM     19  N   UNL     1      49.494   7.017  13.597  0.00  0.00    +0.000 N 
ATOM     20  C   UNL     1      49.666   8.226  12.967  0.00  0.00    +0.000 C 
ATOM     21  O   UNL     1      48.770   9.061  12.895  0.00  0.00    +0.000 OA
ATOM     22  H   UNL     1      50.169   6.290  13.392  0.00  0.00    +0.000 HD
BRANCH  20  23
ATOM     23  C   UNL     1      51.011   8.497  12.438  0.00  0.00    +0.000 A 
ATOM     24  C   UNL     1      51.174   8.801  11.095  0.00  0.00    +0.000 A 
ATOM     25  S   UNL     1      52.794   9.115  10.654  0.00  0.00    +0.000 S 
ATOM     26  C   UNL     1      53.342   8.820  12.236  0.00  0.00    +0.000 A 
ATOM     27  N   UNL     1      54.666   8.898  12.548  0.00  0.00    +0.000 NA
ATOM     28  C   UNL     1      54.938   8.634  13.785  0.00  0.00    +0.000 A 
ATOM     29  N   UNL     1      54.008   8.304  14.735  0.00  0.00    +0.000 N 
ATOM     30  C   UNL     1      52.667   8.211  14.461  0.00  0.00    +0.000 A 
ATOM     31  O   UNL     1      51.861   7.915  15.331  0.00  0.00    +0.000 OA
ATOM     32  C   UNL     1      52.302   8.504  13.091  0.00  0.00    +0.000 A 
ATOM     33  H   UNL     1      54.283   8.113  15.688  0.00  0.00    +0.000 HD
ENDBRANCH  20  23
ENDBRANCH  18  19
ENDBRANCH   4  18
TORSDOF 6
ENDMDL
MODEL 7
REMARK VINA RESULT:    -6.438      3.678      8.436
REMARK INTER + INTRA:          -9.933
REMARK INTER:                  -8.896
REMARK INTRA:                  -1.037
REMARK UNBOUND:                -1.237
REMARK  Name = 
REMARK  6 active torsions:
REMARK  status: ('A' for Active; 'I' for Inactive)
REMARK    1  A    between atoms: C_2  and  C_25
REMARK    2  A    between atoms: N_3  and  C_4
REMARK    3  A    between atoms: C_4  and  C_5
REMARK    4  A    between atoms: C_8  and  C_9
REMARK    5  A    between atoms: C_9  and  N_10
REMARK    6  A    between atoms: C_11  and  C_13
REMARK                            x       y       z     vdW  Elec       q    Type
REMARK                         _______ _______ _______ _____ _____    ______ ____
ROOT
ATOM      1  C   UNL     1      48.814   5.375  18.182  0.00  0.00    +0.000 C 
ATOM      2  C   UNL     1      48.537   4.580  16.905  0.00  0.00    +0.000 C 
ATOM      3  C   UNL     1      47.947   5.458  15.818  0.00  0.00    +0.000 C 
ATOM      4  C   UNL     1      48.856   6.639  15.456  0.00  0.00    +0.000 C 
ATOM      5  C   UNL     1      49.163   7.452  16.724  0.00  0.00    +0.000 C 
ATOM      6  C   UNL     1      49.722   6.576  17.859  0.00  0.00    +0.000 C 
ENDROOT
BRANCH   1   7
ATOM      7  C   UNL     1      49.435   4.457  19.250  0.00  0.00    +0.000 C 
BRANCH   7  10
ATOM      8  O   UNL     1      52.234   4.866  19.597  0.00  0.00    +0.000 OA
ATOM      9  C   UNL     1      51.845   3.909  18.939  0.00  0.00    +0.000 C 
ATOM     10  N   UNL     1      50.511   3.646  18.708  0.00  0.00    +0.000 N 
ATOM     11  H   UNL     1      50.272   2.741  18.330  0.00  0.00    +0.000 HD
BRANCH   9  12
ATOM     12  C   UNL     1      52.758   2.954  18.337  0.00  0.00    +0.000 A 
ATOM     13  C   UNL     1      53.998   3.128  17.743  0.00  0.00    +0.000 A 
ATOM     14  C   UNL     1      54.468   1.869  17.305  0.00  0.00    +0.000 A 
ATOM     15  C   UNL     1      53.517   0.939  17.652  0.00  0.00    +0.000 A 
ATOM     16  N   UNL     1      52.495   1.598  18.288  0.00  0.00    +0.000 N 
ATOM     17  H   UNL     1      51.656   1.167  18.658  0.00  0.00    +0.000 HD
ENDBRANCH   9  12
ENDBRANCH   7  10
ENDBRANCH   1   7
BRANCH   4  18
ATOM     18  C   UNL     1      48.212   7.512  14.362  0.00  0.00    +0.000 C 
BRANCH  18  19
ATOM     19  N   UNL     1      46.989   6.931  13.833  0.00  0.00    +0.000 N 
ATOM     20  C   UNL     1      46.761   6.829  12.482  0.00  0.00    +0.000 C 
ATOM     21  O   UNL     1      47.602   7.157  11.648  0.00  0.00    +0.000 OA
ATOM     22  H   UNL     1      46.179   6.896  14.440  0.00  0.00    +0.000 HD
BRANCH  20  23
ATOM     23  C   UNL     1      45.475   6.241  12.081  0.00  0.00    +0.000 A 
ATOM     24  C   UNL     1      44.488   7.048  11.536  0.00  0.00    +0.000 A 
ATOM     25  S   UNL     1      43.070   6.200  11.102  0.00  0.00    +0.000 S 
ATOM     26  C   UNL     1      43.710   4.728  11.662  0.00  0.00    +0.000 A 
ATOM     27  N   UNL     1      42.982   3.578  11.605  0.00  0.00    +0.000 NA
ATOM     28  C   UNL     1      43.589   2.539  12.080  0.00  0.00    +0.000 A 
ATOM     29  N   UNL     1      44.856   2.548  12.602  0.00  0.00    +0.000 N 
ATOM     30  C   UNL     1      45.620   3.684  12.682  0.00  0.00    +0.000 A 
ATOM     31  O   UNL     1      46.747   3.659  13.152  0.00  0.00    +0.000 OA
ATOM     32  C   UNL     1      44.992   4.879  12.157  0.00  0.00    +0.000 A 
ATOM     33  H   UNL     1      45.279   1.700  12.955  0.00  0.00    +0.000 HD
ENDBRANCH  20  23
ENDBRANCH  18  19
ENDBRANCH   4  18
TORSDOF 6
ENDMDL
MODEL 8
REMARK VINA RESULT:    -6.396      2.571      3.562
REMARK INTER + INTRA:          -9.876
REMARK INTER:                  -8.867
REMARK INTRA:                  -1.009
REMARK UNBOUND:                -1.237
REMARK  Name = 
REMARK  6 active torsions:
REMARK  status: ('A' for Active; 'I' for Inactive)
REMARK    1  A    between atoms: C_2  and  C_25
REMARK    2  A    between atoms: N_3  and  C_4
REMARK    3  A    between atoms: C_4  and  C_5
REMARK    4  A    between atoms: C_8  and  C_9
REMARK    5  A    between atoms: C_9  and  N_10
REMARK    6  A    between atoms: C_11  and  C_13
REMARK                            x       y       z     vdW  Elec       q    Type
REMARK                         _______ _______ _______ _____ _____    ______ ____
ROOT
ATOM      1  C   UNL     1      46.379   7.274  12.446  0.00  0.00    +0.000 C 
ATOM      2  C   UNL     1      46.374   8.571  13.257  0.00  0.00    +0.000 C 
ATOM      3  C   UNL     1      47.491   8.590  14.284  0.00  0.00    +0.000 C 
ATOM      4  C   UNL     1      48.877   8.430  13.650  0.00  0.00    +0.000 C 
ATOM      5  C   UNL     1      48.909   7.138  12.817  0.00  0.00    +0.000 C 
ATOM      6  C   UNL     1      47.760   7.073  11.796  0.00  0.00    +0.000 C 
ENDROOT
BRANCH   1   7
ATOM      7  C   UNL     1      45.250   7.303  11.399  0.00  0.00    +0.000 C 
BRANCH   7  10
ATOM      8  O   UNL     1      44.264   4.685  11.939  0.00  0.00    +0.000 OA
ATOM      9  C   UNL     1      44.784   4.917  10.855  0.00  0.00    +0.000 C 
ATOM     10  N   UNL     1      45.302   6.150  10.517  0.00  0.00    +0.000 N 
ATOM     11  H   UNL     1      45.529   6.312   9.547  0.00  0.00    +0.000 HD
BRANCH   9  12
ATOM     12  C   UNL     1      44.904   3.911   9.815  0.00  0.00    +0.000 A 
ATOM     13  C   UNL     1      45.043   4.032   8.441  0.00  0.00    +0.000 A 
ATOM     14  C   UNL     1      45.106   2.736   7.880  0.00  0.00    +0.000 A 
ATOM     15  C   UNL     1      45.022   1.840   8.919  0.00  0.00    +0.000 A 
ATOM     16  N   UNL     1      44.916   2.555  10.085  0.00  0.00    +0.000 N 
ATOM     17  H   UNL     1      44.840   2.160  11.015  0.00  0.00    +0.000 HD
ENDBRANCH   9  12
ENDBRANCH   7  10
ENDBRANCH   1   7
BRANCH   4  18
ATOM     18  C   UNL     1      49.978   8.439  14.729  0.00  0.00    +0.000 C 
BRANCH  18  19
ATOM     19  N   UNL     1      50.210   7.123  15.300  0.00  0.00    +0.000 N 
ATOM     20  C   UNL     1      49.749   6.785  16.549  0.00  0.00    +0.000 C 
ATOM     21  O   UNL     1      49.060   7.546  17.223  0.00  0.00    +0.000 OA
ATOM     22  H   UNL     1      50.972   6.571  14.925  0.00  0.00    +0.000 HD
BRANCH  20  23
ATOM     23  C   UNL     1      50.071   5.428  17.016  0.00  0.00    +0.000 A 
ATOM     24  C   UNL     1      49.051   4.512  17.228  0.00  0.00    +0.000 A 
ATOM     25  S   UNL     1      49.601   2.979  17.740  0.00  0.00    +0.000 S 
ATOM     26  C   UNL     1      51.221   3.494  17.734  0.00  0.00    +0.000 A 
ATOM     27  N   UNL     1      52.228   2.654  18.103  0.00  0.00    +0.000 NA
ATOM     28  C   UNL     1      53.407   3.185  18.064  0.00  0.00    +0.000 A 
ATOM     29  N   UNL     1      53.668   4.476  17.686  0.00  0.00    +0.000 N 
ATOM     30  C   UNL     1      52.683   5.355  17.312  0.00  0.00    +0.000 A 
ATOM     31  O   UNL     1      52.949   6.500  16.979  0.00  0.00    +0.000 OA
ATOM     32  C   UNL     1      51.341   4.811  17.330  0.00  0.00    +0.000 A 
ATOM     33  H   UNL     1      54.613   4.833  17.672  0.00  0.00    +0.000 HD
ENDBRANCH  20  23
ENDBRANCH  18  19
ENDBRANCH   4  18
TORSDOF 6
ENDMDL
MODEL 9
REMARK VINA RESULT:    -6.299      3.129      8.362
REMARK INTER + INTRA:          -9.745
REMARK INTER:                  -8.882
REMARK INTRA:                  -0.864
REMARK UNBOUND:                -1.237
REMARK  Name = 
REMARK  6 active torsions:
REMARK  status: ('A' for Active; 'I' for Inactive)
REMARK    1  A    between atoms: C_2  and  C_25
REMARK    2  A    between atoms: N_3  and  C_4
REMARK    3  A    between atoms: C_4  and  C_5
REMARK    4  A    between atoms: C_8  and  C_9
REMARK    5  A    between atoms: C_9  and  N_10
REMARK    6  A    between atoms: C_11  and  C_13
REMARK                            x       y       z     vdW  Elec       q    Type
REMARK                         _______ _______ _______ _____ _____    ______ ____
ROOT
ATOM      1  C   UNL     1      48.968   7.572  16.061  0.00  0.00    +0.000 C 
ATOM      2  C   UNL     1      49.132   6.483  15.000  0.00  0.00    +0.000 C 
ATOM      3  C   UNL     1      48.064   6.585  13.926  0.00  0.00    +0.000 C 
ATOM      4  C   UNL     1      48.069   7.945  13.218  0.00  0.00    +0.000 C 
ATOM      5  C   UNL     1      47.917   9.063  14.263  0.00  0.00    +0.000 C 
ATOM      6  C   UNL     1      48.962   8.957  15.388  0.00  0.00    +0.000 C 
ENDROOT
BRANCH   1   7
ATOM      7  C   UNL     1      50.082   7.452  17.116  0.00  0.00    +0.000 C 
BRANCH   7  10
ATOM      8  O   UNL     1      49.643   5.430  19.075  0.00  0.00    +0.000 OA
ATOM      9  C   UNL     1      50.381   5.195  18.126  0.00  0.00    +0.000 C 
ATOM     10  N   UNL     1      50.661   6.120  17.143  0.00  0.00    +0.000 N 
ATOM     11  H   UNL     1      51.111   5.788  16.303  0.00  0.00    +0.000 HD
BRANCH   9  12
ATOM     12  C   UNL     1      51.032   3.910  17.944  0.00  0.00    +0.000 A 
ATOM     13  C   UNL     1      52.317   3.488  18.250  0.00  0.00    +0.000 A 
ATOM     14  C   UNL     1      52.451   2.136  17.858  0.00  0.00    +0.000 A 
ATOM     15  C   UNL     1      51.243   1.745  17.333  0.00  0.00    +0.000 A 
ATOM     16  N   UNL     1      50.387   2.814  17.402  0.00  0.00    +0.000 N 
ATOM     17  H   UNL     1      49.422   2.820  17.089  0.00  0.00    +0.000 HD
ENDBRANCH   9  12
ENDBRANCH   7  10
ENDBRANCH   1   7
BRANCH   4  18
ATOM     18  C   UNL     1      46.961   8.011  12.149  0.00  0.00    +0.000 C 
BRANCH  18  19
ATOM     19  N   UNL     1      46.408   6.703  11.838  0.00  0.00    +0.000 N 
ATOM     20  C   UNL     1      45.078   6.532  11.541  0.00  0.00    +0.000 C 
ATOM     21  O   UNL     1      44.298   7.476  11.453  0.00  0.00    +0.000 OA
ATOM     22  H   UNL     1      46.919   5.885  12.149  0.00  0.00    +0.000 HD
BRANCH  20  23
ATOM     23  C   UNL     1      44.645   5.154  11.265  0.00  0.00    +0.000 A 
ATOM     24  C   UNL     1      43.858   4.481  12.188  0.00  0.00    +0.000 A 
ATOM     25  S   UNL     1      43.423   2.903  11.698  0.00  0.00    +0.000 S 
ATOM     26  C   UNL     1      44.302   3.048  10.251  0.00  0.00    +0.000 A 
ATOM     27  N   UNL     1      44.367   2.018   9.361  0.00  0.00    +0.000 NA
ATOM     28  C   UNL     1      45.082   2.265   8.312  0.00  0.00    +0.000 A 
ATOM     29  N   UNL     1      45.734   3.446   8.072  0.00  0.00    +0.000 N 
ATOM     30  C   UNL     1      45.698   4.505   8.944  0.00  0.00    +0.000 A 
ATOM     31  O   UNL     1      46.289   5.547   8.701  0.00  0.00    +0.000 OA
ATOM     32  C   UNL     1      44.904   4.288  10.135  0.00  0.00    +0.000 A 
ATOM     33  H   UNL     1      46.275   3.580   7.230  0.00  0.00    +0.000 HD
ENDBRANCH  20  23
ENDBRANCH  18  19
ENDBRANCH   4  18
TORSDOF 6
ENDMDL
