MODEL 1
REMARK VINA RESULT:    -7.762      0.000      0.000
REMARK INTER + INTRA:         -11.926
REMARK INTER:                 -11.165
REMARK INTRA:                  -0.760
REMARK UNBOUND:                -0.760
REMARK  Name = 
REMARK  12 active torsions:
REMARK  status: ('A' for Active; 'I' for Inactive)
REMARK    1  A    between atoms: C_1  and  C_2
REMARK    2  A    between atoms: C_2  and  N_3
REMARK    3  A    between atoms: N_3  and  C_4
REMARK    4  A    between atoms: C_5  and  C_7
REMARK    5  A    between atoms: C_10  and  O_11
REMARK    6  A    between atoms: O_11  and  C_12
REMARK    7  A    between atoms: C_12  and  C_13
REMARK    8  A    between atoms: C_13  and  C_14
REMARK    9  A    between atoms: C_13  and  C_15
REMARK   10  A    between atoms: C_13  and  C_16
REMARK   11  A    between atoms: C_19  and  S_20
REMARK   12  A    between atoms: S_20  and  N_21
REMARK                            x       y       z     vdW  Elec       q    Type
REMARK                         _______ _______ _______ _____ _____    ______ ____
ROOT
ATOM      1  C   UNL     1      44.443   4.617  11.192  0.00  0.00    +0.000 C 
ATOM      2  C   UNL     1      43.040   4.042  11.519  0.00  0.00    +0.000 C 
ATOM      3  C   UNL     1      44.245   6.148  11.046  0.00  0.00    +0.000 C 
ENDROOT
BRANCH   1   4
ATOM      4  C   UNL     1      45.032   3.988   9.912  0.00  0.00    +0.000 A 
ATOM      5  C   UNL     1      45.649   4.782   8.925  0.00  0.00    +0.000 A 
ATOM      6  C   UNL     1      46.262   4.209   7.806  0.00  0.00    +0.000 A 
ATOM      7  C   UNL     1      46.253   2.826   7.654  0.00  0.00    +0.000 A 
ATOM      8  C   UNL     1      45.579   2.018   8.567  0.00  0.00    +0.000 A 
ATOM      9  C   UNL     1      44.972   2.599   9.683  0.00  0.00    +0.000 A 
BRANCH   7  10
ATOM     10  S   UNL     1      47.128   2.085   6.312  0.00  0.00    +0.000 S 
ATOM     11  O   UNL     1      47.208   0.658   6.520  0.00  0.00    +0.000 OA
ATOM     12  O   UNL     1      46.683   2.667   5.067  0.00  0.00    +0.000 OA
BRANCH  10  13
ATOM     13  N   UNL     1      48.676   2.682   6.573  0.00  0.00    +0.000 NA
ATOM     14  H   UNL     1      49.175   2.096   7.243  0.00  0.00    +0.000 HD
ATOM     15  H   UNL     1      49.160   2.815   5.686  0.00  0.00    +0.000 HD
ENDBRANCH  10  13
ENDBRANCH   7  10
ENDBRANCH   1   4
BRANCH   1  16
ATOM     16  C   UNL     1      45.406   4.333  12.376  0.00  0.00    +0.000 C 
BRANCH  16  17
ATOM     17  O   UNL     1      46.211   5.490  12.631  0.00  0.00    +0.000 OA
BRANCH  17  21
ATOM     18  C   UNL     1      48.448   5.129  16.059  0.00  0.00    +0.000 A 
ATOM     19  C   UNL     1      48.599   6.307  15.336  0.00  0.00    +0.000 A 
ATOM     20  C   UNL     1      47.863   6.481  14.161  0.00  0.00    +0.000 A 
ATOM     21  C   UNL     1      46.991   5.480  13.748  0.00  0.00    +0.000 A 
ATOM     22  C   UNL     1      46.896   4.344  14.546  0.00  0.00    +0.000 A 
ATOM     23  N   UNL     1      47.597   4.140  15.685  0.00  0.00    +0.000 NA
BRANCH  18  26
ATOM     24  N   UNL     1      48.667   5.318  18.569  0.00  0.00    +0.000 N 
ATOM     25  C   UNL     1      47.276   5.709  18.745  0.00  0.00    +0.000 C 
ATOM     26  C   UNL     1      49.227   4.962  17.332  0.00  0.00    +0.000 C 
ATOM     27  O   UNL     1      50.363   4.488  17.248  0.00  0.00    +0.000 OA
BRANCH  24  29
ATOM     28  C   UNL     1      48.776   4.580  20.929  0.00  0.00    +0.000 C 
ATOM     29  C   UNL     1      49.501   5.234  19.762  0.00  0.00    +0.000 C 
ENDBRANCH  24  29
ENDBRANCH  18  26
ENDBRANCH  17  21
ENDBRANCH  16  17
ENDBRANCH   1  16
TORSDOF 8
ENDMDL
MODEL 2
REMARK VINA RESULT:    -7.248      3.603      4.197
REMARK INTER + INTRA:         -11.186
REMARK INTER:                 -10.146
REMARK INTRA:                  -1.040
REMARK UNBOUND:                -0.760
REMARK  Name = 
REMARK  12 active torsions:
REMARK  status: ('A' for Active; 'I' for Inactive)
REMARK    1  A    between atoms: C_1  and  C_2
REMARK    2  A    between atoms: C_2  and  N_3
REMARK    3  A    between atoms: N_3  and  C_4
REMARK    4  A    between atoms: C_5  and  C_7
REMARK    5  A    between atoms: C_10  and  O_11
REMARK    6  A    between atoms: O_11  and  C_12
REMARK    7  A    between atoms: C_12  and  C_13
REMARK    8  A    between atoms: C_13  and  C_14
REMARK    9  A    between atoms: C_13  and  C_15
REMARK   10  A    between atoms: C_13  and  C_16
REMARK   11  A    between atoms: C_19  and  S_20
REMARK   12  A    between atoms: S_20  and  N_21
REMARK                            x       y       z     vdW  Elec       q    Type
REMARK                         _______ _______ _______ _____ _____    ______ ____
ROOT
ATOM      1  C   UNL     1      44.211   4.236  11.278  0.00  0.00    +0.000 C 
ATOM      2  C   UNL     1      43.439   3.115  12.022  0.00  0.00    +0.000 C 
ATOM      3  C   UNL     1      43.168   5.348  10.997  0.00  0.00    +0.000 C 
ENDROOT
BRANCH   1   4
ATOM      4  C   UNL     1      44.860   3.713   9.978  0.00  0.00    +0.000 A 
ATOM      5  C   UNL     1      45.400   4.598   9.025  0.00  0.00    +0.000 A 
ATOM      6  C   UNL     1      46.067   4.129   7.890  0.00  0.00    +0.000 A 
ATOM      7  C   UNL     1      46.191   2.758   7.686  0.00  0.00    +0.000 A 
ATOM      8  C   UNL     1      45.596   1.856   8.566  0.00  0.00    +0.000 A 
ATOM      9  C   UNL     1      44.934   2.335   9.699  0.00  0.00    +0.000 A 
BRANCH   7  10
ATOM     10  S   UNL     1      47.137   2.154   6.323  0.00  0.00    +0.000 S 
ATOM     11  O   UNL     1      47.256   0.719   6.421  0.00  0.00    +0.000 OA
ATOM     12  O   UNL     1      46.715   2.820   5.113  0.00  0.00    +0.000 OA
BRANCH  10  13
ATOM     13  N   UNL     1      48.654   2.775   6.688  0.00  0.00    +0.000 NA
ATOM     14  H   UNL     1      48.651   3.196   7.618  0.00  0.00    +0.000 HD
ATOM     15  H   UNL     1      49.371   2.065   6.548  0.00  0.00    +0.000 HD
ENDBRANCH  10  13
ENDBRANCH   7  10
ENDBRANCH   1   4
BRANCH   1  16
ATOM     16  C   UNL     1      45.326   4.796  12.202  0.00  0.00    +0.000 C 
BRANCH  16  17
ATOM     17  O   UNL     1      45.158   6.210  12.358  0.00  0.00    +0.000 OA
BRANCH  17  21
ATOM     18  C   UNL     1      48.375   8.765  12.390  0.00  0.00    +0.000 A 
ATOM     19  C   UNL     1      48.483   7.634  11.588  0.00  0.00    +0.000 A 
ATOM     20  C   UNL     1      47.418   6.732  11.541  0.00  0.00    +0.000 A 
ATOM     21  C   UNL     1      46.274   6.987  12.288  0.00  0.00    +0.000 A 
ATOM     22  C   UNL     1      46.253   8.152  13.048  0.00  0.00    +0.000 A 
ATOM     23  N   UNL     1      47.267   9.045  13.121  0.00  0.00    +0.000 NA
BRANCH  18  26
ATOM     24  N   UNL     1      50.504   9.664  13.411  0.00  0.00    +0.000 N 
ATOM     25  C   UNL     1      50.600   8.576  14.374  0.00  0.00    +0.000 C 
ATOM     26  C   UNL     1      49.517   9.740  12.416  0.00  0.00    +0.000 C 
ATOM     27  O   UNL     1      49.562  10.591  11.524  0.00  0.00    +0.000 OA
BRANCH  24  29
ATOM     28  C   UNL     1      51.886  11.101  14.877  0.00  0.00    +0.000 C 
ATOM     29  C   UNL     1      51.533  10.695  13.454  0.00  0.00    +0.000 C 
ENDBRANCH  24  29
ENDBRANCH  18  26
ENDBRANCH  17  21
ENDBRANCH  16  17
ENDBRANCH   1  16
TORSDOF 8
ENDMDL
MODEL 3
REMARK VINA RESULT:    -7.046      3.065      4.116
REMARK INTER + INTRA:         -10.895
REMARK INTER:                  -9.967
REMARK INTRA:                  -0.928
REMARK UNBOUND:                -0.760
REMARK  Name = 
REMARK  12 active torsions:
REMARK  status: ('A' for Active; 'I' for Inactive)
REMARK    1  A    between atoms: C_1  and  C_2
REMARK    2  A    between atoms: C_2  and  N_3
REMARK    3  A    between atoms: N_3  and  C_4
REMARK    4  A    between atoms: C_5  and  C_7
REMARK    5  A    between atoms: C_10  and  O_11
REMARK    6  A    between atoms: O_11  and  C_12
REMARK    7  A    between atoms: C_12  and  C_13
REMARK    8  A    between atoms: C_13  and  C_14
REMARK    9  A    between atoms: C_13  and  C_15
REMARK   10  A    between atoms: C_13  and  C_16
REMARK   11  A    between atoms: C_19  and  S_20
REMARK   12  A    between atoms: S_20  and  N_21
REMARK                            x       y       z     vdW  Elec       q    Type
REMARK                         _______ _______ _______ _____ _____    ______ ____
ROOT
ATOM      1  C   UNL     1      44.151   4.400  11.178  0.00  0.00    +0.000 C 
ATOM      2  C   UNL     1      43.046   3.411  11.631  0.00  0.00    +0.000 C 
ATOM      3  C   UNL     1      43.413   5.708  10.795  0.00  0.00    +0.000 C 
ENDROOT
BRANCH   1   4
ATOM      4  C   UNL     1      44.972   3.834  10.000  0.00  0.00    +0.000 A 
ATOM      5  C   UNL     1      45.090   2.446   9.791  0.00  0.00    +0.000 A 
ATOM      6  C   UNL     1      45.758   1.930   8.677  0.00  0.00    +0.000 A 
ATOM      7  C   UNL     1      46.332   2.804   7.757  0.00  0.00    +0.000 A 
ATOM      8  C   UNL     1      46.307   4.179   7.978  0.00  0.00    +0.000 A 
ATOM      9  C   UNL     1      45.635   4.685   9.093  0.00  0.00    +0.000 A 
BRANCH   7  10
ATOM     10  S   UNL     1      47.069   2.168   6.285  0.00  0.00    +0.000 S 
ATOM     11  O   UNL     1      47.134   0.728   6.364  0.00  0.00    +0.000 OA
ATOM     12  O   UNL     1      46.529   2.862   5.139  0.00  0.00    +0.000 OA
BRANCH  10  13
ATOM     13  N   UNL     1      48.647   2.718   6.457  0.00  0.00    +0.000 NA
ATOM     14  H   UNL     1      49.296   1.931   6.485  0.00  0.00    +0.000 HD
ATOM     15  H   UNL     1      48.860   3.415   5.744  0.00  0.00    +0.000 HD
ENDBRANCH  10  13
ENDBRANCH   7  10
ENDBRANCH   1   4
BRANCH   1  16
ATOM     16  C   UNL     1      45.112   4.679  12.366  0.00  0.00    +0.000 C 
BRANCH  16  17
ATOM     17  O   UNL     1      45.093   6.076  12.683  0.00  0.00    +0.000 OA
BRANCH  17  21
ATOM     18  C   UNL     1      48.854   7.647  13.202  0.00  0.00    +0.000 A 
ATOM     19  C   UNL     1      47.847   8.539  12.849  0.00  0.00    +0.000 A 
ATOM     20  C   UNL     1      46.550   8.057  12.659  0.00  0.00    +0.000 A 
ATOM     21  C   UNL     1      46.293   6.703  12.835  0.00  0.00    +0.000 A 
ATOM     22  C   UNL     1      47.361   5.890  13.204  0.00  0.00    +0.000 A 
ATOM     23  N   UNL     1      48.630   6.322  13.391  0.00  0.00    +0.000 NA
BRANCH  18  26
ATOM     24  N   UNL     1      51.199   8.139  12.401  0.00  0.00    +0.000 N 
ATOM     25  C   UNL     1      50.903   7.745  11.032  0.00  0.00    +0.000 C 
ATOM     26  C   UNL     1      50.240   8.179  13.426  0.00  0.00    +0.000 C 
ATOM     27  O   UNL     1      50.494   8.665  14.531  0.00  0.00    +0.000 OA
BRANCH  24  29
ATOM     28  C   UNL     1      53.415   8.692  11.449  0.00  0.00    +0.000 C 
ATOM     29  C   UNL     1      52.558   8.571  12.700  0.00  0.00    +0.000 C 
ENDBRANCH  24  29
ENDBRANCH  18  26
ENDBRANCH  17  21
ENDBRANCH  16  17
ENDBRANCH   1  16
TORSDOF 8
ENDMDL
MODEL 4
REMARK VINA RESULT:    -6.462      2.545      2.927
REMARK INTER + INTRA:         -10.056
REMARK INTER:                  -9.618
REMARK INTRA:                  -0.437
REMARK UNBOUND:                -0.760
REMARK  Name = 
REMARK  12 active torsions:
REMARK  status: ('A' for Active; 'I' for Inactive)
REMARK    1  A    between atoms: C_1  and  C_2
REMARK    2  A    between atoms: C_2  and  N_3
REMARK    3  A    between atoms: N_3  and  C_4
REMARK    4  A    between atoms: C_5  and  C_7
REMARK    5  A    between atoms: C_10  and  O_11
REMARK    6  A    between atoms: O_11  and  C_12
REMARK    7  A    between atoms: C_12  and  C_13
REMARK    8  A    between atoms: C_13  and  C_14
REMARK    9  A    between atoms: C_13  and  C_15
REMARK   10  A    between atoms: C_13  and  C_16
REMARK   11  A    between atoms: C_19  and  S_20
REMARK   12  A    between atoms: S_20  and  N_21
REMARK                            x       y       z     vdW  Elec       q    Type
REMARK                         _______ _______ _______ _____ _____    ______ ____
ROOT
ATOM      1  C   UNL     1      44.472   5.006  11.279  0.00  0.00    +0.000 C 
ATOM      2  C   UNL     1      44.614   4.149  12.564  0.00  0.00    +0.000 C 
ATOM      3  C   UNL     1      42.961   5.330  11.156  0.00  0.00    +0.000 C 
ENDROOT
BRANCH   1   4
ATOM      4  C   UNL     1      45.004   4.261  10.036  0.00  0.00    +0.000 A 
ATOM      5  C   UNL     1      45.587   4.959   8.960  0.00  0.00    +0.000 A 
ATOM      6  C   UNL     1      46.150   4.285   7.873  0.00  0.00    +0.000 A 
ATOM      7  C   UNL     1      46.124   2.893   7.843  0.00  0.00    +0.000 A 
ATOM      8  C   UNL     1      45.481   2.176   8.849  0.00  0.00    +0.000 A 
ATOM      9  C   UNL     1      44.924   2.859   9.932  0.00  0.00    +0.000 A 
BRANCH   7  10
ATOM     10  S   UNL     1      46.940   2.029   6.537  0.00  0.00    +0.000 S 
ATOM     11  O   UNL     1      47.069   0.635   6.892  0.00  0.00    +0.000 OA
ATOM     12  O   UNL     1      46.407   2.463   5.267  0.00  0.00    +0.000 OA
BRANCH  10  13
ATOM     13  N   UNL     1      48.484   2.682   6.638  0.00  0.00    +0.000 NA
ATOM     14  H   UNL     1      48.534   3.358   7.401  0.00  0.00    +0.000 HD
ATOM     15  H   UNL     1      49.181   1.940   6.685  0.00  0.00    +0.000 HD
ENDBRANCH  10  13
ENDBRANCH   7  10
ENDBRANCH   1   4
BRANCH   1  16
ATOM     16  C   UNL     1      45.270   6.327  11.448  0.00  0.00    +0.000 C 
BRANCH  16  17
ATOM     17  O   UNL     1      46.671   6.066  11.298  0.00  0.00    +0.000 OA
BRANCH  17  21
ATOM     18  C   UNL     1      49.326   7.455  14.110  0.00  0.00    +0.000 A 
ATOM     19  C   UNL     1      48.325   6.603  14.563  0.00  0.00    +0.000 A 
ATOM     20  C   UNL     1      47.395   6.103  13.648  0.00  0.00    +0.000 A 
ATOM     21  C   UNL     1      47.496   6.459  12.309  0.00  0.00    +0.000 A 
ATOM     22  C   UNL     1      48.540   7.305  11.948  0.00  0.00    +0.000 A 
ATOM     23  N   UNL     1      49.455   7.812  12.806  0.00  0.00    +0.000 NA
BRANCH  18  26
ATOM     24  N   UNL     1      50.200   9.250  15.659  0.00  0.00    +0.000 N 
ATOM     25  C   UNL     1      49.033  10.098  15.470  0.00  0.00    +0.000 C 
ATOM     26  C   UNL     1      50.334   7.970  15.097  0.00  0.00    +0.000 C 
ATOM     27  O   UNL     1      51.264   7.222  15.405  0.00  0.00    +0.000 OA
BRANCH  24  29
ATOM     28  C   UNL     1      50.871   9.683  18.001  0.00  0.00    +0.000 C 
ATOM     29  C   UNL     1      51.259   9.742  16.531  0.00  0.00    +0.000 C 
ENDBRANCH  24  29
ENDBRANCH  18  26
ENDBRANCH  17  21
ENDBRANCH  16  17
ENDBRANCH   1  16
TORSDOF 8
ENDMDL
MODEL 5
REMARK VINA RESULT:    -6.019      4.112      9.412
REMARK INTER + INTRA:          -9.419
REMARK INTER:                  -9.030
REMARK INTRA:                  -0.389
REMARK UNBOUND:                -0.760
REMARK  Name = 
REMARK  12 active torsions:
REMARK  status: ('A' for Active; 'I' for Inactive)
REMARK    1  A    between atoms: C_1  and  C_2
REMARK    2  A    between atoms: C_2  and  N_3
REMARK    3  A    between atoms: N_3  and  C_4
REMARK    4  A    between atoms: C_5  and  C_7
REMARK    5  A    between atoms: C_10  and  O_11
REMARK    6  A    between atoms: O_11  and  C_12
REMARK    7  A    between atoms: C_12  and  C_13
REMARK    8  A    between atoms: C_13  and  C_14
REMARK    9  A    between atoms: C_13  and  C_15
REMARK   10  A    between atoms: C_13  and  C_16
REMARK   11  A    between atoms: C_19  and  S_20
REMARK   12  A    between atoms: S_20  and  N_21
REMARK                            x       y       z     vdW  Elec       q    Type
REMARK                         _______ _______ _______ _____ _____    ______ ____
ROOT
ATOM      1  C   UNL     1      49.411   4.630  18.057  0.00  0.00    +0.000 C 
ATOM      2  C   UNL     1      49.957   6.081  18.117  0.00  0.00    +0.000 C 
ATOM      3  C   UNL     1      48.604   4.431  19.365  0.00  0.00    +0.000 C 
ENDROOT
BRANCH   1   4
ATOM      4  C   UNL     1      50.551   3.599  17.920  0.00  0.00    +0.000 A 
ATOM      5  C   UNL     1      51.867   3.907  18.316  0.00  0.00    +0.000 A 
ATOM      6  C   UNL     1      52.884   2.950  18.277  0.00  0.00    +0.000 A 
ATOM      7  C   UNL     1      52.598   1.665  17.825  0.00  0.00    +0.000 A 
ATOM      8  C   UNL     1      51.328   1.350  17.346  0.00  0.00    +0.000 A 
ATOM      9  C   UNL     1      50.317   2.314  17.392  0.00  0.00    +0.000 A 
BRANCH   7  10
ATOM     10  S   UNL     1      53.842   0.414  17.887  0.00  0.00    +0.000 S 
ATOM     11  O   UNL     1      54.175   0.002  16.544  0.00  0.00    +0.000 OA
ATOM     12  O   UNL     1      54.844   0.781  18.860  0.00  0.00    +0.000 OA
BRANCH  10  13
ATOM     13  N   UNL     1      52.982  -0.858  18.566  0.00  0.00    +0.000 NA
ATOM     14  H   UNL     1      52.960  -1.653  17.928  0.00  0.00    +0.000 HD
ATOM     15  H   UNL     1      53.340  -1.073  19.496  0.00  0.00    +0.000 HD
ENDBRANCH  10  13
ENDBRANCH   7  10
ENDBRANCH   1   4
BRANCH   1  16
ATOM     16  C   UNL     1      48.460   4.487  16.838  0.00  0.00    +0.000 C 
BRANCH  16  17
ATOM     17  O   UNL     1      48.760   5.501  15.871  0.00  0.00    +0.000 OA
BRANCH  17  21
ATOM     18  C   UNL     1      46.062   5.573  12.772  0.00  0.00    +0.000 A 
ATOM     19  C   UNL     1      47.143   6.443  12.680  0.00  0.00    +0.000 A 
ATOM     20  C   UNL     1      48.089   6.459  13.707  0.00  0.00    +0.000 A 
ATOM     21  C   UNL     1      47.935   5.603  14.791  0.00  0.00    +0.000 A 
ATOM     22  C   UNL     1      46.830   4.758  14.787  0.00  0.00    +0.000 A 
ATOM     23  N   UNL     1      45.892   4.719  13.813  0.00  0.00    +0.000 NA
BRANCH  18  26
ATOM     24  N   UNL     1      44.745   4.345  11.000  0.00  0.00    +0.000 N 
ATOM     25  C   UNL     1      45.212   3.039  11.440  0.00  0.00    +0.000 C 
ATOM     26  C   UNL     1      45.062   5.547  11.652  0.00  0.00    +0.000 C 
ATOM     27  O   UNL     1      44.523   6.613  11.343  0.00  0.00    +0.000 OA
BRANCH  24  29
ATOM     28  C   UNL     1      44.556   4.040   8.551  0.00  0.00    +0.000 C 
ATOM     29  C   UNL     1      43.848   4.390   9.852  0.00  0.00    +0.000 C 
ENDBRANCH  24  29
ENDBRANCH  18  26
ENDBRANCH  17  21
ENDBRANCH  16  17
ENDBRANCH   1  16
TORSDOF 8
ENDMDL
MODEL 6
REMARK VINA RESULT:    -6.008      3.769      8.748
REMARK INTER + INTRA:          -9.402
REMARK INTER:                  -8.057
REMARK INTRA:                  -1.345
REMARK UNBOUND:                -0.760
REMARK  Name = 
REMARK  12 active torsions:
REMARK  status: ('A' for Active; 'I' for Inactive)
REMARK    1  A    between atoms: C_1  and  C_2
REMARK    2  A    between atoms: C_2  and  N_3
REMARK    3  A    between atoms: N_3  and  C_4
REMARK    4  A    between atoms: C_5  and  C_7
REMARK    5  A    between atoms: C_10  and  O_11
REMARK    6  A    between atoms: O_11  and  C_12
REMARK    7  A    between atoms: C_12  and  C_13
REMARK    8  A    between atoms: C_13  and  C_14
REMARK    9  A    between atoms: C_13  and  C_15
REMARK   10  A    between atoms: C_13  and  C_16
REMARK   11  A    between atoms: C_19  and  S_20
REMARK   12  A    between atoms: S_20  and  N_21
REMARK                            x       y       z     vdW  Elec       q    Type
REMARK                         _______ _______ _______ _____ _____    ______ ____
ROOT
ATOM      1  C   UNL     1      49.588   9.151  16.504  0.00  0.00    +0.000 C 
ATOM      2  C   UNL     1      51.011   9.599  16.927  0.00  0.00    +0.000 C 
ATOM      3  C   UNL     1      48.615  10.154  17.177  0.00  0.00    +0.000 C 
ENDROOT
BRANCH   1   4
ATOM      4  C   UNL     1      49.299   7.696  16.929  0.00  0.00    +0.000 A 
ATOM      5  C   UNL     1      48.243   7.387  17.809  0.00  0.00    +0.000 A 
ATOM      6  C   UNL     1      47.922   6.065  18.127  0.00  0.00    +0.000 A 
ATOM      7  C   UNL     1      48.668   5.027  17.576  0.00  0.00    +0.000 A 
ATOM      8  C   UNL     1      49.771   5.300  16.770  0.00  0.00    +0.000 A 
ATOM      9  C   UNL     1      50.082   6.625  16.455  0.00  0.00    +0.000 A 
BRANCH   7  10
ATOM     10  S   UNL     1      48.196   3.352  17.872  0.00  0.00    +0.000 S 
ATOM     11  O   UNL     1      46.802   3.181  17.540  0.00  0.00    +0.000 OA
ATOM     12  O   UNL     1      49.228   2.468  17.383  0.00  0.00    +0.000 OA
BRANCH  10  13
ATOM     13  N   UNL     1      48.289   3.287  19.548  0.00  0.00    +0.000 NA
ATOM     14  H   UNL     1      47.843   2.438  19.896  0.00  0.00    +0.000 HD
ATOM     15  H   UNL     1      49.252   3.415  19.856  0.00  0.00    +0.000 HD
ENDBRANCH  10  13
ENDBRANCH   7  10
ENDBRANCH   1   4
BRANCH   1  16
ATOM     16  C   UNL     1      49.450   9.257  14.961  0.00  0.00    +0.000 C 
BRANCH  16  17
ATOM     17  O   UNL     1      48.065   9.343  14.605  0.00  0.00    +0.000 OA
BRANCH  17  21
ATOM     18  C   UNL     1      46.275   6.619  12.105  0.00  0.00    +0.000 A 
ATOM     19  C   UNL     1      47.497   6.251  12.657  0.00  0.00    +0.000 A 
ATOM     20  C   UNL     1      48.149   7.141  13.513  0.00  0.00    +0.000 A 
ATOM     21  C   UNL     1      47.560   8.367  13.801  0.00  0.00    +0.000 A 
ATOM     22  C   UNL     1      46.329   8.639  13.213  0.00  0.00    +0.000 A 
ATOM     23  N   UNL     1      45.672   7.804  12.376  0.00  0.00    +0.000 NA
BRANCH  18  26
ATOM     24  N   UNL     1      44.603   4.766  11.713  0.00  0.00    +0.000 N 
ATOM     25  C   UNL     1      44.091   4.826  13.074  0.00  0.00    +0.000 C 
ATOM     26  C   UNL     1      45.572   5.645  11.203  0.00  0.00    +0.000 C 
ATOM     27  O   UNL     1      45.864   5.662  10.006  0.00  0.00    +0.000 OA
BRANCH  24  29
ATOM     28  C   UNL     1      43.334   2.646  11.574  0.00  0.00    +0.000 C 
ATOM     29  C   UNL     1      44.025   3.771  10.818  0.00  0.00    +0.000 C 
ENDBRANCH  24  29
ENDBRANCH  18  26
ENDBRANCH  17  21
ENDBRANCH  16  17
ENDBRANCH   1  16
TORSDOF 8
ENDMDL
MODEL 7
REMARK VINA RESULT:    -5.913      3.894      8.955
REMARK INTER + INTRA:          -9.267
REMARK INTER:                  -7.919
REMARK INTRA:                  -1.348
REMARK UNBOUND:                -0.760
REMARK  Name = 
REMARK  12 active torsions:
REMARK  status: ('A' for Active; 'I' for Inactive)
REMARK    1  A    between atoms: C_1  and  C_2
REMARK    2  A    between atoms: C_2  and  N_3
REMARK    3  A    between atoms: N_3  and  C_4
REMARK    4  A    between atoms: C_5  and  C_7
REMARK    5  A    between atoms: C_10  and  O_11
REMARK    6  A    between atoms: O_11  and  C_12
REMARK    7  A    between atoms: C_12  and  C_13
REMARK    8  A    between atoms: C_13  and  C_14
REMARK    9  A    between atoms: C_13  and  C_15
REMARK   10  A    between atoms: C_13  and  C_16
REMARK   11  A    between atoms: C_19  and  S_20
REMARK   12  A    between atoms: S_20  and  N_21
REMARK                            x       y       z     vdW  Elec       q    Type
REMARK                         _______ _______ _______ _____ _____    ______ ____
ROOT
ATOM      1  C   UNL     1      49.933   9.434  15.599  0.00  0.00    +0.000 C 
ATOM      2  C   UNL     1      51.400   9.911  15.756  0.00  0.00    +0.000 C 
ATOM      3  C   UNL     1      49.054  10.614  16.090  0.00  0.00    +0.000 C 
ENDROOT
BRANCH   1   4
ATOM      4  C   UNL     1      49.665   8.143  16.401  0.00  0.00    +0.000 A 
ATOM      5  C   UNL     1      48.598   8.061  17.318  0.00  0.00    +0.000 A 
ATOM      6  C   UNL     1      48.297   6.868  17.982  0.00  0.00    +0.000 A 
ATOM      7  C   UNL     1      49.074   5.738  17.744  0.00  0.00    +0.000 A 
ATOM      8  C   UNL     1      50.186   5.807  16.908  0.00  0.00    +0.000 A 
ATOM      9  C   UNL     1      50.477   7.003  16.248  0.00  0.00    +0.000 A 
BRANCH   7  10
ATOM     10  S   UNL     1      48.629   4.196  18.480  0.00  0.00    +0.000 S 
ATOM     11  O   UNL     1      49.206   3.116  17.717  0.00  0.00    +0.000 OA
ATOM     12  O   UNL     1      48.761   4.293  19.915  0.00  0.00    +0.000 OA
BRANCH  10  13
ATOM     13  N   UNL     1      46.979   4.160  18.169  0.00  0.00    +0.000 NA
ATOM     14  H   UNL     1      46.565   5.076  18.340  0.00  0.00    +0.000 HD
ATOM     15  H   UNL     1      46.801   3.783  17.239  0.00  0.00    +0.000 HD
ENDBRANCH  10  13
ENDBRANCH   7  10
ENDBRANCH   1   4
BRANCH   1  16
ATOM     16  C   UNL     1      49.636   9.160  14.100  0.00  0.00    +0.000 C 
BRANCH  16  17
ATOM     17  O   UNL     1      48.225   9.235  13.866  0.00  0.00    +0.000 OA
BRANCH  17  21
ATOM     18  C   UNL     1      45.998   5.954  12.790  0.00  0.00    +0.000 A 
ATOM     19  C   UNL     1      47.324   5.722  13.137  0.00  0.00    +0.000 A 
ATOM     20  C   UNL     1      48.126   6.803  13.509  0.00  0.00    +0.000 A 
ATOM     21  C   UNL     1      47.580   8.081  13.534  0.00  0.00    +0.000 A 
ATOM     22  C   UNL     1      46.240   8.212  13.186  0.00  0.00    +0.000 A 
ATOM     23  N   UNL     1      45.436   7.189  12.815  0.00  0.00    +0.000 NA
BRANCH  18  26
ATOM     24  N   UNL     1      44.866   4.495  11.064  0.00  0.00    +0.000 N 
ATOM     25  C   UNL     1      45.501   5.181   9.948  0.00  0.00    +0.000 C 
ATOM     26  C   UNL     1      45.139   4.781  12.412  0.00  0.00    +0.000 C 
ATOM     27  O   UNL     1      44.701   4.077  13.324  0.00  0.00    +0.000 OA
BRANCH  24  29
ATOM     28  C   UNL     1      44.423   2.559   9.589  0.00  0.00    +0.000 C 
ATOM     29  C   UNL     1      43.943   3.411  10.754  0.00  0.00    +0.000 C 
ENDBRANCH  24  29
ENDBRANCH  18  26
ENDBRANCH  17  21
ENDBRANCH  16  17
ENDBRANCH   1  16
TORSDOF 8
ENDMDL
MODEL 8
REMARK VINA RESULT:    -5.892      4.097      5.517
REMARK INTER + INTRA:          -9.235
REMARK INTER:                  -7.931
REMARK INTRA:                  -1.305
REMARK UNBOUND:                -0.760
REMARK  Name = 
REMARK  12 active torsions:
REMARK  status: ('A' for Active; 'I' for Inactive)
REMARK    1  A    between atoms: C_1  and  C_2
REMARK    2  A    between atoms: C_2  and  N_3
REMARK    3  A    between atoms: N_3  and  C_4
REMARK    4  A    between atoms: C_5  and  C_7
REMARK    5  A    between atoms: C_10  and  O_11
REMARK    6  A    between atoms: O_11  and  C_12
REMARK    7  A    between atoms: C_12  and  C_13
REMARK    8  A    between atoms: C_13  and  C_14
REMARK    9  A    between atoms: C_13  and  C_15
REMARK   10  A    between atoms: C_13  and  C_16
REMARK   11  A    between atoms: C_19  and  S_20
REMARK   12  A    between atoms: S_20  and  N_21
REMARK                            x       y       z     vdW  Elec       q    Type
REMARK                         _______ _______ _______ _____ _____    ______ ____
ROOT
ATOM      1  C   UNL     1      48.105   9.957  12.038  0.00  0.00    +0.000 C 
ATOM      2  C   UNL     1      47.436  10.995  11.100  0.00  0.00    +0.000 C 
ATOM      3  C   UNL     1      49.451   9.587  11.363  0.00  0.00    +0.000 C 
ENDROOT
BRANCH   1   4
ATOM      4  C   UNL     1      47.208   8.719  12.249  0.00  0.00    +0.000 A 
ATOM      5  C   UNL     1      45.897   8.844  12.750  0.00  0.00    +0.000 A 
ATOM      6  C   UNL     1      45.050   7.738  12.861  0.00  0.00    +0.000 A 
ATOM      7  C   UNL     1      45.512   6.481  12.480  0.00  0.00    +0.000 A 
ATOM      8  C   UNL     1      46.829   6.309  12.060  0.00  0.00    +0.000 A 
ATOM      9  C   UNL     1      47.667   7.421  11.951  0.00  0.00    +0.000 A 
BRANCH   7  10
ATOM     10  S   UNL     1      44.413   5.099  12.499  0.00  0.00    +0.000 S 
ATOM     11  O   UNL     1      43.994   4.802  11.149  0.00  0.00    +0.000 OA
ATOM     12  O   UNL     1      44.926   4.089  13.395  0.00  0.00    +0.000 OA
BRANCH  10  13
ATOM     13  N   UNL     1      43.077   5.765  13.268  0.00  0.00    +0.000 NA
ATOM     14  H   UNL     1      43.374   6.372  14.032  0.00  0.00    +0.000 HD
ATOM     15  H   UNL     1      42.462   6.211  12.589  0.00  0.00    +0.000 HD
ENDBRANCH  10  13
ENDBRANCH   7  10
ENDBRANCH   1   4
BRANCH   1  16
ATOM     16  C   UNL     1      48.384  10.611  13.418  0.00  0.00    +0.000 C 
BRANCH  16  17
ATOM     17  O   UNL     1      49.589  10.072  13.973  0.00  0.00    +0.000 OA
BRANCH  17  21
ATOM     18  C   UNL     1      49.477   6.737  16.369  0.00  0.00    +0.000 A 
ATOM     19  C   UNL     1      48.696   7.816  16.764  0.00  0.00    +0.000 A 
ATOM     20  C   UNL     1      48.699   8.976  15.986  0.00  0.00    +0.000 A 
ATOM     21  C   UNL     1      49.472   9.022  14.832  0.00  0.00    +0.000 A 
ATOM     22  C   UNL     1      50.208   7.886  14.509  0.00  0.00    +0.000 A 
ATOM     23  N   UNL     1      50.234   6.749  15.242  0.00  0.00    +0.000 NA
BRANCH  18  26
ATOM     24  N   UNL     1      48.482   4.495  16.976  0.00  0.00    +0.000 N 
ATOM     25  C   UNL     1      47.555   4.509  15.854  0.00  0.00    +0.000 C 
ATOM     26  C   UNL     1      49.450   5.486  17.201  0.00  0.00    +0.000 C 
ATOM     27  O   UNL     1      50.316   5.360  18.069  0.00  0.00    +0.000 OA
BRANCH  24  29
ATOM     28  C   UNL     1      49.382   2.239  17.451  0.00  0.00    +0.000 C 
ATOM     29  C   UNL     1      48.434   3.350  17.876  0.00  0.00    +0.000 C 
ENDBRANCH  24  29
ENDBRANCH  18  26
ENDBRANCH  17  21
ENDBRANCH  16  17
ENDBRANCH   1  16
TORSDOF 8
ENDMDL
MODEL 9
REMARK VINA RESULT:    -5.635      3.543      4.915
REMARK INTER + INTRA:          -8.867
REMARK INTER:                  -8.012
REMARK INTRA:                  -0.855
REMARK UNBOUND:                -0.760
REMARK  Name = 
REMARK  12 active torsions:
REMARK  status: ('A' for Active; 'I' for Inactive)
REMARK    1  A    between atoms: C_1  and  C_2
REMARK    2  A    between atoms: C_2  and  N_3
REMARK    3  A    between atoms: N_3  and  C_4
REMARK    4  A    between atoms: C_5  and  C_7
REMARK    5  A    between atoms: C_10  and  O_11
REMARK    6  A    between atoms: O_11  and  C_12
REMARK    7  A    between atoms: C_12  and  C_13
REMARK    8  A    between atoms: C_13  and  C_14
REMARK    9  A    between atoms: C_13  and  C_15
REMARK   10  A    between atoms: C_13  and  C_16
REMARK   11  A    between atoms: C_19  and  S_20
REMARK   12  A    between atoms: S_20  and  N_21
REMARK                            x       y       z     vdW  Elec       q    Type
REMARK                         _______ _______ _______ _____ _____    ______ ____
ROOT
ATOM      1  C   UNL     1      47.865   7.784  12.526  0.00  0.00    +0.000 C 
ATOM      2  C   UNL     1      47.237   9.144  12.123  0.00  0.00    +0.000 C 
ATOM      3  C   UNL     1      49.177   7.669  11.709  0.00  0.00    +0.000 C 
ENDROOT
BRANCH   1   4
ATOM      4  C   UNL     1      46.905   6.609  12.244  0.00  0.00    +0.000 A 
ATOM      5  C   UNL     1      46.596   5.663  13.241  0.00  0.00    +0.000 A 
ATOM      6  C   UNL     1      45.660   4.648  13.019  0.00  0.00    +0.000 A 
ATOM      7  C   UNL     1      45.028   4.559  11.782  0.00  0.00    +0.000 A 
ATOM      8  C   UNL     1      45.373   5.426  10.747  0.00  0.00    +0.000 A 
ATOM      9  C   UNL     1      46.307   6.438  10.980  0.00  0.00    +0.000 A 
BRANCH   7  10
ATOM     10  S   UNL     1      43.758   3.360  11.530  0.00  0.00    +0.000 S 
ATOM     11  O   UNL     1      43.867   2.818  10.197  0.00  0.00    +0.000 OA
ATOM     12  O   UNL     1      43.646   2.524  12.703  0.00  0.00    +0.000 OA
BRANCH  10  13
ATOM     13  N   UNL     1      42.392   4.338  11.528  0.00  0.00    +0.000 NA
ATOM     14  H   UNL     1      42.027   4.440  12.474  0.00  0.00    +0.000 HD
ATOM     15  H   UNL     1      42.588   5.219  11.053  0.00  0.00    +0.000 HD
ENDBRANCH  10  13
ENDBRANCH   7  10
ENDBRANCH   1   4
BRANCH   1  16
ATOM     16  C   UNL     1      48.201   7.800  14.042  0.00  0.00    +0.000 C 
BRANCH  16  17
ATOM     17  O   UNL     1      49.508   7.251  14.251  0.00  0.00    +0.000 OA
BRANCH  17  21
ATOM     18  C   UNL     1      50.833   6.327  18.029  0.00  0.00    +0.000 A 
ATOM     19  C   UNL     1      49.526   5.968  17.720  0.00  0.00    +0.000 A 
ATOM     20  C   UNL     1      49.024   6.260  16.450  0.00  0.00    +0.000 A 
ATOM     21  C   UNL     1      49.844   6.893  15.522  0.00  0.00    +0.000 A 
ATOM     22  C   UNL     1      51.142   7.199  15.917  0.00  0.00    +0.000 A 
ATOM     23  N   UNL     1      51.658   6.936  17.140  0.00  0.00    +0.000 NA
BRANCH  18  26
ATOM     24  N   UNL     1      51.980   4.749  19.634  0.00  0.00    +0.000 N 
ATOM     25  C   UNL     1      52.286   3.780  18.592  0.00  0.00    +0.000 C 
ATOM     26  C   UNL     1      51.369   5.989  19.391  0.00  0.00    +0.000 C 
ATOM     27  O   UNL     1      51.267   6.845  20.273  0.00  0.00    +0.000 OA
BRANCH  24  29
ATOM     28  C   UNL     1      53.713   3.680  21.040  0.00  0.00    +0.000 C 
ATOM     29  C   UNL     1      52.389   4.428  20.996  0.00  0.00    +0.000 C 
ENDBRANCH  24  29
ENDBRANCH  18  26
ENDBRANCH  17  21
ENDBRANCH  16  17
ENDBRANCH   1  16
TORSDOF 8
ENDMDL
