MODEL 1
REMARK VINA RESULT:    -7.566      0.000      0.000
REMARK INTER + INTRA:          -9.479
REMARK INTER:                  -9.115
REMARK INTRA:                  -0.365
REMARK UNBOUND:                -0.365
REMARK  Name = 
REMARK  4 active torsions:
REMARK  status: ('A' for Active; 'I' for Inactive)
REMARK    1  A    between atoms: N_1  and  C_2
REMARK    2  A    between atoms: C_2  and  C_3
REMARK    3  A    between atoms: C_7  and  C_8
REMARK    4  A    between atoms: C_8  and  N_9
REMARK                            x       y       z     vdW  Elec       q    Type
REMARK                         _______ _______ _______ _____ _____    ______ ____
ROOT
ATOM      1  C   UNL     1      46.725   2.507   6.818  0.00  0.00    +0.000 A 
ATOM      2  C   UNL     1      46.746   1.252   7.422  0.00  0.00    +0.000 A 
ATOM      3  N   UNL     1      45.984   0.895   8.477  0.00  0.00    +0.000 NA
ATOM      4  C   UNL     1      45.135   1.833   8.960  0.00  0.00    +0.000 A 
ATOM      5  C   UNL     1      45.023   3.117   8.447  0.00  0.00    +0.000 A 
ATOM      6  C   UNL     1      45.829   3.444   7.348  0.00  0.00    +0.000 A 
ENDROOT
BRANCH   1   7
ATOM      7  C   UNL     1      47.570   2.770   5.603  0.00  0.00    +0.000 C 
BRANCH   7   8
ATOM      8  N   UNL     1      48.573   1.738   5.360  0.00  0.00    +0.000 NA
ATOM      9  H   UNL     1      49.091   1.973   4.514  0.00  0.00    +0.000 HD
ATOM     10  H   UNL     1      48.097   0.858   5.161  0.00  0.00    +0.000 HD
ENDBRANCH   7   8
ENDBRANCH   1   7
BRANCH   5  11
ATOM     11  C   UNL     1      44.079   4.108   9.067  0.00  0.00    +0.000 C 
BRANCH  11  12
ATOM     12  N   UNL     1      44.203   4.196  10.515  0.00  0.00    +0.000 N 
ATOM     13  C   UNL     1      43.343   3.607  11.417  0.00  0.00    +0.000 A 
ATOM     14  C   UNL     1      43.674   4.055  12.678  0.00  0.00    +0.000 A 
ATOM     15  C   UNL     1      44.715   5.008  12.534  0.00  0.00    +0.000 A 
ATOM     16  C   UNL     1      45.391   5.879  13.403  0.00  0.00    +0.000 A 
ATOM     17  C   UNL     1      46.377   6.700  12.859  0.00  0.00    +0.000 A 
ATOM     18  C   UNL     1      46.661   6.597  11.503  0.00  0.00    +0.000 A 
ATOM     19  N   UNL     1      46.030   5.789  10.618  0.00  0.00    +0.000 NA
ATOM     20  C   UNL     1      45.063   5.035  11.184  0.00  0.00    +0.000 A 
ENDBRANCH  11  12
ENDBRANCH   5  11
TORSDOF 4
ENDMDL
MODEL 2
REMARK VINA RESULT:    -7.508      1.641      2.304
REMARK INTER + INTRA:          -9.408
REMARK INTER:                  -9.165
REMARK INTRA:                  -0.244
REMARK UNBOUND:                -0.365
REMARK  Name = 
REMARK  4 active torsions:
REMARK  status: ('A' for Active; 'I' for Inactive)
REMARK    1  A    between atoms: N_1  and  C_2
REMARK    2  A    between atoms: C_2  and  C_3
REMARK    3  A    between atoms: C_7  and  C_8
REMARK    4  A    between atoms: C_8  and  N_9
REMARK                            x       y       z     vdW  Elec       q    Type
REMARK                         _______ _______ _______ _____ _____    ______ ____
ROOT
ATOM      1  C   UNL     1      46.465   1.951   7.642  0.00  0.00    +0.000 A 
ATOM      2  C   UNL     1      46.683   3.208   7.084  0.00  0.00    +0.000 A 
ATOM      3  N   UNL     1      46.111   4.351   7.518  0.00  0.00    +0.000 NA
ATOM      4  C   UNL     1      45.279   4.250   8.582  0.00  0.00    +0.000 A 
ATOM      5  C   UNL     1      44.979   3.056   9.223  0.00  0.00    +0.000 A 
ATOM      6  C   UNL     1      45.600   1.895   8.742  0.00  0.00    +0.000 A 
ENDROOT
BRANCH   1   7
ATOM      7  C   UNL     1      47.211   0.757   7.117  0.00  0.00    +0.000 C 
BRANCH   7   8
ATOM      8  N   UNL     1      46.825  -0.496   7.760  0.00  0.00    +0.000 NA
ATOM      9  H   UNL     1      47.185  -0.502   8.714  0.00  0.00    +0.000 HD
ATOM     10  H   UNL     1      47.290  -1.267   7.281  0.00  0.00    +0.000 HD
ENDBRANCH   7   8
ENDBRANCH   1   7
BRANCH   5  11
ATOM     11  C   UNL     1      44.016   3.027  10.375  0.00  0.00    +0.000 C 
BRANCH  11  12
ATOM     12  N   UNL     1      44.193   4.135  11.304  0.00  0.00    +0.000 N 
ATOM     13  C   UNL     1      43.596   5.371  11.179  0.00  0.00    +0.000 A 
ATOM     14  C   UNL     1      44.136   6.205  12.134  0.00  0.00    +0.000 A 
ATOM     15  C   UNL     1      45.151   5.480  12.811  0.00  0.00    +0.000 A 
ATOM     16  C   UNL     1      46.114   5.792  13.783  0.00  0.00    +0.000 A 
ATOM     17  C   UNL     1      46.971   4.773  14.196  0.00  0.00    +0.000 A 
ATOM     18  C   UNL     1      46.813   3.505  13.654  0.00  0.00    +0.000 A 
ATOM     19  N   UNL     1      45.914   3.153  12.703  0.00  0.00    +0.000 NA
ATOM     20  C   UNL     1      45.127   4.178  12.313  0.00  0.00    +0.000 A 
ENDBRANCH  11  12
ENDBRANCH   5  11
TORSDOF 4
ENDMDL
MODEL 3
REMARK VINA RESULT:    -7.278      1.853      6.154
REMARK INTER + INTRA:          -9.132
REMARK INTER:                  -8.736
REMARK INTRA:                  -0.396
REMARK UNBOUND:                -0.365
REMARK  Name = 
REMARK  4 active torsions:
REMARK  status: ('A' for Active; 'I' for Inactive)
REMARK    1  A    between atoms: N_1  and  C_2
REMARK    2  A    between atoms: C_2  and  C_3
REMARK    3  A    between atoms: C_7  and  C_8
REMARK    4  A    between atoms: C_8  and  N_9
REMARK                            x       y       z     vdW  Elec       q    Type
REMARK                         _______ _______ _______ _____ _____    ______ ____
ROOT
ATOM      1  C   UNL     1      45.409   4.401  13.155  0.00  0.00    +0.000 A 
ATOM      2  C   UNL     1      44.197   4.956  13.560  0.00  0.00    +0.000 A 
ATOM      3  N   UNL     1      43.036   4.843  12.881  0.00  0.00    +0.000 NA
ATOM      4  C   UNL     1      43.069   4.126  11.733  0.00  0.00    +0.000 A 
ATOM      5  C   UNL     1      44.212   3.527  11.224  0.00  0.00    +0.000 A 
ATOM      6  C   UNL     1      45.394   3.664  11.964  0.00  0.00    +0.000 A 
ENDROOT
BRANCH   1   7
ATOM      7  C   UNL     1      46.624   4.533  14.029  0.00  0.00    +0.000 C 
BRANCH   7   8
ATOM      8  N   UNL     1      47.282   3.259  14.303  0.00  0.00    +0.000 NA
ATOM      9  H   UNL     1      47.339   2.723  13.438  0.00  0.00    +0.000 HD
ATOM     10  H   UNL     1      46.693   2.714  14.933  0.00  0.00    +0.000 HD
ENDBRANCH   7   8
ENDBRANCH   1   7
BRANCH   5  11
ATOM     11  C   UNL     1      44.168   2.777   9.923  0.00  0.00    +0.000 C 
BRANCH  11  12
ATOM     12  N   UNL     1      45.202   3.191   8.983  0.00  0.00    +0.000 N 
ATOM     13  C   UNL     1      45.394   4.481   8.539  0.00  0.00    +0.000 A 
ATOM     14  C   UNL     1      46.337   4.452   7.535  0.00  0.00    +0.000 A 
ATOM     15  C   UNL     1      46.673   3.093   7.303  0.00  0.00    +0.000 A 
ATOM     16  C   UNL     1      47.465   2.413   6.365  0.00  0.00    +0.000 A 
ATOM     17  C   UNL     1      47.532   1.024   6.461  0.00  0.00    +0.000 A 
ATOM     18  C   UNL     1      46.844   0.389   7.486  0.00  0.00    +0.000 A 
ATOM     19  N   UNL     1      46.053   0.993   8.405  0.00  0.00    +0.000 NA
ATOM     20  C   UNL     1      45.994   2.334   8.255  0.00  0.00    +0.000 A 
ENDBRANCH  11  12
ENDBRANCH   5  11
TORSDOF 4
ENDMDL
MODEL 4
REMARK VINA RESULT:    -7.123      1.886      5.809
REMARK INTER + INTRA:          -8.945
REMARK INTER:                  -8.488
REMARK INTRA:                  -0.457
REMARK UNBOUND:                -0.365
REMARK  Name = 
REMARK  4 active torsions:
REMARK  status: ('A' for Active; 'I' for Inactive)
REMARK    1  A    between atoms: N_1  and  C_2
REMARK    2  A    between atoms: C_2  and  C_3
REMARK    3  A    between atoms: C_7  and  C_8
REMARK    4  A    between atoms: C_8  and  N_9
REMARK                            x       y       z     vdW  Elec       q    Type
REMARK                         _______ _______ _______ _____ _____    ______ ____
ROOT
ATOM      1  C   UNL     1      46.856   5.150  13.707  0.00  0.00    +0.000 A 
ATOM      2  C   UNL     1      47.762   6.146  13.349  0.00  0.00    +0.000 A 
ATOM      3  N   UNL     1      47.669   6.904  12.236  0.00  0.00    +0.000 NA
ATOM      4  C   UNL     1      46.606   6.674  11.429  0.00  0.00    +0.000 A 
ATOM      5  C   UNL     1      45.638   5.711  11.675  0.00  0.00    +0.000 A 
ATOM      6  C   UNL     1      45.770   4.950  12.845  0.00  0.00    +0.000 A 
ENDROOT
BRANCH   1   7
ATOM      7  C   UNL     1      47.022   4.416  15.007  0.00  0.00    +0.000 C 
BRANCH   7   8
ATOM      8  N   UNL     1      47.640   3.101  14.855  0.00  0.00    +0.000 NA
ATOM      9  H   UNL     1      46.906   2.396  14.804  0.00  0.00    +0.000 HD
ATOM     10  H   UNL     1      48.174   2.890  15.699  0.00  0.00    +0.000 HD
ENDBRANCH   7   8
ENDBRANCH   1   7
BRANCH   5  11
ATOM     11  C   UNL     1      44.509   5.497  10.708  0.00  0.00    +0.000 C 
BRANCH  11  12
ATOM     12  N   UNL     1      44.545   4.195  10.056  0.00  0.00    +0.000 N 
ATOM     13  C   UNL     1      43.958   3.050  10.547  0.00  0.00    +0.000 A 
ATOM     14  C   UNL     1      44.354   1.993   9.757  0.00  0.00    +0.000 A 
ATOM     15  C   UNL     1      45.275   2.494   8.802  0.00  0.00    +0.000 A 
ATOM     16  C   UNL     1      46.094   1.921   7.817  0.00  0.00    +0.000 A 
ATOM     17  C   UNL     1      46.899   2.777   7.066  0.00  0.00    +0.000 A 
ATOM     18  C   UNL     1      46.830   4.143   7.305  0.00  0.00    +0.000 A 
ATOM     19  N   UNL     1      46.072   4.746   8.253  0.00  0.00    +0.000 NA
ATOM     20  C   UNL     1      45.334   3.876   8.974  0.00  0.00    +0.000 A 
ENDBRANCH  11  12
ENDBRANCH   5  11
TORSDOF 4
ENDMDL
MODEL 5
REMARK VINA RESULT:    -6.936      1.771      5.871
REMARK INTER + INTRA:          -8.720
REMARK INTER:                  -8.373
REMARK INTRA:                  -0.347
REMARK UNBOUND:                -0.365
REMARK  Name = 
REMARK  4 active torsions:
REMARK  status: ('A' for Active; 'I' for Inactive)
REMARK    1  A    between atoms: N_1  and  C_2
REMARK    2  A    between atoms: C_2  and  C_3
REMARK    3  A    between atoms: C_7  and  C_8
REMARK    4  A    between atoms: C_8  and  N_9
REMARK                            x       y       z     vdW  Elec       q    Type
REMARK                         _______ _______ _______ _____ _____    ______ ____
ROOT
ATOM      1  C   UNL     1      45.125   4.868  12.861  0.00  0.00    +0.000 A 
ATOM      2  C   UNL     1      43.816   5.101  13.274  0.00  0.00    +0.000 A 
ATOM      3  N   UNL     1      42.755   5.197  12.444  0.00  0.00    +0.000 NA
ATOM      4  C   UNL     1      42.999   5.040  11.122  0.00  0.00    +0.000 A 
ATOM      5  C   UNL     1      44.258   4.807  10.587  0.00  0.00    +0.000 A 
ATOM      6  C   UNL     1      45.330   4.709  11.485  0.00  0.00    +0.000 A 
ENDROOT
BRANCH   1   7
ATOM      7  C   UNL     1      46.217   4.711  13.881  0.00  0.00    +0.000 C 
BRANCH   7   8
ATOM      8  N   UNL     1      46.996   3.487  13.714  0.00  0.00    +0.000 NA
ATOM      9  H   UNL     1      46.622   2.771  14.336  0.00  0.00    +0.000 HD
ATOM     10  H   UNL     1      47.950   3.660  14.028  0.00  0.00    +0.000 HD
ENDBRANCH   7   8
ENDBRANCH   1   7
BRANCH   5  11
ATOM     11  C   UNL     1      44.447   4.681   9.102  0.00  0.00    +0.000 C 
BRANCH  11  12
ATOM     12  N   UNL     1      44.896   3.359   8.687  0.00  0.00    +0.000 N 
ATOM     13  C   UNL     1      44.559   2.179   9.315  0.00  0.00    +0.000 A 
ATOM     14  C   UNL     1      45.307   1.167   8.753  0.00  0.00    +0.000 A 
ATOM     15  C   UNL     1      46.186   1.758   7.809  0.00  0.00    +0.000 A 
ATOM     16  C   UNL     1      47.242   1.295   7.010  0.00  0.00    +0.000 A 
ATOM     17  C   UNL     1      47.893   2.220   6.195  0.00  0.00    +0.000 A 
ATOM     18  C   UNL     1      47.451   3.537   6.192  0.00  0.00    +0.000 A 
ATOM     19  N   UNL     1      46.450   4.041   6.954  0.00  0.00    +0.000 NA
ATOM     20  C   UNL     1      45.870   3.115   7.747  0.00  0.00    +0.000 A 
ENDBRANCH  11  12
ENDBRANCH   5  11
TORSDOF 4
ENDMDL
MODEL 6
REMARK VINA RESULT:    -6.723      1.418      2.046
REMARK INTER + INTRA:          -8.463
REMARK INTER:                  -8.069
REMARK INTRA:                  -0.394
REMARK UNBOUND:                -0.365
REMARK  Name = 
REMARK  4 active torsions:
REMARK  status: ('A' for Active; 'I' for Inactive)
REMARK    1  A    between atoms: N_1  and  C_2
REMARK    2  A    between atoms: C_2  and  C_3
REMARK    3  A    between atoms: C_7  and  C_8
REMARK    4  A    between atoms: C_8  and  N_9
REMARK                            x       y       z     vdW  Elec       q    Type
REMARK                         _______ _______ _______ _____ _____    ______ ____
ROOT
ATOM      1  C   UNL     1      46.420   3.030   7.562  0.00  0.00    +0.000 A 
ATOM      2  C   UNL     1      46.255   1.674   7.834  0.00  0.00    +0.000 A 
ATOM      3  N   UNL     1      45.403   1.174   8.754  0.00  0.00    +0.000 NA
ATOM      4  C   UNL     1      44.657   2.069   9.443  0.00  0.00    +0.000 A 
ATOM      5  C   UNL     1      44.732   3.443   9.266  0.00  0.00    +0.000 A 
ATOM      6  C   UNL     1      45.625   3.918   8.296  0.00  0.00    +0.000 A 
ENDROOT
BRANCH   1   7
ATOM      7  C   UNL     1      47.349   3.467   6.465  0.00  0.00    +0.000 C 
BRANCH   7   8
ATOM      8  N   UNL     1      48.514   2.601   6.311  0.00  0.00    +0.000 NA
ATOM      9  H   UNL     1      48.414   2.063   5.451  0.00  0.00    +0.000 HD
ATOM     10  H   UNL     1      48.519   1.920   7.069  0.00  0.00    +0.000 HD
ENDBRANCH   7   8
ENDBRANCH   1   7
BRANCH   5  11
ATOM     11  C   UNL     1      43.892   4.369  10.099  0.00  0.00    +0.000 C 
BRANCH  11  12
ATOM     12  N   UNL     1      44.674   5.203  11.002  0.00  0.00    +0.000 N 
ATOM     13  C   UNL     1      44.940   6.541  10.807  0.00  0.00    +0.000 A 
ATOM     14  C   UNL     1      45.847   6.940  11.764  0.00  0.00    +0.000 A 
ATOM     15  C   UNL     1      46.208   5.793  12.517  0.00  0.00    +0.000 A 
ATOM     16  C   UNL     1      47.141   5.523  13.529  0.00  0.00    +0.000 A 
ATOM     17  C   UNL     1      47.207   4.219  14.019  0.00  0.00    +0.000 A 
ATOM     18  C   UNL     1      46.334   3.268  13.508  0.00  0.00    +0.000 A 
ATOM     19  N   UNL     1      45.428   3.469  12.521  0.00  0.00    +0.000 NA
ATOM     20  C   UNL     1      45.422   4.737  12.058  0.00  0.00    +0.000 A 
ENDBRANCH  11  12
ENDBRANCH   5  11
TORSDOF 4
ENDMDL
MODEL 7
REMARK VINA RESULT:    -6.377      2.098      5.521
REMARK INTER + INTRA:          -8.046
REMARK INTER:                  -7.656
REMARK INTRA:                  -0.389
REMARK UNBOUND:                -0.365
REMARK  Name = 
REMARK  4 active torsions:
REMARK  status: ('A' for Active; 'I' for Inactive)
REMARK    1  A    between atoms: N_1  and  C_2
REMARK    2  A    between atoms: C_2  and  C_3
REMARK    3  A    between atoms: C_7  and  C_8
REMARK    4  A    between atoms: C_8  and  N_9
REMARK                            x       y       z     vdW  Elec       q    Type
REMARK                         _______ _______ _______ _____ _____    ______ ____
ROOT
ATOM      1  C   UNL     1      48.467   7.236  12.125  0.00  0.00    +0.000 A 
ATOM      2  C   UNL     1      48.635   6.482  13.284  0.00  0.00    +0.000 A 
ATOM      3  N   UNL     1      47.674   5.725  13.854  0.00  0.00    +0.000 NA
ATOM      4  C   UNL     1      46.471   5.698  13.232  0.00  0.00    +0.000 A 
ATOM      5  C   UNL     1      46.179   6.406  12.075  0.00  0.00    +0.000 A 
ATOM      6  C   UNL     1      47.208   7.175  11.515  0.00  0.00    +0.000 A 
ENDROOT
BRANCH   1   7
ATOM      7  C   UNL     1      49.630   7.987  11.543  0.00  0.00    +0.000 C 
BRANCH   7   8
ATOM      8  N   UNL     1      50.891   7.731  12.234  0.00  0.00    +0.000 NA
ATOM      9  H   UNL     1      51.365   8.619  12.396  0.00  0.00    +0.000 HD
ATOM     10  H   UNL     1      51.501   7.196  11.616  0.00  0.00    +0.000 HD
ENDBRANCH   7   8
ENDBRANCH   1   7
BRANCH   5  11
ATOM     11  C   UNL     1      44.806   6.349  11.469  0.00  0.00    +0.000 C 
BRANCH  11  12
ATOM     12  N   UNL     1      44.419   5.011  11.041  0.00  0.00    +0.000 N 
ATOM     13  C   UNL     1      43.713   4.110  11.809  0.00  0.00    +0.000 A 
ATOM     14  C   UNL     1      43.692   2.904  11.142  0.00  0.00    +0.000 A 
ATOM     15  C   UNL     1      44.477   3.050   9.970  0.00  0.00    +0.000 A 
ATOM     16  C   UNL     1      44.924   2.183   8.961  0.00  0.00    +0.000 A 
ATOM     17  C   UNL     1      45.718   2.722   7.949  0.00  0.00    +0.000 A 
ATOM     18  C   UNL     1      46.002   4.081   7.973  0.00  0.00    +0.000 A 
ATOM     19  N   UNL     1      45.612   4.958   8.930  0.00  0.00    +0.000 NA
ATOM     20  C   UNL     1      44.871   4.386   9.902  0.00  0.00    +0.000 A 
ENDBRANCH  11  12
ENDBRANCH   5  11
TORSDOF 4
ENDMDL
MODEL 8
REMARK VINA RESULT:    -5.731      2.422      4.299
REMARK INTER + INTRA:          -7.268
REMARK INTER:                  -6.821
REMARK INTRA:                  -0.447
REMARK UNBOUND:                -0.365
REMARK  Name = 
REMARK  4 active torsions:
REMARK  status: ('A' for Active; 'I' for Inactive)
REMARK    1  A    between atoms: N_1  and  C_2
REMARK    2  A    between atoms: C_2  and  C_3
REMARK    3  A    between atoms: C_7  and  C_8
REMARK    4  A    between atoms: C_8  and  N_9
REMARK                            x       y       z     vdW  Elec       q    Type
REMARK                         _______ _______ _______ _____ _____    ______ ____
ROOT
ATOM      1  C   UNL     1      44.737   3.735  10.115  0.00  0.00    +0.000 A 
ATOM      2  C   UNL     1      43.709   2.961  10.647  0.00  0.00    +0.000 A 
ATOM      3  N   UNL     1      43.422   2.865  11.963  0.00  0.00    +0.000 NA
ATOM      4  C   UNL     1      44.192   3.590  12.808  0.00  0.00    +0.000 A 
ATOM      5  C   UNL     1      45.246   4.396  12.402  0.00  0.00    +0.000 A 
ATOM      6  C   UNL     1      45.505   4.471  11.027  0.00  0.00    +0.000 A 
ENDROOT
BRANCH   1   7
ATOM      7  C   UNL     1      44.920   3.820   8.626  0.00  0.00    +0.000 C 
BRANCH   7   8
ATOM      8  N   UNL     1      45.830   4.885   8.213  0.00  0.00    +0.000 NA
ATOM      9  H   UNL     1      46.268   5.285   9.041  0.00  0.00    +0.000 HD
ATOM     10  H   UNL     1      45.285   5.637   7.792  0.00  0.00    +0.000 HD
ENDBRANCH   7   8
ENDBRANCH   1   7
BRANCH   5  11
ATOM     11  C   UNL     1      46.074   5.140  13.411  0.00  0.00    +0.000 C 
BRANCH  11  12
ATOM     12  N   UNL     1      46.303   6.534  13.056  0.00  0.00    +0.000 N 
ATOM     13  C   UNL     1      45.311   7.452  12.784  0.00  0.00    +0.000 A 
ATOM     14  C   UNL     1      45.909   8.602  12.318  0.00  0.00    +0.000 A 
ATOM     15  C   UNL     1      47.303   8.352  12.225  0.00  0.00    +0.000 A 
ATOM     16  C   UNL     1      48.407   9.063  11.731  0.00  0.00    +0.000 A 
ATOM     17  C   UNL     1      49.657   8.451  11.807  0.00  0.00    +0.000 A 
ATOM     18  C   UNL     1      49.753   7.194  12.389  0.00  0.00    +0.000 A 
ATOM     19  N   UNL     1      48.720   6.457  12.865  0.00  0.00    +0.000 NA
ATOM     20  C   UNL     1      47.527   7.077  12.743  0.00  0.00    +0.000 A 
ENDBRANCH  11  12
ENDBRANCH   5  11
TORSDOF 4
ENDMDL
MODEL 9
REMARK VINA RESULT:    -5.506      2.405      4.730
REMARK INTER + INTRA:          -6.997
REMARK INTER:                  -6.707
REMARK INTRA:                  -0.290
REMARK UNBOUND:                -0.365
REMARK  Name = 
REMARK  4 active torsions:
REMARK  status: ('A' for Active; 'I' for Inactive)
REMARK    1  A    between atoms: N_1  and  C_2
REMARK    2  A    between atoms: C_2  and  C_3
REMARK    3  A    between atoms: C_7  and  C_8
REMARK    4  A    between atoms: C_8  and  N_9
REMARK                            x       y       z     vdW  Elec       q    Type
REMARK                         _______ _______ _______ _____ _____    ______ ____
ROOT
ATOM      1  C   UNL     1      44.360   3.646  10.620  0.00  0.00    +0.000 A 
ATOM      2  C   UNL     1      43.739   2.845  11.575  0.00  0.00    +0.000 A 
ATOM      3  N   UNL     1      43.506   3.215  12.852  0.00  0.00    +0.000 NA
ATOM      4  C   UNL     1      43.898   4.461  13.207  0.00  0.00    +0.000 A 
ATOM      5  C   UNL     1      44.528   5.351  12.349  0.00  0.00    +0.000 A 
ATOM      6  C   UNL     1      44.746   4.928  11.031  0.00  0.00    +0.000 A 
ENDROOT
BRANCH   1   7
ATOM      7  C   UNL     1      44.506   3.154   9.208  0.00  0.00    +0.000 C 
BRANCH   7   8
ATOM      8  N   UNL     1      44.831   1.734   9.118  0.00  0.00    +0.000 NA
ATOM      9  H   UNL     1      44.037   1.191   9.458  0.00  0.00    +0.000 HD
ATOM     10  H   UNL     1      45.601   1.533   9.756  0.00  0.00    +0.000 HD
ENDBRANCH   7   8
ENDBRANCH   1   7
BRANCH   5  11
ATOM     11  C   UNL     1      44.964   6.704  12.835  0.00  0.00    +0.000 C 
BRANCH  11  12
ATOM     12  N   UNL     1      46.358   7.003  12.537  0.00  0.00    +0.000 N 
ATOM     13  C   UNL     1      47.412   6.139  12.744  0.00  0.00    +0.000 A 
ATOM     14  C   UNL     1      48.582   6.830  12.514  0.00  0.00    +0.000 A 
ATOM     15  C   UNL     1      48.236   8.178  12.238  0.00  0.00    +0.000 A 
ATOM     16  C   UNL     1      48.956   9.366  12.036  0.00  0.00    +0.000 A 
ATOM     17  C   UNL     1      48.228  10.531  11.798  0.00  0.00    +0.000 A 
ATOM     18  C   UNL     1      46.843  10.456  11.742  0.00  0.00    +0.000 A 
ATOM     19  N   UNL     1      46.098   9.342  11.946  0.00  0.00    +0.000 NA
ATOM     20  C   UNL     1      46.844   8.246  12.203  0.00  0.00    +0.000 A 
ENDBRANCH  11  12
ENDBRANCH   5  11
TORSDOF 4
ENDMDL
