MODEL 1
REMARK VINA RESULT:    -7.712      0.000      0.000
REMARK INTER + INTRA:          -9.745
REMARK INTER:                  -9.516
REMARK INTRA:                  -0.230
REMARK UNBOUND:                -0.230
REMARK  Name = 
REMARK  4 active torsions:
REMARK  status: ('A' for Active; 'I' for Inactive)
REMARK    1  A    between atoms: C_2  and  C_4
REMARK    2  A    between atoms: C_8  and  O_9
REMARK    3  A    between atoms: O_9  and  C_10
REMARK    4  A    between atoms: C_10  and  C_11
REMARK                            x       y       z     vdW  Elec       q    Type
REMARK                         _______ _______ _______ _____ _____    ______ ____
ROOT
ATOM      1  C   UNL     1      46.283   2.103   7.887  0.00  0.00    +0.000 A 
ATOM      2  C   UNL     1      46.402   3.362   7.327  0.00  0.00    +0.000 A 
ATOM      3  N   UNL     1      45.651   4.405   7.736  0.00  0.00    +0.000 NA
ATOM      4  N   UNL     1      44.752   4.218   8.743  0.00  0.00    +0.000 NA
ATOM      5  C   UNL     1      44.627   3.004   9.321  0.00  0.00    +0.000 A 
ATOM      6  C   UNL     1      45.384   1.917   8.933  0.00  0.00    +0.000 A 
ENDROOT
BRANCH   1   8
ATOM      7  N   UNL     1      46.798  -0.262   7.678  0.00  0.00    +0.000 N 
ATOM      8  C   UNL     1      47.128   1.023   7.347  0.00  0.00    +0.000 C 
ATOM      9  O   UNL     1      48.061   1.264   6.592  0.00  0.00    +0.000 OA
ATOM     10  H   UNL     1      47.314  -0.991   7.199  0.00  0.00    +0.000 HD
ATOM     11  H   UNL     1      45.905  -0.514   8.076  0.00  0.00    +0.000 HD
ENDBRANCH   1   8
BRANCH   5  12
ATOM     12  O   UNL     1      43.756   2.828  10.375  0.00  0.00    +0.000 OA
BRANCH  12  13
ATOM     13  C   UNL     1      43.577   4.035  11.128  0.00  0.00    +0.000 C 
BRANCH  13  14
ATOM     14  C   UNL     1      44.812   4.305  11.958  0.00  0.00    +0.000 A 
ATOM     15  C   UNL     1      45.342   5.594  12.021  0.00  0.00    +0.000 A 
ATOM     16  C   UNL     1      46.456   5.828  12.824  0.00  0.00    +0.000 A 
ATOM     17  C   UNL     1      47.012   4.774  13.538  0.00  0.00    +0.000 A 
ATOM     18  C   UNL     1      46.429   3.524  13.420  0.00  0.00    +0.000 A 
ATOM     19  N   UNL     1      45.348   3.267  12.650  0.00  0.00    +0.000 NA
ENDBRANCH  13  14
ENDBRANCH  12  13
ENDBRANCH   5  12
TORSDOF 4
ENDMDL
MODEL 2
REMARK VINA RESULT:    -7.674      2.073      5.647
REMARK INTER + INTRA:          -9.699
REMARK INTER:                  -9.313
REMARK INTRA:                  -0.385
REMARK UNBOUND:                -0.230
REMARK  Name = 
REMARK  4 active torsions:
REMARK  status: ('A' for Active; 'I' for Inactive)
REMARK    1  A    between atoms: C_2  and  C_4
REMARK    2  A    between atoms: C_8  and  O_9
REMARK    3  A    between atoms: O_9  and  C_10
REMARK    4  A    between atoms: C_10  and  C_11
REMARK                            x       y       z     vdW  Elec       q    Type
REMARK                         _______ _______ _______ _____ _____    ______ ____
ROOT
ATOM      1  C   UNL     1      45.284   4.418  12.768  0.00  0.00    +0.000 A 
ATOM      2  C   UNL     1      44.189   5.127  13.227  0.00  0.00    +0.000 A 
ATOM      3  N   UNL     1      43.077   5.293  12.482  0.00  0.00    +0.000 NA
ATOM      4  N   UNL     1      43.023   4.734  11.241  0.00  0.00    +0.000 NA
ATOM      5  C   UNL     1      44.071   4.021  10.774  0.00  0.00    +0.000 A 
ATOM      6  C   UNL     1      45.221   3.825  11.512  0.00  0.00    +0.000 A 
ENDROOT
BRANCH   1   8
ATOM      7  N   UNL     1      46.777   5.414  14.406  0.00  0.00    +0.000 N 
ATOM      8  C   UNL     1      46.463   4.321  13.647  0.00  0.00    +0.000 C 
ATOM      9  O   UNL     1      47.108   3.284  13.732  0.00  0.00    +0.000 OA
ATOM     10  H   UNL     1      47.513   5.286  15.090  0.00  0.00    +0.000 HD
ATOM     11  H   UNL     1      46.136   6.180  14.557  0.00  0.00    +0.000 HD
ENDBRANCH   1   8
BRANCH   5  12
ATOM     12  O   UNL     1      43.995   3.410   9.540  0.00  0.00    +0.000 OA
BRANCH  12  13
ATOM     13  C   UNL     1      44.726   2.178   9.506  0.00  0.00    +0.000 C 
BRANCH  13  14
ATOM     14  C   UNL     1      45.685   2.185   8.338  0.00  0.00    +0.000 A 
ATOM     15  C   UNL     1      45.819   3.330   7.553  0.00  0.00    +0.000 A 
ATOM     16  C   UNL     1      46.738   3.328   6.506  0.00  0.00    +0.000 A 
ATOM     17  C   UNL     1      47.495   2.187   6.269  0.00  0.00    +0.000 A 
ATOM     18  C   UNL     1      47.300   1.091   7.091  0.00  0.00    +0.000 A 
ATOM     19  N   UNL     1      46.417   1.063   8.114  0.00  0.00    +0.000 NA
ENDBRANCH  13  14
ENDBRANCH  12  13
ENDBRANCH   5  12
TORSDOF 4
ENDMDL
MODEL 3
REMARK VINA RESULT:    -7.560      2.043      5.936
REMARK INTER + INTRA:          -9.557
REMARK INTER:                  -9.141
REMARK INTRA:                  -0.416
REMARK UNBOUND:                -0.230
REMARK  Name = 
REMARK  4 active torsions:
REMARK  status: ('A' for Active; 'I' for Inactive)
REMARK    1  A    between atoms: C_2  and  C_4
REMARK    2  A    between atoms: C_8  and  O_9
REMARK    3  A    between atoms: O_9  and  C_10
REMARK    4  A    between atoms: C_10  and  C_11
REMARK                            x       y       z     vdW  Elec       q    Type
REMARK                         _______ _______ _______ _____ _____    ______ ____
ROOT
ATOM      1  C   UNL     1      45.025   5.850  12.101  0.00  0.00    +0.000 A 
ATOM      2  C   UNL     1      45.550   5.419  13.306  0.00  0.00    +0.000 A 
ATOM      3  N   UNL     1      45.734   4.112  13.584  0.00  0.00    +0.000 NA
ATOM      4  N   UNL     1      45.405   3.183  12.644  0.00  0.00    +0.000 NA
ATOM      5  C   UNL     1      44.907   3.576  11.451  0.00  0.00    +0.000 A 
ATOM      6  C   UNL     1      44.713   4.904  11.130  0.00  0.00    +0.000 A 
ENDROOT
BRANCH   1   8
ATOM      7  N   UNL     1      43.782   7.699  11.132  0.00  0.00    +0.000 N 
ATOM      8  C   UNL     1      44.834   7.299  11.907  0.00  0.00    +0.000 C 
ATOM      9  O   UNL     1      45.562   8.114  12.460  0.00  0.00    +0.000 OA
ATOM     10  H   UNL     1      43.596   8.695  11.113  0.00  0.00    +0.000 HD
ATOM     11  H   UNL     1      43.023   7.083  10.877  0.00  0.00    +0.000 HD
ENDBRANCH   1   8
BRANCH   5  12
ATOM     12  O   UNL     1      44.625   2.638  10.479  0.00  0.00    +0.000 OA
BRANCH  12  13
ATOM     13  C   UNL     1      44.522   3.231   9.178  0.00  0.00    +0.000 C 
BRANCH  13  14
ATOM     14  C   UNL     1      45.599   2.670   8.276  0.00  0.00    +0.000 A 
ATOM     15  C   UNL     1      46.215   3.491   7.332  0.00  0.00    +0.000 A 
ATOM     16  C   UNL     1      47.232   2.963   6.539  0.00  0.00    +0.000 A 
ATOM     17  C   UNL     1      47.605   1.635   6.707  0.00  0.00    +0.000 A 
ATOM     18  C   UNL     1      46.942   0.886   7.664  0.00  0.00    +0.000 A 
ATOM     19  N   UNL     1      45.953   1.370   8.448  0.00  0.00    +0.000 NA
ENDBRANCH  13  14
ENDBRANCH  12  13
ENDBRANCH   5  12
TORSDOF 4
ENDMDL
MODEL 4
REMARK VINA RESULT:    -7.223      1.650      1.974
REMARK INTER + INTRA:          -9.142
REMARK INTER:                  -8.777
REMARK INTRA:                  -0.365
REMARK UNBOUND:                -0.230
REMARK  Name = 
REMARK  4 active torsions:
REMARK  status: ('A' for Active; 'I' for Inactive)
REMARK    1  A    between atoms: C_2  and  C_4
REMARK    2  A    between atoms: C_8  and  O_9
REMARK    3  A    between atoms: O_9  and  C_10
REMARK    4  A    between atoms: C_10  and  C_11
REMARK                            x       y       z     vdW  Elec       q    Type
REMARK                         _______ _______ _______ _____ _____    ______ ____
ROOT
ATOM      1  C   UNL     1      46.534   2.562   7.166  0.00  0.00    +0.000 A 
ATOM      2  C   UNL     1      46.391   1.315   7.748  0.00  0.00    +0.000 A 
ATOM      3  N   UNL     1      45.549   1.095   8.779  0.00  0.00    +0.000 NA
ATOM      4  N   UNL     1      44.804   2.130   9.256  0.00  0.00    +0.000 NA
ATOM      5  C   UNL     1      44.909   3.355   8.696  0.00  0.00    +0.000 A 
ATOM      6  C   UNL     1      45.754   3.614   7.635  0.00  0.00    +0.000 A 
ENDROOT
BRANCH   1   8
ATOM      7  N   UNL     1      48.827   2.530   6.363  0.00  0.00    +0.000 N 
ATOM      8  C   UNL     1      47.505   2.705   6.066  0.00  0.00    +0.000 C 
ATOM      9  O   UNL     1      47.136   2.923   4.919  0.00  0.00    +0.000 OA
ATOM     10  H   UNL     1      49.463   2.511   5.575  0.00  0.00    +0.000 HD
ATOM     11  H   UNL     1      49.145   2.102   7.222  0.00  0.00    +0.000 HD
ENDBRANCH   1   8
BRANCH   5  12
ATOM     12  O   UNL     1      44.115   4.389   9.144  0.00  0.00    +0.000 OA
BRANCH  12  13
ATOM     13  C   UNL     1      43.828   4.276  10.544  0.00  0.00    +0.000 C 
BRANCH  13  14
ATOM     14  C   UNL     1      44.947   4.902  11.346  0.00  0.00    +0.000 A 
ATOM     15  C   UNL     1      45.625   6.014  10.847  0.00  0.00    +0.000 A 
ATOM     16  C   UNL     1      46.625   6.598  11.620  0.00  0.00    +0.000 A 
ATOM     17  C   UNL     1      46.923   6.060  12.866  0.00  0.00    +0.000 A 
ATOM     18  C   UNL     1      46.206   4.954  13.288  0.00  0.00    +0.000 A 
ATOM     19  N   UNL     1      45.230   4.365  12.560  0.00  0.00    +0.000 NA
ENDBRANCH  13  14
ENDBRANCH  12  13
ENDBRANCH   5  12
TORSDOF 4
ENDMDL
MODEL 5
REMARK VINA RESULT:    -7.111      2.232      5.819
REMARK INTER + INTRA:          -9.004
REMARK INTER:                  -8.626
REMARK INTRA:                  -0.378
REMARK UNBOUND:                -0.230
REMARK  Name = 
REMARK  4 active torsions:
REMARK  status: ('A' for Active; 'I' for Inactive)
REMARK    1  A    between atoms: C_2  and  C_4
REMARK    2  A    between atoms: C_8  and  O_9
REMARK    3  A    between atoms: O_9  and  C_10
REMARK    4  A    between atoms: C_10  and  C_11
REMARK                            x       y       z     vdW  Elec       q    Type
REMARK                         _______ _______ _______ _____ _____    ______ ____
ROOT
ATOM      1  C   UNL     1      44.488   4.905  12.149  0.00  0.00    +0.000 A 
ATOM      2  C   UNL     1      45.295   5.833  12.783  0.00  0.00    +0.000 A 
ATOM      3  N   UNL     1      46.256   6.517  12.129  0.00  0.00    +0.000 NA
ATOM      4  N   UNL     1      46.433   6.297  10.796  0.00  0.00    +0.000 NA
ATOM      5  C   UNL     1      45.648   5.410  10.147  0.00  0.00    +0.000 A 
ATOM      6  C   UNL     1      44.650   4.699  10.783  0.00  0.00    +0.000 A 
ENDROOT
BRANCH   1   8
ATOM      7  N   UNL     1      43.526   2.822  12.948  0.00  0.00    +0.000 N 
ATOM      8  C   UNL     1      43.488   4.188  12.961  0.00  0.00    +0.000 C 
ATOM      9  O   UNL     1      42.685   4.794  13.658  0.00  0.00    +0.000 OA
ATOM     10  H   UNL     1      42.914   2.353  13.604  0.00  0.00    +0.000 HD
ATOM     11  H   UNL     1      44.317   2.298  12.600  0.00  0.00    +0.000 HD
ENDBRANCH   1   8
BRANCH   5  12
ATOM     12  O   UNL     1      45.791   5.228   8.787  0.00  0.00    +0.000 OA
BRANCH  12  13
ATOM     13  C   UNL     1      44.992   4.140   8.306  0.00  0.00    +0.000 C 
BRANCH  13  14
ATOM     14  C   UNL     1      45.883   3.092   7.678  0.00  0.00    +0.000 A 
ATOM     15  C   UNL     1      46.622   3.398   6.535  0.00  0.00    +0.000 A 
ATOM     16  C   UNL     1      47.466   2.430   5.997  0.00  0.00    +0.000 A 
ATOM     17  C   UNL     1      47.551   1.186   6.609  0.00  0.00    +0.000 A 
ATOM     18  C   UNL     1      46.783   0.960   7.738  0.00  0.00    +0.000 A 
ATOM     19  N   UNL     1      45.955   1.879   8.284  0.00  0.00    +0.000 NA
ENDBRANCH  13  14
ENDBRANCH  12  13
ENDBRANCH   5  12
TORSDOF 4
ENDMDL
MODEL 6
REMARK VINA RESULT:    -6.245      2.651      4.534
REMARK INTER + INTRA:          -7.935
REMARK INTER:                  -7.537
REMARK INTRA:                  -0.398
REMARK UNBOUND:                -0.230
REMARK  Name = 
REMARK  4 active torsions:
REMARK  status: ('A' for Active; 'I' for Inactive)
REMARK    1  A    between atoms: C_2  and  C_4
REMARK    2  A    between atoms: C_8  and  O_9
REMARK    3  A    between atoms: O_9  and  C_10
REMARK    4  A    between atoms: C_10  and  C_11
REMARK                            x       y       z     vdW  Elec       q    Type
REMARK                         _______ _______ _______ _____ _____    ______ ____
ROOT
ATOM      1  C   UNL     1      44.376   3.529  10.781  0.00  0.00    +0.000 A 
ATOM      2  C   UNL     1      43.559   2.786  11.614  0.00  0.00    +0.000 A 
ATOM      3  N   UNL     1      43.521   2.985  12.948  0.00  0.00    +0.000 NA
ATOM      4  N   UNL     1      44.303   3.957  13.494  0.00  0.00    +0.000 NA
ATOM      5  C   UNL     1      45.097   4.711  12.703  0.00  0.00    +0.000 A 
ATOM      6  C   UNL     1      45.155   4.540  11.334  0.00  0.00    +0.000 A 
ENDROOT
BRANCH   1   8
ATOM      7  N   UNL     1      44.209   4.251   8.468  0.00  0.00    +0.000 N 
ATOM      8  C   UNL     1      44.367   3.212   9.342  0.00  0.00    +0.000 C 
ATOM      9  O   UNL     1      44.544   2.069   8.943  0.00  0.00    +0.000 OA
ATOM     10  H   UNL     1      44.329   4.030   7.486  0.00  0.00    +0.000 HD
ATOM     11  H   UNL     1      44.318   5.218   8.739  0.00  0.00    +0.000 HD
ENDBRANCH   1   8
BRANCH   5  12
ATOM     12  O   UNL     1      45.848   5.731  13.249  0.00  0.00    +0.000 OA
BRANCH  12  13
ATOM     13  C   UNL     1      47.204   5.331  13.484  0.00  0.00    +0.000 C 
BRANCH  13  14
ATOM     14  C   UNL     1      48.142   6.447  13.082  0.00  0.00    +0.000 A 
ATOM     15  C   UNL     1      47.921   7.150  11.899  0.00  0.00    +0.000 A 
ATOM     16  C   UNL     1      48.775   8.200  11.568  0.00  0.00    +0.000 A 
ATOM     17  C   UNL     1      49.823   8.519  12.423  0.00  0.00    +0.000 A 
ATOM     18  C   UNL     1      49.976   7.770  13.577  0.00  0.00    +0.000 A 
ATOM     19  N   UNL     1      49.164   6.746  13.924  0.00  0.00    +0.000 NA
ENDBRANCH  13  14
ENDBRANCH  12  13
ENDBRANCH   5  12
TORSDOF 4
ENDMDL
MODEL 7
REMARK VINA RESULT:    -6.088      2.246      2.892
REMARK INTER + INTRA:          -7.742
REMARK INTER:                  -7.347
REMARK INTRA:                  -0.395
REMARK UNBOUND:                -0.230
REMARK  Name = 
REMARK  4 active torsions:
REMARK  status: ('A' for Active; 'I' for Inactive)
REMARK    1  A    between atoms: C_2  and  C_4
REMARK    2  A    between atoms: C_8  and  O_9
REMARK    3  A    between atoms: O_9  and  C_10
REMARK    4  A    between atoms: C_10  and  C_11
REMARK                            x       y       z     vdW  Elec       q    Type
REMARK                         _______ _______ _______ _____ _____    ______ ____
ROOT
ATOM      1  C   UNL     1      45.427   3.461   8.707  0.00  0.00    +0.000 A 
ATOM      2  C   UNL     1      44.588   2.460   9.162  0.00  0.00    +0.000 A 
ATOM      3  N   UNL     1      43.831   2.603  10.269  0.00  0.00    +0.000 NA
ATOM      4  N   UNL     1      43.883   3.777  10.958  0.00  0.00    +0.000 NA
ATOM      5  C   UNL     1      44.680   4.780  10.527  0.00  0.00    +0.000 A 
ATOM      6  C   UNL     1      45.462   4.670   9.395  0.00  0.00    +0.000 A 
ENDROOT
BRANCH   1   8
ATOM      7  N   UNL     1      46.780   1.945   7.375  0.00  0.00    +0.000 N 
ATOM      8  C   UNL     1      46.237   3.192   7.506  0.00  0.00    +0.000 C 
ATOM      9  O   UNL     1      46.377   4.040   6.633  0.00  0.00    +0.000 OA
ATOM     10  H   UNL     1      47.228   1.744   6.489  0.00  0.00    +0.000 HD
ATOM     11  H   UNL     1      46.482   1.156   7.931  0.00  0.00    +0.000 HD
ENDBRANCH   1   8
BRANCH   5  12
ATOM     12  O   UNL     1      44.691   5.987  11.193  0.00  0.00    +0.000 OA
BRANCH  12  13
ATOM     13  C   UNL     1      45.147   5.848  12.545  0.00  0.00    +0.000 C 
BRANCH  13  14
ATOM     14  C   UNL     1      46.567   6.358  12.659  0.00  0.00    +0.000 A 
ATOM     15  C   UNL     1      47.137   7.072  11.607  0.00  0.00    +0.000 A 
ATOM     16  C   UNL     1      48.432   7.566  11.750  0.00  0.00    +0.000 A 
ATOM     17  C   UNL     1      49.122   7.334  12.933  0.00  0.00    +0.000 A 
ATOM     18  C   UNL     1      48.485   6.613  13.929  0.00  0.00    +0.000 A 
ATOM     19  N   UNL     1      47.231   6.121  13.820  0.00  0.00    +0.000 NA
ENDBRANCH  13  14
ENDBRANCH  12  13
ENDBRANCH   5  12
TORSDOF 4
ENDMDL
MODEL 8
REMARK VINA RESULT:    -5.918      4.647      6.507
REMARK INTER + INTRA:          -7.532
REMARK INTER:                  -7.231
REMARK INTRA:                  -0.301
REMARK UNBOUND:                -0.230
REMARK  Name = 
REMARK  4 active torsions:
REMARK  status: ('A' for Active; 'I' for Inactive)
REMARK    1  A    between atoms: C_2  and  C_4
REMARK    2  A    between atoms: C_8  and  O_9
REMARK    3  A    between atoms: O_9  and  C_10
REMARK    4  A    between atoms: C_10  and  C_11
REMARK                            x       y       z     vdW  Elec       q    Type
REMARK                         _______ _______ _______ _____ _____    ______ ____
ROOT
ATOM      1  C   UNL     1      45.217   5.384  12.707  0.00  0.00    +0.000 A 
ATOM      2  C   UNL     1      46.165   6.269  12.227  0.00  0.00    +0.000 A 
ATOM      3  N   UNL     1      47.441   6.263  12.665  0.00  0.00    +0.000 NA
ATOM      4  N   UNL     1      47.814   5.348  13.602  0.00  0.00    +0.000 NA
ATOM      5  C   UNL     1      46.914   4.459  14.076  0.00  0.00    +0.000 A 
ATOM      6  C   UNL     1      45.603   4.432  13.645  0.00  0.00    +0.000 A 
ENDROOT
BRANCH   1   8
ATOM      7  N   UNL     1      42.832   5.636  13.095  0.00  0.00    +0.000 N 
ATOM      8  C   UNL     1      43.842   5.493  12.186  0.00  0.00    +0.000 C 
ATOM      9  O   UNL     1      43.619   5.505  10.982  0.00  0.00    +0.000 OA
ATOM     10  H   UNL     1      41.914   5.832  12.715  0.00  0.00    +0.000 HD
ATOM     11  H   UNL     1      42.994   5.886  14.061  0.00  0.00    +0.000 HD
ENDBRANCH   1   8
BRANCH   5  12
ATOM     12  O   UNL     1      47.305   3.498  14.985  0.00  0.00    +0.000 OA
BRANCH  12  13
ATOM     13  C   UNL     1      47.527   4.053  16.288  0.00  0.00    +0.000 C 
BRANCH  13  14
ATOM     14  C   UNL     1      48.888   3.632  16.795  0.00  0.00    +0.000 A 
ATOM     15  C   UNL     1      49.248   2.285  16.791  0.00  0.00    +0.000 A 
ATOM     16  C   UNL     1      50.522   1.925  17.226  0.00  0.00    +0.000 A 
ATOM     17  C   UNL     1      51.399   2.913  17.653  0.00  0.00    +0.000 A 
ATOM     18  C   UNL     1      50.964   4.227  17.629  0.00  0.00    +0.000 A 
ATOM     19  N   UNL     1      49.736   4.608  17.213  0.00  0.00    +0.000 NA
ENDBRANCH  13  14
ENDBRANCH  12  13
ENDBRANCH   5  12
TORSDOF 4
ENDMDL
MODEL 9
REMARK VINA RESULT:    -5.886      4.656      7.967
REMARK INTER + INTRA:          -7.492
REMARK INTER:                  -7.211
REMARK INTRA:                  -0.281
REMARK UNBOUND:                -0.230
REMARK  Name = 
REMARK  4 active torsions:
REMARK  status: ('A' for Active; 'I' for Inactive)
REMARK    1  A    between atoms: C_2  and  C_4
REMARK    2  A    between atoms: C_8  and  O_9
REMARK    3  A    between atoms: O_9  and  C_10
REMARK    4  A    between atoms: C_10  and  C_11
REMARK                            x       y       z     vdW  Elec       q    Type
REMARK                         _______ _______ _______ _____ _____    ______ ____
ROOT
ATOM      1  C   UNL     1      48.553   4.698  17.791  0.00  0.00    +0.000 A 
ATOM      2  C   UNL     1      49.364   5.672  17.237  0.00  0.00    +0.000 A 
ATOM      3  N   UNL     1      49.266   6.039  15.943  0.00  0.00    +0.000 NA
ATOM      4  N   UNL     1      48.329   5.441  15.155  0.00  0.00    +0.000 NA
ATOM      5  C   UNL     1      47.511   4.499  15.673  0.00  0.00    +0.000 A 
ATOM      6  C   UNL     1      47.578   4.105  16.995  0.00  0.00    +0.000 A 
ENDROOT
BRANCH   1   8
ATOM      7  N   UNL     1      48.294   3.134  19.632  0.00  0.00    +0.000 N 
ATOM      8  C   UNL     1      48.761   4.347  19.207  0.00  0.00    +0.000 C 
ATOM      9  O   UNL     1      49.372   5.092  19.962  0.00  0.00    +0.000 OA
ATOM     10  H   UNL     1      48.555   2.862  20.573  0.00  0.00    +0.000 HD
ATOM     11  H   UNL     1      48.022   2.397  18.997  0.00  0.00    +0.000 HD
ENDBRANCH   1   8
BRANCH   5  12
ATOM     12  O   UNL     1      46.527   3.933  14.890  0.00  0.00    +0.000 OA
BRANCH  12  13
ATOM     13  C   UNL     1      46.781   4.123  13.492  0.00  0.00    +0.000 C 
BRANCH  13  14
ATOM     14  C   UNL     1      45.470   4.183  12.739  0.00  0.00    +0.000 A 
ATOM     15  C   UNL     1      45.153   5.310  11.982  0.00  0.00    +0.000 A 
ATOM     16  C   UNL     1      43.958   5.327  11.265  0.00  0.00    +0.000 A 
ATOM     17  C   UNL     1      43.115   4.225  11.323  0.00  0.00    +0.000 A 
ATOM     18  C   UNL     1      43.502   3.146  12.100  0.00  0.00    +0.000 A 
ATOM     19  N   UNL     1      44.653   3.100  12.806  0.00  0.00    +0.000 NA
ENDBRANCH  13  14
ENDBRANCH  12  13
ENDBRANCH   5  12
TORSDOF 4
ENDMDL
