MODEL 1
REMARK VINA RESULT:    -8.177      0.000      0.000
REMARK INTER + INTRA:         -11.363
REMARK INTER:                 -10.567
REMARK INTRA:                  -0.796
REMARK UNBOUND:                -0.796
REMARK  Name = 
REMARK  5 active torsions:
REMARK  status: ('A' for Active; 'I' for Inactive)
REMARK    1  A    between atoms: C_2  and  C_5
REMARK    2  A    between atoms: C_9  and  C_10
REMARK    3  A    between atoms: C_10  and  O_11
REMARK    4  A    between atoms: O_11  and  C_12
REMARK    5  A    between atoms: C_16  and  N_17
REMARK                            x       y       z     vdW  Elec       q    Type
REMARK                         _______ _______ _______ _____ _____    ______ ____
ROOT
ATOM      1  O   UNL     1      43.888   4.296  11.489  0.00  0.00    +0.000 OA
ENDROOT
BRANCH   1   2
ATOM      2  C   UNL     1      44.982   4.524  12.289  0.00  0.00    +0.000 A 
ATOM      3  C   UNL     1      45.676   3.435  12.854  0.00  0.00    +0.000 A 
ATOM      4  C   UNL     1      46.815   3.694  13.626  0.00  0.00    +0.000 A 
ATOM      5  C   UNL     1      47.269   4.997  13.796  0.00  0.00    +0.000 A 
ATOM      6  C   UNL     1      46.602   6.092  13.211  0.00  0.00    +0.000 A 
ATOM      7  C   UNL     1      45.452   5.812  12.487  0.00  0.00    +0.000 A 
BRANCH   6   8
ATOM      8  N   UNL     1      47.110   7.366  13.350  0.00  0.00    +0.000 N 
ATOM      9  C   UNL     1      46.254   8.553  13.309  0.00  0.00    +0.000 C 
ATOM     10  C   UNL     1      46.520   9.379  12.054  0.00  0.00    +0.000 C 
ATOM     11  C   UNL     1      48.011   9.655  11.869  0.00  0.00    +0.000 C 
ATOM     12  C   UNL     1      48.810   8.356  11.891  0.00  0.00    +0.000 C 
ATOM     13  C   UNL     1      48.541   7.560  13.165  0.00  0.00    +0.000 C 
ENDBRANCH   6   8
ENDBRANCH   1   2
BRANCH   1  14
ATOM     14  C   UNL     1      43.931   3.042  10.763  0.00  0.00    +0.000 C 
BRANCH  14  19
ATOM     15  C   UNL     1      46.291   2.296   7.861  0.00  0.00    +0.000 A 
ATOM     16  C   UNL     1      46.460   3.592   7.396  0.00  0.00    +0.000 A 
ATOM     17  N   UNL     1      45.864   4.674   7.951  0.00  0.00    +0.000 NA
ATOM     18  C   UNL     1      45.072   4.460   9.022  0.00  0.00    +0.000 A 
ATOM     19  C   UNL     1      44.841   3.204   9.578  0.00  0.00    +0.000 A 
ATOM     20  C   UNL     1      45.449   2.109   8.961  0.00  0.00    +0.000 A 
BRANCH  15  22
ATOM     21  F   UNL     1      46.718   1.015   5.892  0.00  0.00    +0.000 F 
ATOM     22  C   UNL     1      46.999   1.145   7.219  0.00  0.00    +0.000 C 
ATOM     23  F   UNL     1      46.689  -0.053   7.784  0.00  0.00    +0.000 F 
ATOM     24  F   UNL     1      48.354   1.254   7.301  0.00  0.00    +0.000 F 
ENDBRANCH  15  22
ENDBRANCH  14  19
ENDBRANCH   1  14
TORSDOF 5
ENDMDL
MODEL 2
REMARK VINA RESULT:    -7.497      3.836      7.225
REMARK INTER + INTRA:         -10.485
REMARK INTER:                  -9.508
REMARK INTRA:                  -0.977
REMARK UNBOUND:                -0.796
REMARK  Name = 
REMARK  5 active torsions:
REMARK  status: ('A' for Active; 'I' for Inactive)
REMARK    1  A    between atoms: C_2  and  C_5
REMARK    2  A    between atoms: C_9  and  C_10
REMARK    3  A    between atoms: C_10  and  O_11
REMARK    4  A    between atoms: O_11  and  C_12
REMARK    5  A    between atoms: C_16  and  N_17
REMARK                            x       y       z     vdW  Elec       q    Type
REMARK                         _______ _______ _______ _____ _____    ______ ____
ROOT
ATOM      1  O   UNL     1      45.555   6.361  12.426  0.00  0.00    +0.000 OA
ENDROOT
BRANCH   1   2
ATOM      2  C   UNL     1      44.958   5.179  12.058  0.00  0.00    +0.000 A 
ATOM      3  C   UNL     1      44.070   4.537  12.946  0.00  0.00    +0.000 A 
ATOM      4  C   UNL     1      43.439   3.359  12.528  0.00  0.00    +0.000 A 
ATOM      5  C   UNL     1      43.657   2.860  11.249  0.00  0.00    +0.000 A 
ATOM      6  C   UNL     1      44.517   3.509  10.341  0.00  0.00    +0.000 A 
ATOM      7  C   UNL     1      45.162   4.650  10.794  0.00  0.00    +0.000 A 
BRANCH   6   8
ATOM      8  N   UNL     1      44.667   3.021   9.060  0.00  0.00    +0.000 N 
ATOM      9  C   UNL     1      44.942   1.609   8.793  0.00  0.00    +0.000 C 
ATOM     10  C   UNL     1      46.351   1.418   8.240  0.00  0.00    +0.000 C 
ATOM     11  C   UNL     1      46.627   2.358   7.068  0.00  0.00    +0.000 C 
ATOM     12  C   UNL     1      46.346   3.806   7.457  0.00  0.00    +0.000 C 
ATOM     13  C   UNL     1      44.924   3.972   7.988  0.00  0.00    +0.000 C 
ENDBRANCH   6   8
ENDBRANCH   1   2
BRANCH   1  14
ATOM     14  C   UNL     1      47.001   6.353  12.335  0.00  0.00    +0.000 C 
BRANCH  14  19
ATOM     15  C   UNL     1      48.009   5.045  15.773  0.00  0.00    +0.000 A 
ATOM     16  C   UNL     1      48.668   6.174  16.237  0.00  0.00    +0.000 A 
ATOM     17  N   UNL     1      48.809   7.311  15.516  0.00  0.00    +0.000 NA
ATOM     18  C   UNL     1      48.261   7.332  14.283  0.00  0.00    +0.000 A 
ATOM     19  C   UNL     1      47.569   6.261  13.723  0.00  0.00    +0.000 A 
ATOM     20  C   UNL     1      47.470   5.095  14.485  0.00  0.00    +0.000 A 
BRANCH  15  22
ATOM     21  F   UNL     1      48.839   3.719  17.576  0.00  0.00    +0.000 F 
ATOM     22  C   UNL     1      47.865   3.827  16.629  0.00  0.00    +0.000 C 
ATOM     23  F   UNL     1      47.910   2.667  15.918  0.00  0.00    +0.000 F 
ATOM     24  F   UNL     1      46.685   3.801  17.308  0.00  0.00    +0.000 F 
ENDBRANCH  15  22
ENDBRANCH  14  19
ENDBRANCH   1  14
TORSDOF 5
ENDMDL
MODEL 3
REMARK VINA RESULT:    -7.393      2.177      3.753
REMARK INTER + INTRA:         -10.350
REMARK INTER:                  -9.382
REMARK INTRA:                  -0.968
REMARK UNBOUND:                -0.796
REMARK  Name = 
REMARK  5 active torsions:
REMARK  status: ('A' for Active; 'I' for Inactive)
REMARK    1  A    between atoms: C_2  and  C_5
REMARK    2  A    between atoms: C_9  and  C_10
REMARK    3  A    between atoms: C_10  and  O_11
REMARK    4  A    between atoms: O_11  and  C_12
REMARK    5  A    between atoms: C_16  and  N_17
REMARK                            x       y       z     vdW  Elec       q    Type
REMARK                         _______ _______ _______ _____ _____    ______ ____
ROOT
ATOM      1  O   UNL     1      45.082   5.447  11.727  0.00  0.00    +0.000 OA
ENDROOT
BRANCH   1   2
ATOM      2  C   UNL     1      46.230   5.756  12.417  0.00  0.00    +0.000 A 
ATOM      3  C   UNL     1      47.182   6.620  11.839  0.00  0.00    +0.000 A 
ATOM      4  C   UNL     1      48.320   6.956  12.583  0.00  0.00    +0.000 A 
ATOM      5  C   UNL     1      48.482   6.476  13.877  0.00  0.00    +0.000 A 
ATOM      6  C   UNL     1      47.522   5.637  14.478  0.00  0.00    +0.000 A 
ATOM      7  C   UNL     1      46.425   5.285  13.705  0.00  0.00    +0.000 A 
BRANCH   6   8
ATOM      8  N   UNL     1      47.683   5.224  15.784  0.00  0.00    +0.000 N 
ATOM      9  C   UNL     1      48.654   5.850  16.683  0.00  0.00    +0.000 C 
ATOM     10  C   UNL     1      49.793   4.891  17.015  0.00  0.00    +0.000 C 
ATOM     11  C   UNL     1      49.268   3.534  17.481  0.00  0.00    +0.000 C 
ATOM     12  C   UNL     1      48.294   2.950  16.462  0.00  0.00    +0.000 C 
ATOM     13  C   UNL     1      47.155   3.921  16.163  0.00  0.00    +0.000 C 
ENDBRANCH   6   8
ENDBRANCH   1   2
BRANCH   1  14
ATOM     14  C   UNL     1      45.165   5.671  10.298  0.00  0.00    +0.000 C 
BRANCH  14  19
ATOM     15  C   UNL     1      46.127   2.887   7.875  0.00  0.00    +0.000 A 
ATOM     16  C   UNL     1      45.370   1.864   8.428  0.00  0.00    +0.000 A 
ATOM     17  N   UNL     1      44.586   2.016   9.520  0.00  0.00    +0.000 NA
ATOM     18  C   UNL     1      44.543   3.241  10.084  0.00  0.00    +0.000 A 
ATOM     19  C   UNL     1      45.251   4.340   9.606  0.00  0.00    +0.000 A 
ATOM     20  C   UNL     1      46.073   4.138   8.495  0.00  0.00    +0.000 A 
BRANCH  15  22
ATOM     21  F   UNL     1      46.803   1.415   6.121  0.00  0.00    +0.000 F 
ATOM     22  C   UNL     1      46.955   2.662   6.649  0.00  0.00    +0.000 C 
ATOM     23  F   UNL     1      48.289   2.810   6.873  0.00  0.00    +0.000 F 
ATOM     24  F   UNL     1      46.648   3.529   5.645  0.00  0.00    +0.000 F 
ENDBRANCH  15  22
ENDBRANCH  14  19
ENDBRANCH   1  14
TORSDOF 5
ENDMDL
MODEL 4
REMARK VINA RESULT:    -7.346      1.636      2.227
REMARK INTER + INTRA:         -10.289
REMARK INTER:                  -9.181
REMARK INTRA:                  -1.108
REMARK UNBOUND:                -0.796
REMARK  Name = 
REMARK  5 active torsions:
REMARK  status: ('A' for Active; 'I' for Inactive)
REMARK    1  A    between atoms: C_2  and  C_5
REMARK    2  A    between atoms: C_9  and  C_10
REMARK    3  A    between atoms: C_10  and  O_11
REMARK    4  A    between atoms: O_11  and  C_12
REMARK    5  A    between atoms: C_16  and  N_17
REMARK                            x       y       z     vdW  Elec       q    Type
REMARK                         _______ _______ _______ _____ _____    ______ ____
ROOT
ATOM      1  O   UNL     1      44.014   5.887  12.489  0.00  0.00    +0.000 OA
ENDROOT
BRANCH   1   2
ATOM      2  C   UNL     1      45.257   5.892  13.076  0.00  0.00    +0.000 A 
ATOM      3  C   UNL     1      45.768   4.706  13.642  0.00  0.00    +0.000 A 
ATOM      4  C   UNL     1      47.056   4.727  14.190  0.00  0.00    +0.000 A 
ATOM      5  C   UNL     1      47.824   5.884  14.139  0.00  0.00    +0.000 A 
ATOM      6  C   UNL     1      47.337   7.066  13.548  0.00  0.00    +0.000 A 
ATOM      7  C   UNL     1      46.043   7.032  13.050  0.00  0.00    +0.000 A 
BRANCH   6   8
ATOM      8  N   UNL     1      48.145   8.181  13.461  0.00  0.00    +0.000 N 
ATOM      9  C   UNL     1      47.736   9.383  12.734  0.00  0.00    +0.000 C 
ATOM     10  C   UNL     1      48.581   9.582  11.480  0.00  0.00    +0.000 C 
ATOM     11  C   UNL     1      50.074   9.496  11.789  0.00  0.00    +0.000 C 
ATOM     12  C   UNL     1      50.404   8.194  12.513  0.00  0.00    +0.000 C 
ATOM     13  C   UNL     1      49.560   8.031  13.773  0.00  0.00    +0.000 C 
ENDBRANCH   6   8
ENDBRANCH   1   2
BRANCH   1  14
ATOM     14  C   UNL     1      44.028   6.115  11.058  0.00  0.00    +0.000 C 
BRANCH  14  19
ATOM     15  C   UNL     1      45.443   3.480   8.692  0.00  0.00    +0.000 A 
ATOM     16  C   UNL     1      44.760   2.376   9.182  0.00  0.00    +0.000 A 
ATOM     17  N   UNL     1      43.889   2.431  10.217  0.00  0.00    +0.000 NA
ATOM     18  C   UNL     1      43.679   3.636  10.784  0.00  0.00    +0.000 A 
ATOM     19  C   UNL     1      44.301   4.810  10.366  0.00  0.00    +0.000 A 
ATOM     20  C   UNL     1      45.215   4.710   9.314  0.00  0.00    +0.000 A 
BRANCH  15  22
ATOM     21  F   UNL     1      47.176   4.449   7.367  0.00  0.00    +0.000 F 
ATOM     22  C   UNL     1      46.374   3.359   7.527  0.00  0.00    +0.000 C 
ATOM     23  F   UNL     1      45.725   3.199   6.342  0.00  0.00    +0.000 F 
ATOM     24  F   UNL     1      47.214   2.293   7.637  0.00  0.00    +0.000 F 
ENDBRANCH  15  22
ENDBRANCH  14  19
ENDBRANCH   1  14
TORSDOF 5
ENDMDL
MODEL 5
REMARK VINA RESULT:    -7.102      2.664      4.609
REMARK INTER + INTRA:          -9.974
REMARK INTER:                  -9.009
REMARK INTRA:                  -0.965
REMARK UNBOUND:                -0.796
REMARK  Name = 
REMARK  5 active torsions:
REMARK  status: ('A' for Active; 'I' for Inactive)
REMARK    1  A    between atoms: C_2  and  C_5
REMARK    2  A    between atoms: C_9  and  C_10
REMARK    3  A    between atoms: C_10  and  O_11
REMARK    4  A    between atoms: O_11  and  C_12
REMARK    5  A    between atoms: C_16  and  N_17
REMARK                            x       y       z     vdW  Elec       q    Type
REMARK                         _______ _______ _______ _____ _____    ______ ____
ROOT
ATOM      1  O   UNL     1      46.777   6.565  11.501  0.00  0.00    +0.000 OA
ENDROOT
BRANCH   1   2
ATOM      2  C   UNL     1      47.682   6.696  12.527  0.00  0.00    +0.000 A 
ATOM      3  C   UNL     1      48.755   7.602  12.403  0.00  0.00    +0.000 A 
ATOM      4  C   UNL     1      49.634   7.751  13.483  0.00  0.00    +0.000 A 
ATOM      5  C   UNL     1      49.427   7.045  14.662  0.00  0.00    +0.000 A 
ATOM      6  C   UNL     1      48.341   6.160  14.810  0.00  0.00    +0.000 A 
ATOM      7  C   UNL     1      47.509   5.999  13.711  0.00  0.00    +0.000 A 
BRANCH   6   8
ATOM      8  N   UNL     1      48.128   5.519  16.012  0.00  0.00    +0.000 N 
ATOM      9  C   UNL     1      49.009   5.715  17.164  0.00  0.00    +0.000 C 
ATOM     10  C   UNL     1      49.803   4.449  17.472  0.00  0.00    +0.000 C 
ATOM     11  C   UNL     1      48.895   3.224  17.560  0.00  0.00    +0.000 C 
ATOM     12  C   UNL     1      48.046   3.087  16.300  0.00  0.00    +0.000 C 
ATOM     13  C   UNL     1      47.248   4.359  16.027  0.00  0.00    +0.000 C 
ENDBRANCH   6   8
ENDBRANCH   1   2
BRANCH   1  14
ATOM     14  C   UNL     1      45.391   6.591  11.920  0.00  0.00    +0.000 C 
BRANCH  14  19
ATOM     15  C   UNL     1      44.524   3.259  10.279  0.00  0.00    +0.000 A 
ATOM     16  C   UNL     1      43.634   2.786  11.232  0.00  0.00    +0.000 A 
ATOM     17  N   UNL     1      43.307   3.465  12.357  0.00  0.00    +0.000 NA
ATOM     18  C   UNL     1      43.882   4.672  12.538  0.00  0.00    +0.000 A 
ATOM     19  C   UNL     1      44.779   5.247  11.642  0.00  0.00    +0.000 A 
ATOM     20  C   UNL     1      45.115   4.505  10.507  0.00  0.00    +0.000 A 
BRANCH  15  22
ATOM     21  F   UNL     1      46.153   2.218   8.878  0.00  0.00    +0.000 F 
ATOM     22  C   UNL     1      44.825   2.472   9.043  0.00  0.00    +0.000 C 
ATOM     23  F   UNL     1      44.422   3.096   7.903  0.00  0.00    +0.000 F 
ATOM     24  F   UNL     1      44.212   1.255   9.036  0.00  0.00    +0.000 F 
ENDBRANCH  15  22
ENDBRANCH  14  19
ENDBRANCH   1  14
TORSDOF 5
ENDMDL
MODEL 6
REMARK VINA RESULT:    -6.952      2.026      3.410
REMARK INTER + INTRA:          -9.780
REMARK INTER:                  -8.751
REMARK INTRA:                  -1.029
REMARK UNBOUND:                -0.796
REMARK  Name = 
REMARK  5 active torsions:
REMARK  status: ('A' for Active; 'I' for Inactive)
REMARK    1  A    between atoms: C_2  and  C_5
REMARK    2  A    between atoms: C_9  and  C_10
REMARK    3  A    between atoms: C_10  and  O_11
REMARK    4  A    between atoms: O_11  and  C_12
REMARK    5  A    between atoms: C_16  and  N_17
REMARK                            x       y       z     vdW  Elec       q    Type
REMARK                         _______ _______ _______ _____ _____    ______ ____
ROOT
ATOM      1  O   UNL     1      45.077   6.105  12.259  0.00  0.00    +0.000 OA
ENDROOT
BRANCH   1   2
ATOM      2  C   UNL     1      45.706   7.322  12.144  0.00  0.00    +0.000 A 
ATOM      3  C   UNL     1      44.940   8.493  11.969  0.00  0.00    +0.000 A 
ATOM      4  C   UNL     1      45.603   9.724  11.903  0.00  0.00    +0.000 A 
ATOM      5  C   UNL     1      46.984   9.788  12.046  0.00  0.00    +0.000 A 
ATOM      6  C   UNL     1      47.758   8.629  12.252  0.00  0.00    +0.000 A 
ATOM      7  C   UNL     1      47.082   7.418  12.272  0.00  0.00    +0.000 A 
BRANCH   6   8
ATOM      8  N   UNL     1      49.120   8.732  12.448  0.00  0.00    +0.000 N 
ATOM      9  C   UNL     1      49.808  10.023  12.467  0.00  0.00    +0.000 C 
ATOM     10  C   UNL     1      50.716  10.180  11.251  0.00  0.00    +0.000 C 
ATOM     11  C   UNL     1      51.629   8.969  11.071  0.00  0.00    +0.000 C 
ATOM     12  C   UNL     1      50.815   7.679  11.028  0.00  0.00    +0.000 C 
ATOM     13  C   UNL     1      49.933   7.537  12.265  0.00  0.00    +0.000 C 
ENDBRANCH   6   8
ENDBRANCH   1   2
BRANCH   1  14
ATOM     14  C   UNL     1      44.001   5.898  11.311  0.00  0.00    +0.000 C 
BRANCH  14  19
ATOM     15  C   UNL     1      45.396   3.416   8.773  0.00  0.00    +0.000 A 
ATOM     16  C   UNL     1      44.738   2.278   9.216  0.00  0.00    +0.000 A 
ATOM     17  N   UNL     1      43.889   2.264  10.270  0.00  0.00    +0.000 NA
ATOM     18  C   UNL     1      43.676   3.433  10.907  0.00  0.00    +0.000 A 
ATOM     19  C   UNL     1      44.275   4.636  10.542  0.00  0.00    +0.000 A 
ATOM     20  C   UNL     1      45.167   4.607   9.467  0.00  0.00    +0.000 A 
BRANCH  15  22
ATOM     21  F   UNL     1      47.163   2.315   7.604  0.00  0.00    +0.000 F 
ATOM     22  C   UNL     1      46.303   3.372   7.584  0.00  0.00    +0.000 C 
ATOM     23  F   UNL     1      47.081   4.481   7.466  0.00  0.00    +0.000 F 
ATOM     24  F   UNL     1      45.620   3.270   6.409  0.00  0.00    +0.000 F 
ENDBRANCH  15  22
ENDBRANCH  14  19
ENDBRANCH   1  14
TORSDOF 5
ENDMDL
MODEL 7
REMARK VINA RESULT:    -6.903      2.490      3.783
REMARK INTER + INTRA:          -9.717
REMARK INTER:                  -8.793
REMARK INTRA:                  -0.924
REMARK UNBOUND:                -0.796
REMARK  Name = 
REMARK  5 active torsions:
REMARK  status: ('A' for Active; 'I' for Inactive)
REMARK    1  A    between atoms: C_2  and  C_5
REMARK    2  A    between atoms: C_9  and  C_10
REMARK    3  A    between atoms: C_10  and  O_11
REMARK    4  A    between atoms: O_11  and  C_12
REMARK    5  A    between atoms: C_16  and  N_17
REMARK                            x       y       z     vdW  Elec       q    Type
REMARK                         _______ _______ _______ _____ _____    ______ ____
ROOT
ATOM      1  O   UNL     1      45.606   5.749  12.670  0.00  0.00    +0.000 OA
ENDROOT
BRANCH   1   2
ATOM      2  C   UNL     1      46.846   6.320  12.823  0.00  0.00    +0.000 A 
ATOM      3  C   UNL     1      47.463   6.958  11.727  0.00  0.00    +0.000 A 
ATOM      4  C   UNL     1      48.705   7.574  11.923  0.00  0.00    +0.000 A 
ATOM      5  C   UNL     1      49.294   7.586  13.182  0.00  0.00    +0.000 A 
ATOM      6  C   UNL     1      48.673   6.980  14.292  0.00  0.00    +0.000 A 
ATOM      7  C   UNL     1      47.464   6.341  14.063  0.00  0.00    +0.000 A 
BRANCH   6   8
ATOM      8  N   UNL     1      49.255   7.060  15.540  0.00  0.00    +0.000 N 
ATOM      9  C   UNL     1      50.567   7.674  15.749  0.00  0.00    +0.000 C 
ATOM     10  C   UNL     1      51.606   6.628  16.143  0.00  0.00    +0.000 C 
ATOM     11  C   UNL     1      51.115   5.755  17.297  0.00  0.00    +0.000 C 
ATOM     12  C   UNL     1      49.761   5.135  16.968  0.00  0.00    +0.000 C 
ATOM     13  C   UNL     1      48.736   6.203  16.597  0.00  0.00    +0.000 C 
ENDBRANCH   6   8
ENDBRANCH   1   2
BRANCH   1  14
ATOM     14  C   UNL     1      44.940   6.090  11.429  0.00  0.00    +0.000 C 
BRANCH  14  19
ATOM     15  C   UNL     1      45.493   3.477   8.706  0.00  0.00    +0.000 A 
ATOM     16  C   UNL     1      44.565   2.538   9.132  0.00  0.00    +0.000 A 
ATOM     17  N   UNL     1      43.788   2.693  10.230  0.00  0.00    +0.000 NA
ATOM     18  C   UNL     1      43.933   3.836  10.931  0.00  0.00    +0.000 A 
ATOM     19  C   UNL     1      44.824   4.850  10.589  0.00  0.00    +0.000 A 
ATOM     20  C   UNL     1      45.629   4.642   9.466  0.00  0.00    +0.000 A 
BRANCH  15  22
ATOM     21  F   UNL     1      45.541   3.042   6.359  0.00  0.00    +0.000 F 
ATOM     22  C   UNL     1      46.303   3.258   7.468  0.00  0.00    +0.000 C 
ATOM     23  F   UNL     1      47.136   2.186   7.559  0.00  0.00    +0.000 F 
ATOM     24  F   UNL     1      47.099   4.322   7.168  0.00  0.00    +0.000 F 
ENDBRANCH  15  22
ENDBRANCH  14  19
ENDBRANCH   1  14
TORSDOF 5
ENDMDL
MODEL 8
REMARK VINA RESULT:    -6.810      5.529      8.255
REMARK INTER + INTRA:          -9.597
REMARK INTER:                  -8.733
REMARK INTRA:                  -0.863
REMARK UNBOUND:                -0.796
REMARK  Name = 
REMARK  5 active torsions:
REMARK  status: ('A' for Active; 'I' for Inactive)
REMARK    1  A    between atoms: C_2  and  C_5
REMARK    2  A    between atoms: C_9  and  C_10
REMARK    3  A    between atoms: C_10  and  O_11
REMARK    4  A    between atoms: O_11  and  C_12
REMARK    5  A    between atoms: C_16  and  N_17
REMARK                            x       y       z     vdW  Elec       q    Type
REMARK                         _______ _______ _______ _____ _____    ______ ____
ROOT
ATOM      1  O   UNL     1      46.743   3.664  15.179  0.00  0.00    +0.000 OA
ENDROOT
BRANCH   1   2
ATOM      2  C   UNL     1      46.626   4.487  14.085  0.00  0.00    +0.000 A 
ATOM      3  C   UNL     1      47.407   5.657  14.003  0.00  0.00    +0.000 A 
ATOM      4  C   UNL     1      47.304   6.453  12.854  0.00  0.00    +0.000 A 
ATOM      5  C   UNL     1      46.476   6.071  11.806  0.00  0.00    +0.000 A 
ATOM      6  C   UNL     1      45.714   4.887  11.862  0.00  0.00    +0.000 A 
ATOM      7  C   UNL     1      45.802   4.139  13.027  0.00  0.00    +0.000 A 
BRANCH   6   8
ATOM      8  N   UNL     1      44.946   4.505  10.782  0.00  0.00    +0.000 N 
ATOM      9  C   UNL     1      44.337   3.178  10.691  0.00  0.00    +0.000 C 
ATOM     10  C   UNL     1      44.985   2.349   9.586  0.00  0.00    +0.000 C 
ATOM     11  C   UNL     1      45.045   3.119   8.268  0.00  0.00    +0.000 C 
ATOM     12  C   UNL     1      45.729   4.470   8.460  0.00  0.00    +0.000 C 
ATOM     13  C   UNL     1      45.048   5.285   9.556  0.00  0.00    +0.000 C 
ENDBRANCH   6   8
ENDBRANCH   1   2
BRANCH   1  14
ATOM     14  C   UNL     1      47.280   4.312  16.359  0.00  0.00    +0.000 C 
BRANCH  14  19
ATOM     15  C   UNL     1      50.747   3.663  17.809  0.00  0.00    +0.000 A 
ATOM     16  C   UNL     1      50.920   2.364  17.353  0.00  0.00    +0.000 A 
ATOM     17  N   UNL     1      49.998   1.696  16.622  0.00  0.00    +0.000 NA
ATOM     18  C   UNL     1      48.857   2.349  16.322  0.00  0.00    +0.000 A 
ATOM     19  C   UNL     1      48.583   3.655  16.718  0.00  0.00    +0.000 A 
ATOM     20  C   UNL     1      49.545   4.303  17.495  0.00  0.00    +0.000 A 
BRANCH  15  22
ATOM     21  F   UNL     1      53.069   3.903  18.308  0.00  0.00    +0.000 F 
ATOM     22  C   UNL     1      51.816   4.357  18.592  0.00  0.00    +0.000 C 
ATOM     23  F   UNL     1      51.667   4.218  19.937  0.00  0.00    +0.000 F 
ATOM     24  F   UNL     1      51.848   5.699  18.358  0.00  0.00    +0.000 F 
ENDBRANCH  15  22
ENDBRANCH  14  19
ENDBRANCH   1  14
TORSDOF 5
ENDMDL
MODEL 9
REMARK VINA RESULT:    -6.556      4.778      7.940
REMARK INTER + INTRA:          -9.268
REMARK INTER:                  -8.145
REMARK INTRA:                  -1.123
REMARK UNBOUND:                -0.796
REMARK  Name = 
REMARK  5 active torsions:
REMARK  status: ('A' for Active; 'I' for Inactive)
REMARK    1  A    between atoms: C_2  and  C_5
REMARK    2  A    between atoms: C_9  and  C_10
REMARK    3  A    between atoms: C_10  and  O_11
REMARK    4  A    between atoms: O_11  and  C_12
REMARK    5  A    between atoms: C_16  and  N_17
REMARK                            x       y       z     vdW  Elec       q    Type
REMARK                         _______ _______ _______ _____ _____    ______ ____
ROOT
ATOM      1  O   UNL     1      48.599   6.291  14.020  0.00  0.00    +0.000 OA
ENDROOT
BRANCH   1   2
ATOM      2  C   UNL     1      47.442   6.817  13.497  0.00  0.00    +0.000 A 
ATOM      3  C   UNL     1      47.320   8.212  13.332  0.00  0.00    +0.000 A 
ATOM      4  C   UNL     1      46.149   8.717  12.753  0.00  0.00    +0.000 A 
ATOM      5  C   UNL     1      45.150   7.855  12.317  0.00  0.00    +0.000 A 
ATOM      6  C   UNL     1      45.274   6.458  12.447  0.00  0.00    +0.000 A 
ATOM      7  C   UNL     1      46.424   5.984  13.062  0.00  0.00    +0.000 A 
BRANCH   6   8
ATOM      8  N   UNL     1      44.291   5.626  11.952  0.00  0.00    +0.000 N 
ATOM      9  C   UNL     1      43.235   5.078  12.803  0.00  0.00    +0.000 C 
ATOM     10  C   UNL     1      43.393   3.571  12.975  0.00  0.00    +0.000 C 
ATOM     11  C   UNL     1      43.563   2.867  11.630  0.00  0.00    +0.000 C 
ATOM     12  C   UNL     1      44.710   3.486  10.836  0.00  0.00    +0.000 C 
ATOM     13  C   UNL     1      44.516   4.989  10.661  0.00  0.00    +0.000 C 
ENDBRANCH   6   8
ENDBRANCH   1   2
BRANCH   1  14
ATOM     14  C   UNL     1      49.191   7.084  15.078  0.00  0.00    +0.000 C 
BRANCH  14  19
ATOM     15  C   UNL     1      48.311   4.544  17.783  0.00  0.00    +0.000 A 
ATOM     16  C   UNL     1      48.230   5.413  18.861  0.00  0.00    +0.000 A 
ATOM     17  N   UNL     1      48.445   6.746  18.770  0.00  0.00    +0.000 NA
ATOM     18  C   UNL     1      48.743   7.241  17.551  0.00  0.00    +0.000 A 
ATOM     19  C   UNL     1      48.839   6.463  16.400  0.00  0.00    +0.000 A 
ATOM     20  C   UNL     1      48.639   5.088  16.538  0.00  0.00    +0.000 A 
BRANCH  15  22
ATOM     21  F   UNL     1      48.826   2.298  17.158  0.00  0.00    +0.000 F 
ATOM     22  C   UNL     1      48.036   3.082  17.945  0.00  0.00    +0.000 C 
ATOM     23  F   UNL     1      46.755   2.744  17.637  0.00  0.00    +0.000 F 
ATOM     24  F   UNL     1      48.239   2.650  19.220  0.00  0.00    +0.000 F 
ENDBRANCH  15  22
ENDBRANCH  14  19
ENDBRANCH   1  14
TORSDOF 5
ENDMDL
