MODEL 1
REMARK VINA RESULT:    -7.940      0.000      0.000
REMARK INTER + INTRA:         -11.058
REMARK INTER:                 -10.725
REMARK INTRA:                  -0.333
REMARK UNBOUND:                -0.333
REMARK  Name = 
REMARK  7 active torsions:
REMARK  status: ('A' for Active; 'I' for Inactive)
REMARK    1  A    between atoms: C_1  and  C_2
REMARK    2  A    between atoms: C_2  and  N_3
REMARK    3  A    between atoms: C_2  and  C_26
REMARK    4  A    between atoms: C_4  and  C_6
REMARK    5  A    between atoms: C_9  and  C_10
REMARK    6  A    between atoms: C_10  and  N_11
REMARK    7  A    between atoms: C_12  and  C_14
REMARK                            x       y       z     vdW  Elec       q    Type
REMARK                         _______ _______ _______ _____ _____    ______ ____
ROOT
ATOM      1  C   UNL     1      44.039   5.766  11.797  0.00  0.00    +0.000 C 
ATOM      2  C   UNL     1      44.569   5.424  13.196  0.00  0.00    +0.000 C 
ATOM      3  C   UNL     1      46.026   4.961  13.184  0.00  0.00    +0.000 C 
ATOM      4  C   UNL     1      46.964   5.958  12.488  0.00  0.00    +0.000 C 
ATOM      5  C   UNL     1      46.458   6.224  11.064  0.00  0.00    +0.000 C 
ATOM      6  C   UNL     1      45.001   6.690  11.029  0.00  0.00    +0.000 C 
ENDROOT
BRANCH   1   8
ATOM      7  N   UNL     1      44.601   4.207  10.009  0.00  0.00    +0.000 N 
ATOM      8  C   UNL     1      43.702   4.501  11.004  0.00  0.00    +0.000 C 
ATOM      9  O   UNL     1      42.719   3.800  11.226  0.00  0.00    +0.000 OA
ATOM     10  H   UNL     1      45.456   4.741   9.899  0.00  0.00    +0.000 HD
BRANCH   7  12
ATOM     11  C   UNL     1      44.192   1.788   9.882  0.00  0.00    +0.000 C 
ATOM     12  C   UNL     1      44.421   3.083   9.103  0.00  0.00    +0.000 C 
BRANCH  12  13
ATOM     13  C   UNL     1      45.628   2.930   8.199  0.00  0.00    +0.000 A 
ATOM     14  C   UNL     1      46.250   1.690   8.071  0.00  0.00    +0.000 A 
ATOM     15  N   UNL     1      47.367   1.500   7.331  0.00  0.00    +0.000 NA
ATOM     16  C   UNL     1      47.846   2.603   6.716  0.00  0.00    +0.000 A 
ATOM     17  C   UNL     1      47.233   3.840   6.827  0.00  0.00    +0.000 A 
ATOM     18  N   UNL     1      46.117   4.036   7.568  0.00  0.00    +0.000 NA
ENDBRANCH  12  13
ENDBRANCH   7  12
ENDBRANCH   1   8
BRANCH   4  19
ATOM     19  C   UNL     1      47.150   7.279  13.263  0.00  0.00    +0.000 C 
BRANCH  19  20
ATOM     20  N   UNL     1      47.611   7.050  14.614  0.00  0.00    +0.000 N 
ATOM     21  C   UNL     1      48.933   7.007  14.975  0.00  0.00    +0.000 C 
ATOM     22  O   UNL     1      49.847   7.016  14.158  0.00  0.00    +0.000 OA
ATOM     23  H   UNL     1      46.906   7.145  15.337  0.00  0.00    +0.000 HD
BRANCH  21  24
ATOM     24  C   UNL     1      49.194   6.914  16.419  0.00  0.00    +0.000 A 
ATOM     25  C   UNL     1      49.791   7.975  17.086  0.00  0.00    +0.000 A 
ATOM     26  S   UNL     1      50.023   7.689  18.750  0.00  0.00    +0.000 S 
ATOM     27  C   UNL     1      49.280   6.161  18.649  0.00  0.00    +0.000 A 
ATOM     28  N   UNL     1      49.118   5.386  19.757  0.00  0.00    +0.000 NA
ATOM     29  C   UNL     1      48.495   4.275  19.543  0.00  0.00    +0.000 A 
ATOM     30  N   UNL     1      48.031   3.862  18.323  0.00  0.00    +0.000 N 
ATOM     31  C   UNL     1      48.242   4.572  17.167  0.00  0.00    +0.000 A 
ATOM     32  O   UNL     1      47.936   4.107  16.075  0.00  0.00    +0.000 OA
ATOM     33  C   UNL     1      48.892   5.857  17.357  0.00  0.00    +0.000 A 
ATOM     34  H   UNL     1      47.580   2.964  18.215  0.00  0.00    +0.000 HD
ENDBRANCH  21  24
ENDBRANCH  19  20
ENDBRANCH   4  19
TORSDOF 6
ENDMDL
MODEL 2
REMARK VINA RESULT:    -7.536      1.775      2.340
REMARK INTER + INTRA:         -10.513
REMARK INTER:                 -10.080
REMARK INTRA:                  -0.433
REMARK UNBOUND:                -0.333
REMARK  Name = 
REMARK  7 active torsions:
REMARK  status: ('A' for Active; 'I' for Inactive)
REMARK    1  A    between atoms: C_1  and  C_2
REMARK    2  A    between atoms: C_2  and  N_3
REMARK    3  A    between atoms: C_2  and  C_26
REMARK    4  A    between atoms: C_4  and  C_6
REMARK    5  A    between atoms: C_9  and  C_10
REMARK    6  A    between atoms: C_10  and  N_11
REMARK    7  A    between atoms: C_12  and  C_14
REMARK                            x       y       z     vdW  Elec       q    Type
REMARK                         _______ _______ _______ _____ _____    ______ ____
ROOT
ATOM      1  C   UNL     1      44.646   6.403  12.901  0.00  0.00    +0.000 C 
ATOM      2  C   UNL     1      45.650   5.509  13.642  0.00  0.00    +0.000 C 
ATOM      3  C   UNL     1      46.947   5.296  12.862  0.00  0.00    +0.000 C 
ATOM      4  C   UNL     1      47.615   6.613  12.443  0.00  0.00    +0.000 C 
ATOM      5  C   UNL     1      46.618   7.457  11.637  0.00  0.00    +0.000 C 
ATOM      6  C   UNL     1      45.303   7.694  12.381  0.00  0.00    +0.000 C 
ENDROOT
BRANCH   1   8
ATOM      7  N   UNL     1      44.352   4.336  11.641  0.00  0.00    +0.000 N 
ATOM      8  C   UNL     1      43.931   5.634  11.787  0.00  0.00    +0.000 C 
ATOM      9  O   UNL     1      43.055   6.122  11.078  0.00  0.00    +0.000 OA
ATOM     10  H   UNL     1      45.008   3.920  12.294  0.00  0.00    +0.000 HD
BRANCH   7  12
ATOM     11  C   UNL     1      43.470   2.094  11.164  0.00  0.00    +0.000 C 
ATOM     12  C   UNL     1      43.842   3.463  10.596  0.00  0.00    +0.000 C 
BRANCH  12  13
ATOM     13  C   UNL     1      44.867   3.298   9.492  0.00  0.00    +0.000 A 
ATOM     14  C   UNL     1      45.334   4.414   8.802  0.00  0.00    +0.000 A 
ATOM     15  N   UNL     1      46.201   4.330   7.766  0.00  0.00    +0.000 NA
ATOM     16  C   UNL     1      46.591   3.078   7.442  0.00  0.00    +0.000 A 
ATOM     17  C   UNL     1      46.143   1.960   8.125  0.00  0.00    +0.000 A 
ATOM     18  N   UNL     1      45.274   2.039   9.159  0.00  0.00    +0.000 NA
ENDBRANCH  12  13
ENDBRANCH   7  12
ENDBRANCH   1   8
BRANCH   4  19
ATOM     19  C   UNL     1      48.189   7.420  13.626  0.00  0.00    +0.000 C 
BRANCH  19  20
ATOM     20  N   UNL     1      48.095   6.693  14.871  0.00  0.00    +0.000 N 
ATOM     21  C   UNL     1      49.153   6.481  15.718  0.00  0.00    +0.000 C 
ATOM     22  O   UNL     1      50.307   6.769  15.424  0.00  0.00    +0.000 OA
ATOM     23  H   UNL     1      47.153   6.531  15.211  0.00  0.00    +0.000 HD
BRANCH  21  24
ATOM     24  C   UNL     1      48.820   5.850  17.003  0.00  0.00    +0.000 A 
ATOM     25  C   UNL     1      48.993   4.482  17.168  0.00  0.00    +0.000 A 
ATOM     26  S   UNL     1      48.549   3.923  18.716  0.00  0.00    +0.000 S 
ATOM     27  C   UNL     1      48.166   5.497  19.238  0.00  0.00    +0.000 A 
ATOM     28  N   UNL     1      47.748   5.731  20.512  0.00  0.00    +0.000 NA
ATOM     29  C   UNL     1      47.541   6.976  20.785  0.00  0.00    +0.000 A 
ATOM     30  N   UNL     1      47.702   8.007  19.898  0.00  0.00    +0.000 N 
ATOM     31  C   UNL     1      48.044   7.811  18.583  0.00  0.00    +0.000 A 
ATOM     32  O   UNL     1      48.043   8.742  17.784  0.00  0.00    +0.000 OA
ATOM     33  C   UNL     1      48.341   6.433  18.234  0.00  0.00    +0.000 A 
ATOM     34  H   UNL     1      47.490   8.959  20.164  0.00  0.00    +0.000 HD
ENDBRANCH  21  24
ENDBRANCH  19  20
ENDBRANCH   4  19
TORSDOF 6
ENDMDL
MODEL 3
REMARK VINA RESULT:    -7.447      2.842      8.975
REMARK INTER + INTRA:         -10.392
REMARK INTER:                  -9.300
REMARK INTRA:                  -1.093
REMARK UNBOUND:                -0.333
REMARK  Name = 
REMARK  7 active torsions:
REMARK  status: ('A' for Active; 'I' for Inactive)
REMARK    1  A    between atoms: C_1  and  C_2
REMARK    2  A    between atoms: C_2  and  N_3
REMARK    3  A    between atoms: C_2  and  C_26
REMARK    4  A    between atoms: C_4  and  C_6
REMARK    5  A    between atoms: C_9  and  C_10
REMARK    6  A    between atoms: C_10  and  N_11
REMARK    7  A    between atoms: C_12  and  C_14
REMARK                            x       y       z     vdW  Elec       q    Type
REMARK                         _______ _______ _______ _____ _____    ______ ____
ROOT
ATOM      1  C   UNL     1      48.117   7.926  12.820  0.00  0.00    +0.000 C 
ATOM      2  C   UNL     1      47.757   6.473  12.477  0.00  0.00    +0.000 C 
ATOM      3  C   UNL     1      46.383   6.059  13.002  0.00  0.00    +0.000 C 
ATOM      4  C   UNL     1      45.262   7.006  12.550  0.00  0.00    +0.000 C 
ATOM      5  C   UNL     1      45.605   8.441  12.973  0.00  0.00    +0.000 C 
ATOM      6  C   UNL     1      46.975   8.897  12.470  0.00  0.00    +0.000 C 
ENDROOT
BRANCH   1   8
ATOM      7  N   UNL     1      49.274   6.990  14.752  0.00  0.00    +0.000 N 
ATOM      8  C   UNL     1      48.557   8.061  14.280  0.00  0.00    +0.000 C 
ATOM      9  O   UNL     1      48.298   9.035  14.981  0.00  0.00    +0.000 OA
ATOM     10  H   UNL     1      49.560   6.237  14.135  0.00  0.00    +0.000 HD
BRANCH   7  12
ATOM     11  C   UNL     1      51.249   6.826  16.202  0.00  0.00    +0.000 C 
ATOM     12  C   UNL     1      49.724   6.900  16.132  0.00  0.00    +0.000 C 
BRANCH  12  13
ATOM     13  C   UNL     1      49.121   5.686  16.810  0.00  0.00    +0.000 A 
ATOM     14  C   UNL     1      49.477   5.370  18.119  0.00  0.00    +0.000 A 
ATOM     15  N   UNL     1      49.024   4.267  18.759  0.00  0.00    +0.000 NA
ATOM     16  C   UNL     1      48.191   3.484  18.039  0.00  0.00    +0.000 A 
ATOM     17  C   UNL     1      47.820   3.791  16.741  0.00  0.00    +0.000 A 
ATOM     18  N   UNL     1      48.274   4.891  16.096  0.00  0.00    +0.000 NA
ENDBRANCH  12  13
ENDBRANCH   7  12
ENDBRANCH   1   8
BRANCH   4  19
ATOM     19  C   UNL     1      44.961   6.934  11.039  0.00  0.00    +0.000 C 
BRANCH  19  20
ATOM     20  N   UNL     1      45.238   5.624  10.496  0.00  0.00    +0.000 N 
ATOM     21  C   UNL     1      44.270   4.735  10.106  0.00  0.00    +0.000 C 
ATOM     22  O   UNL     1      43.076   4.917  10.317  0.00  0.00    +0.000 OA
ATOM     23  H   UNL     1      46.197   5.468  10.201  0.00  0.00    +0.000 HD
BRANCH  21  24
ATOM     24  C   UNL     1      44.757   3.517   9.441  0.00  0.00    +0.000 A 
ATOM     25  C   UNL     1      44.158   2.294   9.709  0.00  0.00    +0.000 A 
ATOM     26  S   UNL     1      44.856   0.993   8.857  0.00  0.00    +0.000 S 
ATOM     27  C   UNL     1      45.946   2.028   8.057  0.00  0.00    +0.000 A 
ATOM     28  N   UNL     1      46.824   1.544   7.136  0.00  0.00    +0.000 NA
ATOM     29  C   UNL     1      47.556   2.447   6.573  0.00  0.00    +0.000 A 
ATOM     30  N   UNL     1      47.499   3.786   6.854  0.00  0.00    +0.000 N 
ATOM     31  C   UNL     1      46.688   4.307   7.830  0.00  0.00    +0.000 A 
ATOM     32  O   UNL     1      46.764   5.489   8.150  0.00  0.00    +0.000 OA
ATOM     33  C   UNL     1      45.803   3.343   8.460  0.00  0.00    +0.000 A 
ATOM     34  H   UNL     1      48.124   4.438   6.401  0.00  0.00    +0.000 HD
ENDBRANCH  21  24
ENDBRANCH  19  20
ENDBRANCH   4  19
TORSDOF 6
ENDMDL
MODEL 4
REMARK VINA RESULT:    -7.401      2.139      2.736
REMARK INTER + INTRA:         -10.331
REMARK INTER:                  -9.533
REMARK INTRA:                  -0.798
REMARK UNBOUND:                -0.333
REMARK  Name = 
REMARK  7 active torsions:
REMARK  status: ('A' for Active; 'I' for Inactive)
REMARK    1  A    between atoms: C_1  and  C_2
REMARK    2  A    between atoms: C_2  and  N_3
REMARK    3  A    between atoms: C_2  and  C_26
REMARK    4  A    between atoms: C_4  and  C_6
REMARK    5  A    between atoms: C_9  and  C_10
REMARK    6  A    between atoms: C_10  and  N_11
REMARK    7  A    between atoms: C_12  and  C_14
REMARK                            x       y       z     vdW  Elec       q    Type
REMARK                         _______ _______ _______ _____ _____    ______ ____
ROOT
ATOM      1  C   UNL     1      44.846   6.425  13.113  0.00  0.00    +0.000 C 
ATOM      2  C   UNL     1      46.012   5.555  13.605  0.00  0.00    +0.000 C 
ATOM      3  C   UNL     1      47.203   5.557  12.648  0.00  0.00    +0.000 C 
ATOM      4  C   UNL     1      47.698   6.972  12.314  0.00  0.00    +0.000 C 
ATOM      5  C   UNL     1      46.535   7.800  11.750  0.00  0.00    +0.000 C 
ATOM      6  C   UNL     1      45.319   7.823  12.677  0.00  0.00    +0.000 C 
ENDROOT
BRANCH   1   8
ATOM      7  N   UNL     1      44.375   4.396  11.844  0.00  0.00    +0.000 N 
ATOM      8  C   UNL     1      44.051   5.719  12.011  0.00  0.00    +0.000 C 
ATOM      9  O   UNL     1      43.196   6.275  11.328  0.00  0.00    +0.000 OA
ATOM     10  H   UNL     1      45.015   3.928  12.477  0.00  0.00    +0.000 HD
BRANCH   7  12
ATOM     11  C   UNL     1      43.339   2.221  11.368  0.00  0.00    +0.000 C 
ATOM     12  C   UNL     1      43.778   3.572  10.805  0.00  0.00    +0.000 C 
BRANCH  12  13
ATOM     13  C   UNL     1      44.756   3.359   9.667  0.00  0.00    +0.000 A 
ATOM     14  C   UNL     1      45.242   4.450   8.952  0.00  0.00    +0.000 A 
ATOM     15  N   UNL     1      46.067   4.325   7.887  0.00  0.00    +0.000 NA
ATOM     16  C   UNL     1      46.396   3.056   7.559  0.00  0.00    +0.000 A 
ATOM     17  C   UNL     1      45.928   1.961   8.267  0.00  0.00    +0.000 A 
ATOM     18  N   UNL     1      45.100   2.082   9.330  0.00  0.00    +0.000 NA
ENDBRANCH  12  13
ENDBRANCH   7  12
ENDBRANCH   1   8
BRANCH   4  19
ATOM     19  C   UNL     1      48.361   7.693  13.506  0.00  0.00    +0.000 C 
BRANCH  19  20
ATOM     20  N   UNL     1      48.895   6.760  14.471  0.00  0.00    +0.000 N 
ATOM     21  C   UNL     1      48.915   6.984  15.824  0.00  0.00    +0.000 C 
ATOM     22  O   UNL     1      48.611   8.060  16.325  0.00  0.00    +0.000 OA
ATOM     23  H   UNL     1      49.056   5.820  14.126  0.00  0.00    +0.000 HD
BRANCH  21  24
ATOM     24  C   UNL     1      49.362   5.851  16.648  0.00  0.00    +0.000 A 
ATOM     25  C   UNL     1      48.435   4.938  17.132  0.00  0.00    +0.000 A 
ATOM     26  S   UNL     1      49.129   3.697  18.073  0.00  0.00    +0.000 S 
ATOM     27  C   UNL     1      50.699   4.304  17.817  0.00  0.00    +0.000 A 
ATOM     28  N   UNL     1      51.788   3.669  18.332  0.00  0.00    +0.000 NA
ATOM     29  C   UNL     1      52.917   4.211  18.018  0.00  0.00    +0.000 A 
ATOM     30  N   UNL     1      53.058   5.335  17.248  0.00  0.00    +0.000 N 
ATOM     31  C   UNL     1      51.987   6.051  16.775  0.00  0.00    +0.000 A 
ATOM     32  O   UNL     1      52.148   7.127  16.208  0.00  0.00    +0.000 OA
ATOM     33  C   UNL     1      50.692   5.457  17.053  0.00  0.00    +0.000 A 
ATOM     34  H   UNL     1      53.971   5.729  17.066  0.00  0.00    +0.000 HD
ENDBRANCH  21  24
ENDBRANCH  19  20
ENDBRANCH   4  19
TORSDOF 6
ENDMDL
MODEL 5
REMARK VINA RESULT:    -7.271      3.043      9.014
REMARK INTER + INTRA:         -10.154
REMARK INTER:                  -9.077
REMARK INTRA:                  -1.077
REMARK UNBOUND:                -0.333
REMARK  Name = 
REMARK  7 active torsions:
REMARK  status: ('A' for Active; 'I' for Inactive)
REMARK    1  A    between atoms: C_1  and  C_2
REMARK    2  A    between atoms: C_2  and  N_3
REMARK    3  A    between atoms: C_2  and  C_26
REMARK    4  A    between atoms: C_4  and  C_6
REMARK    5  A    between atoms: C_9  and  C_10
REMARK    6  A    between atoms: C_10  and  N_11
REMARK    7  A    between atoms: C_12  and  C_14
REMARK                            x       y       z     vdW  Elec       q    Type
REMARK                         _______ _______ _______ _____ _____    ______ ____
ROOT
ATOM      1  C   UNL     1      49.928   8.237  12.736  0.00  0.00    +0.000 C 
ATOM      2  C   UNL     1      49.031   6.998  12.872  0.00  0.00    +0.000 C 
ATOM      3  C   UNL     1      47.799   7.248  13.742  0.00  0.00    +0.000 C 
ATOM      4  C   UNL     1      46.973   8.455  13.275  0.00  0.00    +0.000 C 
ATOM      5  C   UNL     1      47.872   9.698  13.222  0.00  0.00    +0.000 C 
ATOM      6  C   UNL     1      49.120   9.492  12.362  0.00  0.00    +0.000 C 
ENDROOT
BRANCH   1   8
ATOM      7  N   UNL     1      50.968   7.320  14.742  0.00  0.00    +0.000 N 
ATOM      8  C   UNL     1      50.774   8.454  13.994  0.00  0.00    +0.000 C 
ATOM      9  O   UNL     1      51.244   9.540  14.318  0.00  0.00    +0.000 OA
ATOM     10  H   UNL     1      50.653   6.413  14.413  0.00  0.00    +0.000 HD
BRANCH   7  12
ATOM     11  C   UNL     1      53.144   6.914  15.806  0.00  0.00    +0.000 C 
ATOM     12  C   UNL     1      51.688   7.333  16.006  0.00  0.00    +0.000 C 
BRANCH  12  13
ATOM     13  C   UNL     1      51.022   6.410  17.007  0.00  0.00    +0.000 A 
ATOM     14  C   UNL     1      51.366   6.479  18.355  0.00  0.00    +0.000 A 
ATOM     15  N   UNL     1      50.856   5.642  19.289  0.00  0.00    +0.000 NA
ATOM     16  C   UNL     1      49.980   4.726  18.824  0.00  0.00    +0.000 A 
ATOM     17  C   UNL     1      49.620   4.652  17.488  0.00  0.00    +0.000 A 
ATOM     18  N   UNL     1      50.130   5.484  16.551  0.00  0.00    +0.000 NA
ENDBRANCH  12  13
ENDBRANCH   7  12
ENDBRANCH   1   8
BRANCH   4  19
ATOM     19  C   UNL     1      46.259   8.232  11.925  0.00  0.00    +0.000 C 
BRANCH  19  20
ATOM     20  N   UNL     1      45.802   6.870  11.776  0.00  0.00    +0.000 N 
ATOM     21  C   UNL     1      44.526   6.525  11.410  0.00  0.00    +0.000 C 
ATOM     22  O   UNL     1      43.618   7.343  11.314  0.00  0.00    +0.000 OA
ATOM     23  H   UNL     1      46.532   6.167  11.736  0.00  0.00    +0.000 HD
BRANCH  21  24
ATOM     24  C   UNL     1      44.301   5.093  11.167  0.00  0.00    +0.000 A 
ATOM     25  C   UNL     1      43.493   4.363  12.028  0.00  0.00    +0.000 A 
ATOM     26  S   UNL     1      43.352   2.719  11.598  0.00  0.00    +0.000 S 
ATOM     27  C   UNL     1      44.318   2.939  10.214  0.00  0.00    +0.000 A 
ATOM     28  N   UNL     1      44.568   1.906   9.362  0.00  0.00    +0.000 NA
ATOM     29  C   UNL     1      45.273   2.227   8.329  0.00  0.00    +0.000 A 
ATOM     30  N   UNL     1      45.762   3.481   8.076  0.00  0.00    +0.000 N 
ATOM     31  C   UNL     1      45.603   4.531   8.945  0.00  0.00    +0.000 A 
ATOM     32  O   UNL     1      46.171   5.601   8.754  0.00  0.00    +0.000 OA
ATOM     33  C   UNL     1      44.772   4.240  10.100  0.00  0.00    +0.000 A 
ATOM     34  H   UNL     1      46.337   3.660   7.264  0.00  0.00    +0.000 HD
ENDBRANCH  21  24
ENDBRANCH  19  20
ENDBRANCH   4  19
TORSDOF 6
ENDMDL
MODEL 6
REMARK VINA RESULT:    -7.262      1.849      2.555
REMARK INTER + INTRA:         -10.142
REMARK INTER:                  -9.685
REMARK INTRA:                  -0.457
REMARK UNBOUND:                -0.333
REMARK  Name = 
REMARK  7 active torsions:
REMARK  status: ('A' for Active; 'I' for Inactive)
REMARK    1  A    between atoms: C_1  and  C_2
REMARK    2  A    between atoms: C_2  and  N_3
REMARK    3  A    between atoms: C_2  and  C_26
REMARK    4  A    between atoms: C_4  and  C_6
REMARK    5  A    between atoms: C_9  and  C_10
REMARK    6  A    between atoms: C_10  and  N_11
REMARK    7  A    between atoms: C_12  and  C_14
REMARK                            x       y       z     vdW  Elec       q    Type
REMARK                         _______ _______ _______ _____ _____    ______ ____
ROOT
ATOM      1  C   UNL     1      46.660   7.058  13.053  0.00  0.00    +0.000 C 
ATOM      2  C   UNL     1      47.964   6.515  12.452  0.00  0.00    +0.000 C 
ATOM      3  C   UNL     1      48.548   7.428  11.374  0.00  0.00    +0.000 C 
ATOM      4  C   UNL     1      48.745   8.872  11.856  0.00  0.00    +0.000 C 
ATOM      5  C   UNL     1      47.411   9.421  12.380  0.00  0.00    +0.000 C 
ATOM      6  C   UNL     1      46.789   8.536  13.462  0.00  0.00    +0.000 C 
ENDROOT
BRANCH   1   8
ATOM      7  N   UNL     1      45.362   5.533  11.661  0.00  0.00    +0.000 N 
ATOM      8  C   UNL     1      45.473   6.824  12.114  0.00  0.00    +0.000 C 
ATOM      9  O   UNL     1      44.683   7.704  11.785  0.00  0.00    +0.000 OA
ATOM     10  H   UNL     1      45.966   4.799  12.015  0.00  0.00    +0.000 HD
BRANCH   7  12
ATOM     11  C   UNL     1      43.177   4.438  11.422  0.00  0.00    +0.000 C 
ATOM     12  C   UNL     1      44.340   5.126  10.709  0.00  0.00    +0.000 C 
BRANCH  12  13
ATOM     13  C   UNL     1      44.925   4.194   9.667  0.00  0.00    +0.000 A 
ATOM     14  C   UNL     1      44.805   2.815   9.819  0.00  0.00    +0.000 A 
ATOM     15  N   UNL     1      45.358   1.929   8.959  0.00  0.00    +0.000 NA
ATOM     16  C   UNL     1      46.042   2.474   7.930  0.00  0.00    +0.000 A 
ATOM     17  C   UNL     1      46.162   3.843   7.760  0.00  0.00    +0.000 A 
ATOM     18  N   UNL     1      45.613   4.734   8.620  0.00  0.00    +0.000 NA
ENDBRANCH  12  13
ENDBRANCH   7  12
ENDBRANCH   1   8
BRANCH   4  19
ATOM     19  C   UNL     1      49.857   9.026  12.914  0.00  0.00    +0.000 C 
BRANCH  19  20
ATOM     20  N   UNL     1      49.360   8.814  14.254  0.00  0.00    +0.000 N 
ATOM     21  C   UNL     1      50.025   8.095  15.214  0.00  0.00    +0.000 C 
ATOM     22  O   UNL     1      51.037   7.446  14.977  0.00  0.00    +0.000 OA
ATOM     23  H   UNL     1      48.590   9.414  14.533  0.00  0.00    +0.000 HD
BRANCH  21  24
ATOM     24  C   UNL     1      49.425   8.122  16.556  0.00  0.00    +0.000 A 
ATOM     25  C   UNL     1      49.547   9.257  17.347  0.00  0.00    +0.000 A 
ATOM     26  S   UNL     1      48.798   9.107  18.871  0.00  0.00    +0.000 S 
ATOM     27  C   UNL     1      48.236   7.543  18.505  0.00  0.00    +0.000 A 
ATOM     28  N   UNL     1      47.473   6.846  19.392  0.00  0.00    +0.000 NA
ATOM     29  C   UNL     1      47.075   5.695  18.964  0.00  0.00    +0.000 A 
ATOM     30  N   UNL     1      47.378   5.171  17.735  0.00  0.00    +0.000 N 
ATOM     31  C   UNL     1      48.208   5.802  16.841  0.00  0.00    +0.000 A 
ATOM     32  O   UNL     1      48.568   5.243  15.811  0.00  0.00    +0.000 OA
ATOM     33  C   UNL     1      48.642   7.126  17.250  0.00  0.00    +0.000 A 
ATOM     34  H   UNL     1      47.063   4.248  17.472  0.00  0.00    +0.000 HD
ENDBRANCH  21  24
ENDBRANCH  19  20
ENDBRANCH   4  19
TORSDOF 6
ENDMDL
MODEL 7
REMARK VINA RESULT:    -7.087      4.682      7.918
REMARK INTER + INTRA:          -9.907
REMARK INTER:                  -8.893
REMARK INTRA:                  -1.014
REMARK UNBOUND:                -0.333
REMARK  Name = 
REMARK  7 active torsions:
REMARK  status: ('A' for Active; 'I' for Inactive)
REMARK    1  A    between atoms: C_1  and  C_2
REMARK    2  A    between atoms: C_2  and  N_3
REMARK    3  A    between atoms: C_2  and  C_26
REMARK    4  A    between atoms: C_4  and  C_6
REMARK    5  A    between atoms: C_9  and  C_10
REMARK    6  A    between atoms: C_10  and  N_11
REMARK    7  A    between atoms: C_12  and  C_14
REMARK                            x       y       z     vdW  Elec       q    Type
REMARK                         _______ _______ _______ _____ _____    ______ ____
ROOT
ATOM      1  C   UNL     1      49.759   9.074  11.522  0.00  0.00    +0.000 C 
ATOM      2  C   UNL     1      49.022   7.743  11.318  0.00  0.00    +0.000 C 
ATOM      3  C   UNL     1      49.000   6.876  12.576  0.00  0.00    +0.000 C 
ATOM      4  C   UNL     1      48.438   7.614  13.800  0.00  0.00    +0.000 C 
ATOM      5  C   UNL     1      49.240   8.901  14.032  0.00  0.00    +0.000 C 
ATOM      6  C   UNL     1      49.290   9.801  12.795  0.00  0.00    +0.000 C 
ENDROOT
BRANCH   1   8
ATOM      7  N   UNL     1      51.762   8.382  10.315  0.00  0.00    +0.000 N 
ATOM      8  C   UNL     1      51.278   8.880  11.499  0.00  0.00    +0.000 C 
ATOM      9  O   UNL     1      52.010   9.142  12.448  0.00  0.00    +0.000 OA
ATOM     10  H   UNL     1      51.157   8.260   9.510  0.00  0.00    +0.000 HD
BRANCH   7  12
ATOM     11  C   UNL     1      53.951   9.310   9.699  0.00  0.00    +0.000 C 
ATOM     12  C   UNL     1      53.169   8.067  10.120  0.00  0.00    +0.000 C 
BRANCH  12  13
ATOM     13  C   UNL     1      53.330   6.982   9.074  0.00  0.00    +0.000 A 
ATOM     14  C   UNL     1      52.556   7.009   7.916  0.00  0.00    +0.000 A 
ATOM     15  N   UNL     1      52.606   6.039   6.974  0.00  0.00    +0.000 NA
ATOM     16  C   UNL     1      53.466   5.030   7.230  0.00  0.00    +0.000 A 
ATOM     17  C   UNL     1      54.249   4.994   8.372  0.00  0.00    +0.000 A 
ATOM     18  N   UNL     1      54.200   5.961   9.319  0.00  0.00    +0.000 NA
ENDBRANCH  12  13
ENDBRANCH   7  12
ENDBRANCH   1   8
BRANCH   4  19
ATOM     19  C   UNL     1      46.928   7.915  13.703  0.00  0.00    +0.000 C 
BRANCH  19  20
ATOM     20  N   UNL     1      46.174   6.757  13.278  0.00  0.00    +0.000 N 
ATOM     21  C   UNL     1      45.338   6.743  12.191  0.00  0.00    +0.000 C 
ATOM     22  O   UNL     1      45.045   7.755  11.564  0.00  0.00    +0.000 OA
ATOM     23  H   UNL     1      46.460   5.875  13.690  0.00  0.00    +0.000 HD
BRANCH  21  24
ATOM     24  C   UNL     1      44.780   5.430  11.837  0.00  0.00    +0.000 A 
ATOM     25  C   UNL     1      43.965   4.758  12.737  0.00  0.00    +0.000 A 
ATOM     26  S   UNL     1      43.416   3.249  12.163  0.00  0.00    +0.000 S 
ATOM     27  C   UNL     1      44.202   3.468  10.669  0.00  0.00    +0.000 A 
ATOM     28  N   UNL     1      44.102   2.536   9.681  0.00  0.00    +0.000 NA
ATOM     29  C   UNL     1      44.706   2.854   8.586  0.00  0.00    +0.000 A 
ATOM     30  N   UNL     1      45.411   4.012   8.390  0.00  0.00    +0.000 N 
ATOM     31  C   UNL     1      45.605   4.941   9.382  0.00  0.00    +0.000 A 
ATOM     32  O   UNL     1      46.356   5.897   9.214  0.00  0.00    +0.000 OA
ATOM     33  C   UNL     1      44.902   4.660  10.621  0.00  0.00    +0.000 A 
ATOM     34  H   UNL     1      45.890   4.187   7.518  0.00  0.00    +0.000 HD
ENDBRANCH  21  24
ENDBRANCH  19  20
ENDBRANCH   4  19
TORSDOF 6
ENDMDL
MODEL 8
REMARK VINA RESULT:    -6.735      3.007      3.912
REMARK INTER + INTRA:          -9.430
REMARK INTER:                  -8.606
REMARK INTRA:                  -0.824
REMARK UNBOUND:                -0.333
REMARK  Name = 
REMARK  7 active torsions:
REMARK  status: ('A' for Active; 'I' for Inactive)
REMARK    1  A    between atoms: C_1  and  C_2
REMARK    2  A    between atoms: C_2  and  N_3
REMARK    3  A    between atoms: C_2  and  C_26
REMARK    4  A    between atoms: C_4  and  C_6
REMARK    5  A    between atoms: C_9  and  C_10
REMARK    6  A    between atoms: C_10  and  N_11
REMARK    7  A    between atoms: C_12  and  C_14
REMARK                            x       y       z     vdW  Elec       q    Type
REMARK                         _______ _______ _______ _____ _____    ______ ____
ROOT
ATOM      1  C   UNL     1      47.384   8.436  12.133  0.00  0.00    +0.000 C 
ATOM      2  C   UNL     1      47.589   9.214  13.441  0.00  0.00    +0.000 C 
ATOM      3  C   UNL     1      47.888   8.306  14.633  0.00  0.00    +0.000 C 
ATOM      4  C   UNL     1      49.074   7.364  14.383  0.00  0.00    +0.000 C 
ATOM      5  C   UNL     1      48.813   6.540  13.115  0.00  0.00    +0.000 C 
ATOM      6  C   UNL     1      48.507   7.410  11.894  0.00  0.00    +0.000 C 
ENDROOT
BRANCH   1   8
ATOM      7  N   UNL     1      45.991   6.515  11.576  0.00  0.00    +0.000 N 
ATOM      8  C   UNL     1      45.997   7.791  12.079  0.00  0.00    +0.000 C 
ATOM      9  O   UNL     1      44.971   8.354  12.450  0.00  0.00    +0.000 OA
ATOM     10  H   UNL     1      46.856   6.030  11.361  0.00  0.00    +0.000 HD
BRANCH   7  12
ATOM     11  C   UNL     1      44.367   5.029  12.666  0.00  0.00    +0.000 C 
ATOM     12  C   UNL     1      44.763   5.758  11.383  0.00  0.00    +0.000 C 
BRANCH  12  13
ATOM     13  C   UNL     1      44.926   4.758  10.256  0.00  0.00    +0.000 A 
ATOM     14  C   UNL     1      45.660   5.099   9.122  0.00  0.00    +0.000 A 
ATOM     15  N   UNL     1      45.791   4.277   8.055  0.00  0.00    +0.000 NA
ATOM     16  C   UNL     1      45.157   3.089   8.162  0.00  0.00    +0.000 A 
ATOM     17  C   UNL     1      44.432   2.732   9.286  0.00  0.00    +0.000 A 
ATOM     18  N   UNL     1      44.296   3.553  10.354  0.00  0.00    +0.000 NA
ENDBRANCH  12  13
ENDBRANCH   7  12
ENDBRANCH   1   8
BRANCH   4  19
ATOM     19  C   UNL     1      50.434   8.087  14.300  0.00  0.00    +0.000 C 
BRANCH  19  20
ATOM     20  N   UNL     1      51.474   7.363  14.994  0.00  0.00    +0.000 N 
ATOM     21  C   UNL     1      51.586   7.304  16.360  0.00  0.00    +0.000 C 
ATOM     22  O   UNL     1      50.896   7.981  17.113  0.00  0.00    +0.000 OA
ATOM     23  H   UNL     1      51.999   6.704  14.429  0.00  0.00    +0.000 HD
BRANCH  21  24
ATOM     24  C   UNL     1      52.621   6.394  16.873  0.00  0.00    +0.000 A 
ATOM     25  C   UNL     1      53.933   6.832  16.988  0.00  0.00    +0.000 A 
ATOM     26  S   UNL     1      54.996   5.643  17.591  0.00  0.00    +0.000 S 
ATOM     27  C   UNL     1      53.729   4.521  17.774  0.00  0.00    +0.000 A 
ATOM     28  N   UNL     1      53.958   3.283  18.291  0.00  0.00    +0.000 NA
ATOM     29  C   UNL     1      52.899   2.555  18.419  0.00  0.00    +0.000 A 
ATOM     30  N   UNL     1      51.635   2.946  18.065  0.00  0.00    +0.000 N 
ATOM     31  C   UNL     1      51.369   4.152  17.467  0.00  0.00    +0.000 A 
ATOM     32  O   UNL     1      50.250   4.411  17.038  0.00  0.00    +0.000 OA
ATOM     33  C   UNL     1      52.517   5.034  17.348  0.00  0.00    +0.000 A 
ATOM     34  H   UNL     1      50.851   2.315  18.160  0.00  0.00    +0.000 HD
ENDBRANCH  21  24
ENDBRANCH  19  20
ENDBRANCH   4  19
TORSDOF 6
ENDMDL
MODEL 9
REMARK VINA RESULT:    -6.702      3.723      9.994
REMARK INTER + INTRA:          -9.387
REMARK INTER:                  -8.482
REMARK INTRA:                  -0.905
REMARK UNBOUND:                -0.333
REMARK  Name = 
REMARK  7 active torsions:
REMARK  status: ('A' for Active; 'I' for Inactive)
REMARK    1  A    between atoms: C_1  and  C_2
REMARK    2  A    between atoms: C_2  and  N_3
REMARK    3  A    between atoms: C_2  and  C_26
REMARK    4  A    between atoms: C_4  and  C_6
REMARK    5  A    between atoms: C_9  and  C_10
REMARK    6  A    between atoms: C_10  and  N_11
REMARK    7  A    between atoms: C_12  and  C_14
REMARK                            x       y       z     vdW  Elec       q    Type
REMARK                         _______ _______ _______ _____ _____    ______ ____
ROOT
ATOM      1  C   UNL     1      50.698   4.641  17.591  0.00  0.00    +0.000 C 
ATOM      2  C   UNL     1      50.133   3.255  17.932  0.00  0.00    +0.000 C 
ATOM      3  C   UNL     1      48.775   3.321  18.631  0.00  0.00    +0.000 C 
ATOM      4  C   UNL     1      47.740   4.139  17.847  0.00  0.00    +0.000 C 
ATOM      5  C   UNL     1      48.293   5.546  17.585  0.00  0.00    +0.000 C 
ATOM      6  C   UNL     1      49.655   5.528  16.887  0.00  0.00    +0.000 C 
ENDROOT
BRANCH   1   8
ATOM      7  N   UNL     1      51.344   6.691  18.742  0.00  0.00    +0.000 N 
ATOM      8  C   UNL     1      51.289   5.323  18.827  0.00  0.00    +0.000 C 
ATOM      9  O   UNL     1      51.684   4.712  19.816  0.00  0.00    +0.000 OA
ATOM     10  H   UNL     1      50.928   7.186  17.959  0.00  0.00    +0.000 HD
BRANCH   7  12
ATOM     11  C   UNL     1      51.008   8.677  20.147  0.00  0.00    +0.000 C 
ATOM     12  C   UNL     1      51.932   7.515  19.787  0.00  0.00    +0.000 C 
BRANCH  12  13
ATOM     13  C   UNL     1      53.280   8.050  19.346  0.00  0.00    +0.000 A 
ATOM     14  C   UNL     1      54.434   7.304  19.572  0.00  0.00    +0.000 A 
ATOM     15  N   UNL     1      55.673   7.751  19.260  0.00  0.00    +0.000 NA
ATOM     16  C   UNL     1      55.719   8.982  18.708  0.00  0.00    +0.000 A 
ATOM     17  C   UNL     1      54.579   9.732  18.468  0.00  0.00    +0.000 A 
ATOM     18  N   UNL     1      53.339   9.290  18.781  0.00  0.00    +0.000 NA
ENDBRANCH  12  13
ENDBRANCH   7  12
ENDBRANCH   1   8
BRANCH   4  19
ATOM     19  C   UNL     1      47.288   3.471  16.532  0.00  0.00    +0.000 C 
BRANCH  19  20
ATOM     20  N   UNL     1      46.809   4.439  15.572  0.00  0.00    +0.000 N 
ATOM     21  C   UNL     1      46.727   4.206  14.223  0.00  0.00    +0.000 C 
ATOM     22  O   UNL     1      47.188   3.202  13.693  0.00  0.00    +0.000 OA
ATOM     23  H   UNL     1      46.318   5.236  15.965  0.00  0.00    +0.000 HD
BRANCH  21  24
ATOM     24  C   UNL     1      46.073   5.262  13.436  0.00  0.00    +0.000 A 
ATOM     25  C   UNL     1      46.744   6.451  13.180  0.00  0.00    +0.000 A 
ATOM     26  S   UNL     1      45.832   7.561  12.262  0.00  0.00    +0.000 S 
ATOM     27  C   UNL     1      44.533   6.469  12.125  0.00  0.00    +0.000 A 
ATOM     28  N   UNL     1      43.419   6.791  11.412  0.00  0.00    +0.000 NA
ATOM     29  C   UNL     1      42.536   5.851  11.351  0.00  0.00    +0.000 A 
ATOM     30  N   UNL     1      42.659   4.624  11.946  0.00  0.00    +0.000 N 
ATOM     31  C   UNL     1      43.727   4.285  12.739  0.00  0.00    +0.000 A 
ATOM     32  O   UNL     1      43.738   3.232  13.367  0.00  0.00    +0.000 OA
ATOM     33  C   UNL     1      44.777   5.286  12.800  0.00  0.00    +0.000 A 
ATOM     34  H   UNL     1      41.915   3.942  11.888  0.00  0.00    +0.000 HD
ENDBRANCH  21  24
ENDBRANCH  19  20
ENDBRANCH   4  19
TORSDOF 6
ENDMDL
