MODEL 1
REMARK VINA RESULT:    -8.513      0.000      0.000
REMARK INTER + INTRA:         -12.874
REMARK INTER:                 -11.747
REMARK INTRA:                  -1.126
REMARK UNBOUND:                -1.126
REMARK  Name = 
REMARK  7 active torsions:
REMARK  status: ('A' for Active; 'I' for Inactive)
REMARK    1  A    between atoms: C_2  and  C_20
REMARK    2  A    between atoms: N_3  and  C_4
REMARK    3  A    between atoms: C_4  and  C_5
REMARK    4  A    between atoms: C_8  and  C_9
REMARK    5  A    between atoms: C_9  and  C_10
REMARK    6  A    between atoms: C_10  and  O_11
REMARK    7  A    between atoms: C_10  and  C_12
REMARK                            x       y       z     vdW  Elec       q    Type
REMARK                         _______ _______ _______ _____ _____    ______ ____
ROOT
ATOM      1  C   UNL     1      46.300   7.740  12.823  0.00  0.00    +0.000 C 
ENDROOT
BRANCH   1   2
ATOM      2  C   UNL     1      45.742   6.696  11.896  0.00  0.00    +0.000 A 
ATOM      3  C   UNL     1      46.252   6.548  10.612  0.00  0.00    +0.000 A 
ATOM      4  N   UNL     1      45.806   5.609   9.745  0.00  0.00    +0.000 NA
ATOM      5  C   UNL     1      44.825   4.792  10.203  0.00  0.00    +0.000 A 
ATOM      6  C   UNL     1      44.324   4.931  11.494  0.00  0.00    +0.000 A 
ATOM      7  N   UNL     1      44.766   5.873  12.362  0.00  0.00    +0.000 NA
BRANCH   5   8
ATOM      8  C   UNL     1      44.353   3.706   9.274  0.00  0.00    +0.000 C 
BRANCH   8   9
ATOM      9  C   UNL     1      45.274   2.474   9.233  0.00  0.00    +0.000 C 
BRANCH   9  10
ATOM     10  C   UNL     1      46.106   2.408   7.975  0.00  0.00    +0.000 A 
ATOM     11  C   UNL     1      46.123   3.435   7.023  0.00  0.00    +0.000 A 
ATOM     12  C   UNL     1      46.884   3.297   5.865  0.00  0.00    +0.000 A 
ATOM     13  C   UNL     1      47.616   2.135   5.694  0.00  0.00    +0.000 A 
ATOM     14  N   UNL     1      47.638   1.128   6.591  0.00  0.00    +0.000 NA
ATOM     15  C   UNL     1      46.880   1.284   7.700  0.00  0.00    +0.000 A 
ENDBRANCH   9  10
BRANCH   9  16
ATOM     16  O   UNL     1      44.536   1.257   9.334  0.00  0.00    +0.000 OA
ATOM     17  H   UNL     1      44.425   0.894   8.439  0.00  0.00    +0.000 HD
ENDBRANCH   9  16
ENDBRANCH   8   9
ENDBRANCH   5   8
ENDBRANCH   1   2
BRANCH   1  20
ATOM     18  O   UNL     1      48.902   6.676  13.008  0.00  0.00    +0.000 OA
ATOM     19  C   UNL     1      48.200   6.699  14.012  0.00  0.00    +0.000 C 
ATOM     20  N   UNL     1      46.912   7.160  13.993  0.00  0.00    +0.000 N 
ATOM     21  H   UNL     1      46.369   7.199  14.847  0.00  0.00    +0.000 HD
BRANCH  19  22
ATOM     22  C   UNL     1      48.675   6.191  15.303  0.00  0.00    +0.000 A 
ATOM     23  C   UNL     1      49.708   6.831  15.972  0.00  0.00    +0.000 A 
ATOM     24  S   UNL     1      50.129   6.082  17.446  0.00  0.00    +0.000 S 
ATOM     25  C   UNL     1      48.913   4.904  17.260  0.00  0.00    +0.000 A 
ATOM     26  N   UNL     1      48.715   3.944  18.204  0.00  0.00    +0.000 NA
ATOM     27  C   UNL     1      47.733   3.144  17.951  0.00  0.00    +0.000 A 
ATOM     28  N   UNL     1      46.935   3.211  16.839  0.00  0.00    +0.000 N 
ATOM     29  C   UNL     1      47.132   4.127  15.833  0.00  0.00    +0.000 A 
ATOM     30  O   UNL     1      46.458   4.091  14.809  0.00  0.00    +0.000 OA
ATOM     31  C   UNL     1      48.208   5.069  16.082  0.00  0.00    +0.000 A 
ATOM     32  H   UNL     1      46.195   2.541  16.688  0.00  0.00    +0.000 HD
ENDBRANCH  19  22
ENDBRANCH   1  20
TORSDOF 7
ENDMDL
MODEL 2
REMARK VINA RESULT:    -8.265      2.537      4.094
REMARK INTER + INTRA:         -12.531
REMARK INTER:                 -11.401
REMARK INTRA:                  -1.130
REMARK UNBOUND:                -1.126
REMARK  Name = 
REMARK  7 active torsions:
REMARK  status: ('A' for Active; 'I' for Inactive)
REMARK    1  A    between atoms: C_2  and  C_20
REMARK    2  A    between atoms: N_3  and  C_4
REMARK    3  A    between atoms: C_4  and  C_5
REMARK    4  A    between atoms: C_8  and  C_9
REMARK    5  A    between atoms: C_9  and  C_10
REMARK    6  A    between atoms: C_10  and  O_11
REMARK    7  A    between atoms: C_10  and  C_12
REMARK                            x       y       z     vdW  Elec       q    Type
REMARK                         _______ _______ _______ _____ _____    ______ ____
ROOT
ATOM      1  C   UNL     1      47.079   4.900  14.622  0.00  0.00    +0.000 C 
ENDROOT
BRANCH   1   2
ATOM      2  C   UNL     1      46.259   4.591  13.400  0.00  0.00    +0.000 A 
ATOM      3  C   UNL     1      45.814   5.615  12.573  0.00  0.00    +0.000 A 
ATOM      4  N   UNL     1      45.095   5.393  11.447  0.00  0.00    +0.000 NA
ATOM      5  C   UNL     1      44.835   4.095  11.152  0.00  0.00    +0.000 A 
ATOM      6  C   UNL     1      45.293   3.069  11.973  0.00  0.00    +0.000 A 
ATOM      7  N   UNL     1      46.008   3.289  13.102  0.00  0.00    +0.000 NA
BRANCH   5   8
ATOM      8  C   UNL     1      44.084   3.823   9.876  0.00  0.00    +0.000 C 
BRANCH   8   9
ATOM      9  C   UNL     1      44.847   4.230   8.603  0.00  0.00    +0.000 C 
BRANCH   9  10
ATOM     10  C   UNL     1      45.758   3.139   8.093  0.00  0.00    +0.000 A 
ATOM     11  C   UNL     1      46.757   3.370   7.140  0.00  0.00    +0.000 A 
ATOM     12  C   UNL     1      47.541   2.312   6.684  0.00  0.00    +0.000 A 
ATOM     13  C   UNL     1      47.306   1.050   7.201  0.00  0.00    +0.000 A 
ATOM     14  N   UNL     1      46.364   0.786   8.130  0.00  0.00    +0.000 NA
ATOM     15  C   UNL     1      45.610   1.829   8.545  0.00  0.00    +0.000 A 
ENDBRANCH   9  10
BRANCH   9  16
ATOM     16  O   UNL     1      45.639   5.398   8.811  0.00  0.00    +0.000 OA
ATOM     17  H   UNL     1      45.067   6.091   9.183  0.00  0.00    +0.000 HD
ENDBRANCH   9  16
ENDBRANCH   8   9
ENDBRANCH   5   8
ENDBRANCH   1   2
BRANCH   1  20
ATOM     18  O   UNL     1      49.426   5.863  15.847  0.00  0.00    +0.000 OA
ATOM     19  C   UNL     1      48.723   6.646  15.220  0.00  0.00    +0.000 C 
ATOM     20  N   UNL     1      47.547   6.265  14.633  0.00  0.00    +0.000 N 
ATOM     21  H   UNL     1      47.006   6.927  14.091  0.00  0.00    +0.000 HD
BRANCH  19  22
ATOM     22  C   UNL     1      49.068   8.065  15.087  0.00  0.00    +0.000 A 
ATOM     23  C   UNL     1      49.278   8.845  16.215  0.00  0.00    +0.000 A 
ATOM     24  S   UNL     1      49.651  10.470  15.857  0.00  0.00    +0.000 S 
ATOM     25  C   UNL     1      49.588  10.175  14.181  0.00  0.00    +0.000 A 
ATOM     26  N   UNL     1      49.836  11.166  13.282  0.00  0.00    +0.000 NA
ATOM     27  C   UNL     1      49.793  10.789  12.048  0.00  0.00    +0.000 A 
ATOM     28  N   UNL     1      49.520   9.514  11.628  0.00  0.00    +0.000 N 
ATOM     29  C   UNL     1      49.209   8.493  12.495  0.00  0.00    +0.000 A 
ATOM     30  O   UNL     1      48.874   7.391  12.074  0.00  0.00    +0.000 OA
ATOM     31  C   UNL     1      49.270   8.859  13.898  0.00  0.00    +0.000 A 
ATOM     32  H   UNL     1      49.480   9.287  10.645  0.00  0.00    +0.000 HD
ENDBRANCH  19  22
ENDBRANCH   1  20
TORSDOF 7
ENDMDL
MODEL 3
REMARK VINA RESULT:    -7.876      1.541      1.798
REMARK INTER + INTRA:         -11.995
REMARK INTER:                 -10.849
REMARK INTRA:                  -1.146
REMARK UNBOUND:                -1.126
REMARK  Name = 
REMARK  7 active torsions:
REMARK  status: ('A' for Active; 'I' for Inactive)
REMARK    1  A    between atoms: C_2  and  C_20
REMARK    2  A    between atoms: N_3  and  C_4
REMARK    3  A    between atoms: C_4  and  C_5
REMARK    4  A    between atoms: C_8  and  C_9
REMARK    5  A    between atoms: C_9  and  C_10
REMARK    6  A    between atoms: C_10  and  O_11
REMARK    7  A    between atoms: C_10  and  C_12
REMARK                            x       y       z     vdW  Elec       q    Type
REMARK                         _______ _______ _______ _____ _____    ______ ____
ROOT
ATOM      1  C   UNL     1      47.520   7.818  13.622  0.00  0.00    +0.000 C 
ENDROOT
BRANCH   1   2
ATOM      2  C   UNL     1      46.724   6.851  12.790  0.00  0.00    +0.000 A 
ATOM      3  C   UNL     1      45.765   7.314  11.897  0.00  0.00    +0.000 A 
ATOM      4  N   UNL     1      45.038   6.492  11.105  0.00  0.00    +0.000 NA
ATOM      5  C   UNL     1      45.304   5.166  11.218  0.00  0.00    +0.000 A 
ATOM      6  C   UNL     1      46.273   4.704  12.102  0.00  0.00    +0.000 A 
ATOM      7  N   UNL     1      46.999   5.524  12.899  0.00  0.00    +0.000 NA
BRANCH   5   8
ATOM      8  C   UNL     1      44.545   4.238  10.306  0.00  0.00    +0.000 C 
BRANCH   8   9
ATOM      9  C   UNL     1      44.931   4.366   8.822  0.00  0.00    +0.000 C 
BRANCH   9  10
ATOM     10  C   UNL     1      45.670   3.155   8.305  0.00  0.00    +0.000 A 
ATOM     11  C   UNL     1      46.621   3.228   7.280  0.00  0.00    +0.000 A 
ATOM     12  C   UNL     1      47.241   2.068   6.822  0.00  0.00    +0.000 A 
ATOM     13  C   UNL     1      46.896   0.863   7.410  0.00  0.00    +0.000 A 
ATOM     14  N   UNL     1      45.996   0.749   8.409  0.00  0.00    +0.000 NA
ATOM     15  C   UNL     1      45.401   1.890   8.824  0.00  0.00    +0.000 A 
ENDBRANCH   9  10
BRANCH   9  16
ATOM     16  O   UNL     1      45.748   5.511   8.584  0.00  0.00    +0.000 OA
ATOM     17  H   UNL     1      45.405   5.971   7.799  0.00  0.00    +0.000 HD
ENDBRANCH   9  16
ENDBRANCH   8   9
ENDBRANCH   5   8
ENDBRANCH   1   2
BRANCH   1  20
ATOM     18  O   UNL     1      50.075   7.074  14.548  0.00  0.00    +0.000 OA
ATOM     19  C   UNL     1      49.120   6.980  15.310  0.00  0.00    +0.000 C 
ATOM     20  N   UNL     1      47.843   7.281  14.922  0.00  0.00    +0.000 N 
ATOM     21  H   UNL     1      47.079   7.227  15.585  0.00  0.00    +0.000 HD
BRANCH  19  22
ATOM     22  C   UNL     1      49.268   6.495  16.685  0.00  0.00    +0.000 A 
ATOM     23  C   UNL     1      49.884   7.285  17.646  0.00  0.00    +0.000 A 
ATOM     24  S   UNL     1      49.977   6.541  19.178  0.00  0.00    +0.000 S 
ATOM     25  C   UNL     1      49.157   5.157  18.619  0.00  0.00    +0.000 A 
ATOM     26  N   UNL     1      48.885   4.117  19.453  0.00  0.00    +0.000 NA
ATOM     27  C   UNL     1      48.223   3.153  18.905  0.00  0.00    +0.000 A 
ATOM     28  N   UNL     1      47.813   3.131  17.597  0.00  0.00    +0.000 N 
ATOM     29  C   UNL     1      48.111   4.132  16.704  0.00  0.00    +0.000 A 
ATOM     30  O   UNL     1      47.811   4.029  15.519  0.00  0.00    +0.000 OA
ATOM     31  C   UNL     1      48.832   5.253  17.279  0.00  0.00    +0.000 A 
ATOM     32  H   UNL     1      47.315   2.337  17.222  0.00  0.00    +0.000 HD
ENDBRANCH  19  22
ENDBRANCH   1  20
TORSDOF 7
ENDMDL
MODEL 4
REMARK VINA RESULT:    -7.822      2.740      3.407
REMARK INTER + INTRA:         -11.921
REMARK INTER:                 -10.961
REMARK INTRA:                  -0.960
REMARK UNBOUND:                -1.126
REMARK  Name = 
REMARK  7 active torsions:
REMARK  status: ('A' for Active; 'I' for Inactive)
REMARK    1  A    between atoms: C_2  and  C_20
REMARK    2  A    between atoms: N_3  and  C_4
REMARK    3  A    between atoms: C_4  and  C_5
REMARK    4  A    between atoms: C_8  and  C_9
REMARK    5  A    between atoms: C_9  and  C_10
REMARK    6  A    between atoms: C_10  and  O_11
REMARK    7  A    between atoms: C_10  and  C_12
REMARK                            x       y       z     vdW  Elec       q    Type
REMARK                         _______ _______ _______ _____ _____    ______ ____
ROOT
ATOM      1  C   UNL     1      47.154   4.303  15.510  0.00  0.00    +0.000 C 
ENDROOT
BRANCH   1   2
ATOM      2  C   UNL     1      46.639   4.569  14.123  0.00  0.00    +0.000 A 
ATOM      3  C   UNL     1      47.054   5.695  13.421  0.00  0.00    +0.000 A 
ATOM      4  N   UNL     1      46.643   5.970  12.161  0.00  0.00    +0.000 NA
ATOM      5  C   UNL     1      45.799   5.070  11.598  0.00  0.00    +0.000 A 
ATOM      6  C   UNL     1      45.394   3.937  12.296  0.00  0.00    +0.000 A 
ATOM      7  N   UNL     1      45.800   3.661  13.559  0.00  0.00    +0.000 NA
BRANCH   5   8
ATOM      8  C   UNL     1      45.373   5.329  10.178  0.00  0.00    +0.000 C 
BRANCH   8   9
ATOM      9  C   UNL     1      44.612   4.160   9.530  0.00  0.00    +0.000 C 
BRANCH   9  10
ATOM     10  C   UNL     1      45.502   3.278   8.687  0.00  0.00    +0.000 A 
ATOM     11  C   UNL     1      46.312   3.780   7.661  0.00  0.00    +0.000 A 
ATOM     12  C   UNL     1      47.084   2.908   6.895  0.00  0.00    +0.000 A 
ATOM     13  C   UNL     1      47.029   1.555   7.184  0.00  0.00    +0.000 A 
ATOM     14  N   UNL     1      46.274   1.032   8.172  0.00  0.00    +0.000 NA
ATOM     15  C   UNL     1      45.526   1.901   8.890  0.00  0.00    +0.000 A 
ENDBRANCH   9  10
BRANCH   9  16
ATOM     16  O   UNL     1      43.542   4.617   8.704  0.00  0.00    +0.000 OA
ATOM     17  H   UNL     1      42.812   3.978   8.770  0.00  0.00    +0.000 HD
ENDBRANCH   9  16
ENDBRANCH   8   9
ENDBRANCH   5   8
ENDBRANCH   1   2
BRANCH   1  20
ATOM     18  O   UNL     1      49.683   4.601  16.715  0.00  0.00    +0.000 OA
ATOM     19  C   UNL     1      48.934   5.570  16.666  0.00  0.00    +0.000 C 
ATOM     20  N   UNL     1      47.675   5.494  16.136  0.00  0.00    +0.000 N 
ATOM     21  H   UNL     1      47.093   6.321  16.077  0.00  0.00    +0.000 HD
BRANCH  19  22
ATOM     22  C   UNL     1      49.316   6.875  17.212  0.00  0.00    +0.000 A 
ATOM     23  C   UNL     1      50.322   7.620  16.614  0.00  0.00    +0.000 A 
ATOM     24  S   UNL     1      50.633   9.100  17.404  0.00  0.00    +0.000 S 
ATOM     25  C   UNL     1      49.403   8.813  18.546  0.00  0.00    +0.000 A 
ATOM     26  N   UNL     1      49.124   9.721  19.520  0.00  0.00    +0.000 NA
ATOM     27  C   UNL     1      48.140   9.391  20.290  0.00  0.00    +0.000 A 
ATOM     28  N   UNL     1      47.414   8.235  20.179  0.00  0.00    +0.000 N 
ATOM     29  C   UNL     1      47.694   7.264  19.247  0.00  0.00    +0.000 A 
ATOM     30  O   UNL     1      47.083   6.200  19.243  0.00  0.00    +0.000 OA
ATOM     31  C   UNL     1      48.775   7.599  18.339  0.00  0.00    +0.000 A 
ATOM     32  H   UNL     1      46.668   8.024  20.826  0.00  0.00    +0.000 HD
ENDBRANCH  19  22
ENDBRANCH   1  20
TORSDOF 7
ENDMDL
MODEL 5
REMARK VINA RESULT:    -7.709      2.698      3.849
REMARK INTER + INTRA:         -11.765
REMARK INTER:                 -10.921
REMARK INTRA:                  -0.844
REMARK UNBOUND:                -1.126
REMARK  Name = 
REMARK  7 active torsions:
REMARK  status: ('A' for Active; 'I' for Inactive)
REMARK    1  A    between atoms: C_2  and  C_20
REMARK    2  A    between atoms: N_3  and  C_4
REMARK    3  A    between atoms: C_4  and  C_5
REMARK    4  A    between atoms: C_8  and  C_9
REMARK    5  A    between atoms: C_9  and  C_10
REMARK    6  A    between atoms: C_10  and  O_11
REMARK    7  A    between atoms: C_10  and  C_12
REMARK                            x       y       z     vdW  Elec       q    Type
REMARK                         _______ _______ _______ _____ _____    ______ ____
ROOT
ATOM      1  C   UNL     1      47.518   4.033  15.643  0.00  0.00    +0.000 C 
ENDROOT
BRANCH   1   2
ATOM      2  C   UNL     1      46.896   4.393  14.323  0.00  0.00    +0.000 A 
ATOM      3  C   UNL     1      47.109   5.647  13.762  0.00  0.00    +0.000 A 
ATOM      4  N   UNL     1      46.595   6.016  12.565  0.00  0.00    +0.000 NA
ATOM      5  C   UNL     1      45.856   5.080  11.919  0.00  0.00    +0.000 A 
ATOM      6  C   UNL     1      45.654   3.820  12.474  0.00  0.00    +0.000 A 
ATOM      7  N   UNL     1      46.163   3.450  13.673  0.00  0.00    +0.000 NA
BRANCH   5   8
ATOM      8  C   UNL     1      45.321   5.451  10.562  0.00  0.00    +0.000 C 
BRANCH   8   9
ATOM      9  C   UNL     1      44.525   4.328   9.874  0.00  0.00    +0.000 C 
BRANCH   9  10
ATOM     10  C   UNL     1      45.374   3.494   8.945  0.00  0.00    +0.000 A 
ATOM     11  C   UNL     1      46.114   4.048   7.893  0.00  0.00    +0.000 A 
ATOM     12  C   UNL     1      46.849   3.219   7.048  0.00  0.00    +0.000 A 
ATOM     13  C   UNL     1      46.829   1.856   7.285  0.00  0.00    +0.000 A 
ATOM     14  N   UNL     1      46.142   1.282   8.294  0.00  0.00    +0.000 NA
ATOM     15  C   UNL     1      45.427   2.110   9.090  0.00  0.00    +0.000 A 
ENDBRANCH   9  10
BRANCH   9  16
ATOM     16  O   UNL     1      43.427   4.840   9.122  0.00  0.00    +0.000 OA
ATOM     17  H   UNL     1      43.425   5.809   9.207  0.00  0.00    +0.000 HD
ENDBRANCH   9  16
ENDBRANCH   8   9
ENDBRANCH   5   8
ENDBRANCH   1   2
BRANCH   1  20
ATOM     18  O   UNL     1      49.754   5.400  16.679  0.00  0.00    +0.000 OA
ATOM     19  C   UNL     1      48.632   5.773  17.000  0.00  0.00    +0.000 C 
ATOM     20  N   UNL     1      47.499   5.135  16.574  0.00  0.00    +0.000 N 
ATOM     21  H   UNL     1      46.584   5.488  16.827  0.00  0.00    +0.000 HD
BRANCH  19  22
ATOM     22  C   UNL     1      48.419   6.907  17.904  0.00  0.00    +0.000 A 
ATOM     23  C   UNL     1      48.349   6.709  19.275  0.00  0.00    +0.000 A 
ATOM     24  S   UNL     1      48.081   8.145  20.156  0.00  0.00    +0.000 S 
ATOM     25  C   UNL     1      48.094   9.085  18.737  0.00  0.00    +0.000 A 
ATOM     26  N   UNL     1      47.935  10.436  18.787  0.00  0.00    +0.000 NA
ATOM     27  C   UNL     1      48.008  11.024  17.639  0.00  0.00    +0.000 A 
ATOM     28  N   UNL     1      48.220  10.386  16.446  0.00  0.00    +0.000 N 
ATOM     29  C   UNL     1      48.332   9.020  16.338  0.00  0.00    +0.000 A 
ATOM     30  O   UNL     1      48.423   8.480  15.240  0.00  0.00    +0.000 OA
ATOM     31  C   UNL     1      48.283   8.314  17.605  0.00  0.00    +0.000 A 
ATOM     32  H   UNL     1      48.246  10.901  15.577  0.00  0.00    +0.000 HD
ENDBRANCH  19  22
ENDBRANCH   1  20
TORSDOF 7
ENDMDL
MODEL 6
REMARK VINA RESULT:    -7.201      3.385      7.980
REMARK INTER + INTRA:         -11.063
REMARK INTER:                  -9.709
REMARK INTRA:                  -1.355
REMARK UNBOUND:                -1.126
REMARK  Name = 
REMARK  7 active torsions:
REMARK  status: ('A' for Active; 'I' for Inactive)
REMARK    1  A    between atoms: C_2  and  C_20
REMARK    2  A    between atoms: N_3  and  C_4
REMARK    3  A    between atoms: C_4  and  C_5
REMARK    4  A    between atoms: C_8  and  C_9
REMARK    5  A    between atoms: C_9  and  C_10
REMARK    6  A    between atoms: C_10  and  O_11
REMARK    7  A    between atoms: C_10  and  C_12
REMARK                            x       y       z     vdW  Elec       q    Type
REMARK                         _______ _______ _______ _____ _____    ______ ____
ROOT
ATOM      1  C   UNL     1      47.813   8.277  12.339  0.00  0.00    +0.000 C 
ENDROOT
BRANCH   1   2
ATOM      2  C   UNL     1      48.349   8.020  13.720  0.00  0.00    +0.000 A 
ATOM      3  C   UNL     1      47.969   8.828  14.785  0.00  0.00    +0.000 A 
ATOM      4  N   UNL     1      48.400   8.627  16.053  0.00  0.00    +0.000 NA
ATOM      5  C   UNL     1      49.227   7.569  16.241  0.00  0.00    +0.000 A 
ATOM      6  C   UNL     1      49.595   6.751  15.178  0.00  0.00    +0.000 A 
ATOM      7  N   UNL     1      49.170   6.953  13.907  0.00  0.00    +0.000 NA
BRANCH   5   8
ATOM      8  C   UNL     1      49.673   7.295  17.653  0.00  0.00    +0.000 C 
BRANCH   8   9
ATOM      9  C   UNL     1      48.640   6.530  18.498  0.00  0.00    +0.000 C 
BRANCH   9  10
ATOM     10  C   UNL     1      48.420   5.117  18.014  0.00  0.00    +0.000 A 
ATOM     11  C   UNL     1      49.467   4.203  17.843  0.00  0.00    +0.000 A 
ATOM     12  C   UNL     1      49.201   2.924  17.358  0.00  0.00    +0.000 A 
ATOM     13  C   UNL     1      47.890   2.592  17.065  0.00  0.00    +0.000 A 
ATOM     14  N   UNL     1      46.850   3.437  17.228  0.00  0.00    +0.000 NA
ATOM     15  C   UNL     1      47.140   4.675  17.688  0.00  0.00    +0.000 A 
ENDBRANCH   9  10
BRANCH   9  16
ATOM     16  O   UNL     1      47.375   7.190  18.512  0.00  0.00    +0.000 OA
ATOM     17  H   UNL     1      47.121   7.382  17.593  0.00  0.00    +0.000 HD
ENDBRANCH   9  16
ENDBRANCH   8   9
ENDBRANCH   5   8
ENDBRANCH   1   2
BRANCH   1  20
ATOM     18  O   UNL     1      45.126   7.995  11.542  0.00  0.00    +0.000 OA
ATOM     19  C   UNL     1      45.897   7.059  11.364  0.00  0.00    +0.000 C 
ATOM     20  N   UNL     1      47.205   7.103  11.762  0.00  0.00    +0.000 N 
ATOM     21  H   UNL     1      47.827   6.327  11.570  0.00  0.00    +0.000 HD
BRANCH  19  22
ATOM     22  C   UNL     1      45.463   5.801  10.749  0.00  0.00    +0.000 A 
ATOM     23  C   UNL     1      45.809   5.504   9.438  0.00  0.00    +0.000 A 
ATOM     24  S   UNL     1      45.197   4.006   8.897  0.00  0.00    +0.000 S 
ATOM     25  C   UNL     1      44.486   3.686  10.411  0.00  0.00    +0.000 A 
ATOM     26  N   UNL     1      43.807   2.528  10.637  0.00  0.00    +0.000 NA
ATOM     27  C   UNL     1      43.357   2.401  11.841  0.00  0.00    +0.000 A 
ATOM     28  N   UNL     1      43.520   3.327  12.838  0.00  0.00    +0.000 N 
ATOM     29  C   UNL     1      44.150   4.533  12.643  0.00  0.00    +0.000 A 
ATOM     30  O   UNL     1      44.188   5.374  13.534  0.00  0.00    +0.000 OA
ATOM     31  C   UNL     1      44.698   4.713  11.311  0.00  0.00    +0.000 A 
ATOM     32  H   UNL     1      43.125   3.177  13.756  0.00  0.00    +0.000 HD
ENDBRANCH  19  22
ENDBRANCH   1  20
TORSDOF 7
ENDMDL
MODEL 7
REMARK VINA RESULT:    -7.122      2.868      8.362
REMARK INTER + INTRA:         -10.955
REMARK INTER:                  -9.599
REMARK INTRA:                  -1.356
REMARK UNBOUND:                -1.126
REMARK  Name = 
REMARK  7 active torsions:
REMARK  status: ('A' for Active; 'I' for Inactive)
REMARK    1  A    between atoms: C_2  and  C_20
REMARK    2  A    between atoms: N_3  and  C_4
REMARK    3  A    between atoms: C_4  and  C_5
REMARK    4  A    between atoms: C_8  and  C_9
REMARK    5  A    between atoms: C_9  and  C_10
REMARK    6  A    between atoms: C_10  and  O_11
REMARK    7  A    between atoms: C_10  and  C_12
REMARK                            x       y       z     vdW  Elec       q    Type
REMARK                         _______ _______ _______ _____ _____    ______ ____
ROOT
ATOM      1  C   UNL     1      47.612   7.660  12.158  0.00  0.00    +0.000 C 
ENDROOT
BRANCH   1   2
ATOM      2  C   UNL     1      48.157   7.649  13.559  0.00  0.00    +0.000 A 
ATOM      3  C   UNL     1      47.762   8.615  14.476  0.00  0.00    +0.000 A 
ATOM      4  N   UNL     1      48.201   8.639  15.757  0.00  0.00    +0.000 NA
ATOM      5  C   UNL     1      49.052   7.645  16.114  0.00  0.00    +0.000 A 
ATOM      6  C   UNL     1      49.436   6.670  15.200  0.00  0.00    +0.000 A 
ATOM      7  N   UNL     1      49.003   6.647  13.916  0.00  0.00    +0.000 NA
BRANCH   5   8
ATOM      8  C   UNL     1      49.508   7.621  17.549  0.00  0.00    +0.000 C 
BRANCH   8   9
ATOM      9  C   UNL     1      48.542   6.895  18.500  0.00  0.00    +0.000 C 
BRANCH   9  10
ATOM     10  C   UNL     1      48.366   5.436  18.153  0.00  0.00    +0.000 A 
ATOM     11  C   UNL     1      49.426   4.521  18.167  0.00  0.00    +0.000 A 
ATOM     12  C   UNL     1      49.205   3.195  17.800  0.00  0.00    +0.000 A 
ATOM     13  C   UNL     1      47.923   2.819  17.436  0.00  0.00    +0.000 A 
ATOM     14  N   UNL     1      46.872   3.664  17.423  0.00  0.00    +0.000 NA
ATOM     15  C   UNL     1      47.119   4.948  17.771  0.00  0.00    +0.000 A 
ENDBRANCH   9  10
BRANCH   9  16
ATOM     16  O   UNL     1      47.250   7.501  18.507  0.00  0.00    +0.000 OA
ATOM     17  H   UNL     1      47.356   8.445  18.298  0.00  0.00    +0.000 HD
ENDBRANCH   9  16
ENDBRANCH   8   9
ENDBRANCH   5   8
ENDBRANCH   1   2
BRANCH   1  20
ATOM     18  O   UNL     1      44.854   7.260  12.569  0.00  0.00    +0.000 OA
ATOM     19  C   UNL     1      45.510   6.365  12.049  0.00  0.00    +0.000 C 
ATOM     20  N   UNL     1      46.861   6.466  11.855  0.00  0.00    +0.000 N 
ATOM     21  H   UNL     1      47.370   5.724  11.391  0.00  0.00    +0.000 HD
BRANCH  19  22
ATOM     22  C   UNL     1      44.903   5.097  11.635  0.00  0.00    +0.000 A 
ATOM     23  C   UNL     1      44.108   4.378  12.517  0.00  0.00    +0.000 A 
ATOM     24  S   UNL     1      43.508   2.923  11.858  0.00  0.00    +0.000 S 
ATOM     25  C   UNL     1      44.254   3.228  10.359  0.00  0.00    +0.000 A 
ATOM     26  N   UNL     1      44.120   2.361   9.318  0.00  0.00    +0.000 NA
ATOM     27  C   UNL     1      44.705   2.740   8.230  0.00  0.00    +0.000 A 
ATOM     28  N   UNL     1      45.417   3.902   8.089  0.00  0.00    +0.000 N 
ATOM     29  C   UNL     1      45.626   4.781   9.126  0.00  0.00    +0.000 A 
ATOM     30  O   UNL     1      46.352   5.760   8.984  0.00  0.00    +0.000 OA
ATOM     31  C   UNL     1      44.966   4.413  10.365  0.00  0.00    +0.000 A 
ATOM     32  H   UNL     1      45.870   4.132   7.216  0.00  0.00    +0.000 HD
ENDBRANCH  19  22
ENDBRANCH   1  20
TORSDOF 7
ENDMDL
MODEL 8
REMARK VINA RESULT:    -6.827      2.821      4.273
REMARK INTER + INTRA:         -10.547
REMARK INTER:                  -9.563
REMARK INTRA:                  -0.985
REMARK UNBOUND:                -1.126
REMARK  Name = 
REMARK  7 active torsions:
REMARK  status: ('A' for Active; 'I' for Inactive)
REMARK    1  A    between atoms: C_2  and  C_20
REMARK    2  A    between atoms: N_3  and  C_4
REMARK    3  A    between atoms: C_4  and  C_5
REMARK    4  A    between atoms: C_8  and  C_9
REMARK    5  A    between atoms: C_9  and  C_10
REMARK    6  A    between atoms: C_10  and  O_11
REMARK    7  A    between atoms: C_10  and  C_12
REMARK                            x       y       z     vdW  Elec       q    Type
REMARK                         _______ _______ _______ _____ _____    ______ ____
ROOT
ATOM      1  C   UNL     1      46.737   6.812  13.717  0.00  0.00    +0.000 C 
ENDROOT
BRANCH   1   2
ATOM      2  C   UNL     1      46.205   5.978  12.585  0.00  0.00    +0.000 A 
ATOM      3  C   UNL     1      45.598   4.753  12.837  0.00  0.00    +0.000 A 
ATOM      4  N   UNL     1      45.080   3.973  11.860  0.00  0.00    +0.000 NA
ATOM      5  C   UNL     1      45.171   4.458  10.597  0.00  0.00    +0.000 A 
ATOM      6  C   UNL     1      45.766   5.690  10.346  0.00  0.00    +0.000 A 
ATOM      7  N   UNL     1      46.290   6.472  11.322  0.00  0.00    +0.000 NA
BRANCH   5   8
ATOM      8  C   UNL     1      44.552   3.631   9.502  0.00  0.00    +0.000 C 
BRANCH   8   9
ATOM      9  C   UNL     1      45.283   2.305   9.230  0.00  0.00    +0.000 C 
BRANCH   9  10
ATOM     10  C   UNL     1      46.134   2.351   7.984  0.00  0.00    +0.000 A 
ATOM     11  C   UNL     1      46.075   3.406   7.065  0.00  0.00    +0.000 A 
ATOM     12  C   UNL     1      46.861   3.370   5.915  0.00  0.00    +0.000 A 
ATOM     13  C   UNL     1      47.693   2.281   5.721  0.00  0.00    +0.000 A 
ATOM     14  N   UNL     1      47.791   1.252   6.588  0.00  0.00    +0.000 NA
ATOM     15  C   UNL     1      47.007   1.307   7.688  0.00  0.00    +0.000 A 
ENDBRANCH   9  10
BRANCH   9  16
ATOM     16  O   UNL     1      44.371   1.216   9.097  0.00  0.00    +0.000 OA
ATOM     17  H   UNL     1      44.030   0.994   9.980  0.00  0.00    +0.000 HD
ENDBRANCH   9  16
ENDBRANCH   8   9
ENDBRANCH   5   8
ENDBRANCH   1   2
BRANCH   1  20
ATOM     18  O   UNL     1      48.237   8.675  15.206  0.00  0.00    +0.000 OA
ATOM     19  C   UNL     1      48.808   8.000  14.358  0.00  0.00    +0.000 C 
ATOM     20  N   UNL     1      48.141   7.105  13.566  0.00  0.00    +0.000 N 
ATOM     21  H   UNL     1      48.646   6.536  12.897  0.00  0.00    +0.000 HD
BRANCH  19  22
ATOM     22  C   UNL     1      50.244   8.131  14.098  0.00  0.00    +0.000 A 
ATOM     23  C   UNL     1      51.170   7.773  15.068  0.00  0.00    +0.000 A 
ATOM     24  S   UNL     1      52.787   8.015  14.585  0.00  0.00    +0.000 S 
ATOM     25  C   UNL     1      52.306   8.564  13.047  0.00  0.00    +0.000 A 
ATOM     26  N   UNL     1      53.225   8.926  12.110  0.00  0.00    +0.000 NA
ATOM     27  C   UNL     1      52.718   9.283  10.977  0.00  0.00    +0.000 A 
ATOM     28  N   UNL     1      51.378   9.316  10.696  0.00  0.00    +0.000 N 
ATOM     29  C   UNL     1      50.411   9.013  11.625  0.00  0.00    +0.000 A 
ATOM     30  O   UNL     1      49.221   9.151  11.363  0.00  0.00    +0.000 OA
ATOM     31  C   UNL     1      50.930   8.580  12.909  0.00  0.00    +0.000 A 
ATOM     32  H   UNL     1      51.043   9.626   9.794  0.00  0.00    +0.000 HD
ENDBRANCH  19  22
ENDBRANCH   1  20
TORSDOF 7
ENDMDL
MODEL 9
REMARK VINA RESULT:    -6.504      4.031      8.280
REMARK INTER + INTRA:         -10.102
REMARK INTER:                  -8.904
REMARK INTRA:                  -1.197
REMARK UNBOUND:                -1.126
REMARK  Name = 
REMARK  7 active torsions:
REMARK  status: ('A' for Active; 'I' for Inactive)
REMARK    1  A    between atoms: C_2  and  C_20
REMARK    2  A    between atoms: N_3  and  C_4
REMARK    3  A    between atoms: C_4  and  C_5
REMARK    4  A    between atoms: C_8  and  C_9
REMARK    5  A    between atoms: C_9  and  C_10
REMARK    6  A    between atoms: C_10  and  O_11
REMARK    7  A    between atoms: C_10  and  C_12
REMARK                            x       y       z     vdW  Elec       q    Type
REMARK                         _______ _______ _______ _____ _____    ______ ____
ROOT
ATOM      1  C   UNL     1      48.563   8.271  14.417  0.00  0.00    +0.000 C 
ENDROOT
BRANCH   1   2
ATOM      2  C   UNL     1      49.310   7.678  15.579  0.00  0.00    +0.000 A 
ATOM      3  C   UNL     1      48.777   7.731  16.861  0.00  0.00    +0.000 A 
ATOM      4  N   UNL     1      49.393   7.192  17.939  0.00  0.00    +0.000 NA
ATOM      5  C   UNL     1      50.576   6.571  17.701  0.00  0.00    +0.000 A 
ATOM      6  C   UNL     1      51.103   6.505  16.415  0.00  0.00    +0.000 A 
ATOM      7  N   UNL     1      50.491   7.049  15.336  0.00  0.00    +0.000 NA
BRANCH   5   8
ATOM      8  C   UNL     1      51.251   5.916  18.877  0.00  0.00    +0.000 C 
BRANCH   8   9
ATOM      9  C   UNL     1      50.452   4.751  19.486  0.00  0.00    +0.000 C 
BRANCH   9  10
ATOM     10  C   UNL     1      49.826   3.861  18.440  0.00  0.00    +0.000 A 
ATOM     11  C   UNL     1      48.441   3.762  18.261  0.00  0.00    +0.000 A 
ATOM     12  C   UNL     1      47.924   2.894  17.301  0.00  0.00    +0.000 A 
ATOM     13  C   UNL     1      48.811   2.152  16.540  0.00  0.00    +0.000 A 
ATOM     14  N   UNL     1      50.152   2.228  16.671  0.00  0.00    +0.000 NA
ATOM     15  C   UNL     1      50.625   3.069  17.619  0.00  0.00    +0.000 A 
ENDBRANCH   9  10
BRANCH   9  16
ATOM     16  O   UNL     1      49.413   5.214  20.346  0.00  0.00    +0.000 OA
ATOM     17  H   UNL     1      49.011   4.443  20.782  0.00  0.00    +0.000 HD
ENDBRANCH   9  16
ENDBRANCH   8   9
ENDBRANCH   5   8
ENDBRANCH   1   2
BRANCH   1  20
ATOM     18  O   UNL     1      48.823   6.078  12.668  0.00  0.00    +0.000 OA
ATOM     19  C   UNL     1      47.719   6.337  13.131  0.00  0.00    +0.000 C 
ATOM     20  N   UNL     1      47.504   7.410  13.952  0.00  0.00    +0.000 N 
ATOM     21  H   UNL     1      46.587   7.577  14.348  0.00  0.00    +0.000 HD
BRANCH  19  22
ATOM     22  C   UNL     1      46.533   5.540  12.804  0.00  0.00    +0.000 A 
ATOM     23  C   UNL     1      46.502   4.180  13.079  0.00  0.00    +0.000 A 
ATOM     24  S   UNL     1      45.047   3.425  12.610  0.00  0.00    +0.000 S 
ATOM     25  C   UNL     1      44.392   4.899  12.063  0.00  0.00    +0.000 A 
ATOM     26  N   UNL     1      43.135   4.960  11.546  0.00  0.00    +0.000 NA
ATOM     27  C   UNL     1      42.754   6.148  11.211  0.00  0.00    +0.000 A 
ATOM     28  N   UNL     1      43.517   7.279  11.339  0.00  0.00    +0.000 N 
ATOM     29  C   UNL     1      44.811   7.259  11.803  0.00  0.00    +0.000 A 
ATOM     30  O   UNL     1      45.493   8.278  11.810  0.00  0.00    +0.000 OA
ATOM     31  C   UNL     1      45.277   5.949  12.220  0.00  0.00    +0.000 A 
ATOM     32  H   UNL     1      43.169   8.178  11.037  0.00  0.00    +0.000 HD
ENDBRANCH  19  22
ENDBRANCH   1  20
TORSDOF 7
ENDMDL
