MODEL 1
REMARK VINA RESULT:    -6.926      0.000      0.000
REMARK INTER + INTRA:         -11.580
REMARK INTER:                 -10.772
REMARK INTRA:                  -0.807
REMARK UNBOUND:                -0.807
REMARK  Name = 
REMARK  10 active torsions:
REMARK  status: ('A' for Active; 'I' for Inactive)
REMARK    1  A    between atoms: N_1  and  C_2
REMARK    2  A    between atoms: C_2  and  C_3
REMARK    3  A    between atoms: C_3  and  C_4
REMARK    4  A    between atoms: C_4  and  C_5
REMARK    5  A    between atoms: C_5  and  N_6
REMARK    6  A    between atoms: N_6  and  C_7
REMARK    7  A    between atoms: C_7  and  C_8
REMARK    8  A    between atoms: C_11  and  O_12
REMARK    9  A    between atoms: O_12  and  C_13
REMARK   10  A    between atoms: C_13  and  C_14
REMARK                            x       y       z     vdW  Elec       q    Type
REMARK                         _______ _______ _______ _____ _____    ______ ____
ROOT
ATOM      1  C   UNL     1      46.440   4.758  13.358  0.00  0.00    +0.000 A 
ATOM      2  C   UNL     1      46.366   5.803  12.426  0.00  0.00    +0.000 A 
ATOM      3  C   UNL     1      45.685   5.635  11.219  0.00  0.00    +0.000 A 
ATOM      4  C   UNL     1      45.074   4.415  10.925  0.00  0.00    +0.000 A 
ATOM      5  C   UNL     1      45.112   3.383  11.862  0.00  0.00    +0.000 A 
ATOM      6  C   UNL     1      45.799   3.547  13.067  0.00  0.00    +0.000 A 
ENDROOT
BRANCH   1   7
ATOM      7  C   UNL     1      47.173   4.941  14.664  0.00  0.00    +0.000 C 
BRANCH   7   8
ATOM      8  N   UNL     1      47.215   3.732  15.492  0.00  0.00    +0.000 NA
ATOM      9  H   UNL     1      46.439   3.131  15.222  0.00  0.00    +0.000 HD
BRANCH   8  10
ATOM     10  C   UNL     1      47.110   4.038  16.920  0.00  0.00    +0.000 C 
BRANCH  10  11
ATOM     11  C   UNL     1      47.911   3.006  17.713  0.00  0.00    +0.000 C 
BRANCH  11  12
ATOM     12  C   UNL     1      49.396   3.366  17.726  0.00  0.00    +0.000 C 
BRANCH  12  13
ATOM     13  C   UNL     1      50.241   2.210  17.201  0.00  0.00    +0.000 C 
BRANCH  13  14
ATOM     14  N   UNL     1      49.652   1.676  15.981  0.00  0.00    +0.000 NA
ATOM     15  H   UNL     1      48.778   1.205  16.205  0.00  0.00    +0.000 HD
ATOM     16  H   UNL     1      50.267   0.967  15.583  0.00  0.00    +0.000 HD
ENDBRANCH  13  14
ENDBRANCH  12  13
ENDBRANCH  11  12
ENDBRANCH  10  11
ENDBRANCH   8  10
ENDBRANCH   7   8
ENDBRANCH   1   7
BRANCH   4  17
ATOM     17  O   UNL     1      44.371   4.144   9.783  0.00  0.00    +0.000 OA
BRANCH  17  18
ATOM     18  C   UNL     1      44.401   2.774   9.365  0.00  0.00    +0.000 C 
BRANCH  18  19
ATOM     19  C   UNL     1      45.474   2.586   8.316  0.00  0.00    +0.000 A 
ATOM     20  N   UNL     1      46.146   1.415   8.320  0.00  0.00    +0.000 NA
ATOM     21  C   UNL     1      47.099   1.265   7.382  0.00  0.00    +0.000 A 
ATOM     22  C   UNL     1      47.398   2.224   6.446  0.00  0.00    +0.000 A 
ATOM     23  C   UNL     1      46.655   3.377   6.518  0.00  0.00    +0.000 A 
ATOM     24  N   UNL     1      45.689   3.585   7.434  0.00  0.00    +0.000 NA
ENDBRANCH  18  19
ENDBRANCH  17  18
ENDBRANCH   4  17
TORSDOF 10
ENDMDL
MODEL 2
REMARK VINA RESULT:    -6.704      1.854      8.038
REMARK INTER + INTRA:         -11.234
REMARK INTER:                 -10.665
REMARK INTRA:                  -0.570
REMARK UNBOUND:                -0.807
REMARK  Name = 
REMARK  10 active torsions:
REMARK  status: ('A' for Active; 'I' for Inactive)
REMARK    1  A    between atoms: N_1  and  C_2
REMARK    2  A    between atoms: C_2  and  C_3
REMARK    3  A    between atoms: C_3  and  C_4
REMARK    4  A    between atoms: C_4  and  C_5
REMARK    5  A    between atoms: C_5  and  N_6
REMARK    6  A    between atoms: N_6  and  C_7
REMARK    7  A    between atoms: C_7  and  C_8
REMARK    8  A    between atoms: C_11  and  O_12
REMARK    9  A    between atoms: O_12  and  C_13
REMARK   10  A    between atoms: C_13  and  C_14
REMARK                            x       y       z     vdW  Elec       q    Type
REMARK                         _______ _______ _______ _____ _____    ______ ____
ROOT
ATOM      1  C   UNL     1      44.735   4.410  11.329  0.00  0.00    +0.000 A 
ATOM      2  C   UNL     1      45.234   5.700  11.562  0.00  0.00    +0.000 A 
ATOM      3  C   UNL     1      46.180   5.928  12.563  0.00  0.00    +0.000 A 
ATOM      4  C   UNL     1      46.634   4.869  13.350  0.00  0.00    +0.000 A 
ATOM      5  C   UNL     1      46.169   3.578  13.100  0.00  0.00    +0.000 A 
ATOM      6  C   UNL     1      45.218   3.349  12.104  0.00  0.00    +0.000 A 
ENDROOT
BRANCH   1   7
ATOM      7  C   UNL     1      43.715   4.164  10.245  0.00  0.00    +0.000 C 
BRANCH   7   8
ATOM      8  N   UNL     1      44.200   4.472   8.896  0.00  0.00    +0.000 NA
ATOM      9  H   UNL     1      43.401   4.715   8.315  0.00  0.00    +0.000 HD
BRANCH   8  10
ATOM     10  C   UNL     1      44.906   3.341   8.291  0.00  0.00    +0.000 C 
BRANCH  10  11
ATOM     11  C   UNL     1      46.160   3.854   7.585  0.00  0.00    +0.000 C 
BRANCH  11  12
ATOM     12  C   UNL     1      46.515   2.964   6.394  0.00  0.00    +0.000 C 
BRANCH  12  13
ATOM     13  C   UNL     1      47.564   1.928   6.783  0.00  0.00    +0.000 C 
BRANCH  13  14
ATOM     14  N   UNL     1      48.588   1.843   5.751  0.00  0.00    +0.000 NA
ATOM     15  H   UNL     1      48.240   1.283   4.975  0.00  0.00    +0.000 HD
ATOM     16  H   UNL     1      49.405   1.353   6.115  0.00  0.00    +0.000 HD
ENDBRANCH  13  14
ENDBRANCH  12  13
ENDBRANCH  11  12
ENDBRANCH  10  11
ENDBRANCH   8  10
ENDBRANCH   7   8
ENDBRANCH   1   7
BRANCH   4  17
ATOM     17  O   UNL     1      47.565   4.973  14.347  0.00  0.00    +0.000 OA
BRANCH  17  18
ATOM     18  C   UNL     1      47.218   4.315  15.571  0.00  0.00    +0.000 C 
BRANCH  18  19
ATOM     19  C   UNL     1      48.477   3.903  16.300  0.00  0.00    +0.000 A 
ATOM     20  N   UNL     1      48.715   2.579  16.426  0.00  0.00    +0.000 NA
ATOM     21  C   UNL     1      49.837   2.228  17.080  0.00  0.00    +0.000 A 
ATOM     22  C   UNL     1      50.726   3.137  17.599  0.00  0.00    +0.000 A 
ATOM     23  C   UNL     1      50.401   4.458  17.414  0.00  0.00    +0.000 A 
ATOM     24  N   UNL     1      49.293   4.870  16.769  0.00  0.00    +0.000 NA
ENDBRANCH  18  19
ENDBRANCH  17  18
ENDBRANCH   4  17
TORSDOF 10
ENDMDL
MODEL 3
REMARK VINA RESULT:    -6.555      1.001      1.560
REMARK INTER + INTRA:         -11.002
REMARK INTER:                 -10.205
REMARK INTRA:                  -0.797
REMARK UNBOUND:                -0.807
REMARK  Name = 
REMARK  10 active torsions:
REMARK  status: ('A' for Active; 'I' for Inactive)
REMARK    1  A    between atoms: N_1  and  C_2
REMARK    2  A    between atoms: C_2  and  C_3
REMARK    3  A    between atoms: C_3  and  C_4
REMARK    4  A    between atoms: C_4  and  C_5
REMARK    5  A    between atoms: C_5  and  N_6
REMARK    6  A    between atoms: N_6  and  C_7
REMARK    7  A    between atoms: C_7  and  C_8
REMARK    8  A    between atoms: C_11  and  O_12
REMARK    9  A    between atoms: O_12  and  C_13
REMARK   10  A    between atoms: C_13  and  C_14
REMARK                            x       y       z     vdW  Elec       q    Type
REMARK                         _______ _______ _______ _____ _____    ______ ____
ROOT
ATOM      1  C   UNL     1      46.870   5.891  13.073  0.00  0.00    +0.000 A 
ATOM      2  C   UNL     1      46.208   4.677  13.306  0.00  0.00    +0.000 A 
ATOM      3  C   UNL     1      45.343   4.142  12.350  0.00  0.00    +0.000 A 
ATOM      4  C   UNL     1      45.122   4.818  11.150  0.00  0.00    +0.000 A 
ATOM      5  C   UNL     1      45.804   6.008  10.896  0.00  0.00    +0.000 A 
ATOM      6  C   UNL     1      46.665   6.548  11.854  0.00  0.00    +0.000 A 
ENDROOT
BRANCH   1   7
ATOM      7  C   UNL     1      47.808   6.467  14.105  0.00  0.00    +0.000 C 
BRANCH   7   8
ATOM      8  N   UNL     1      48.351   5.470  15.032  0.00  0.00    +0.000 NA
ATOM      9  H   UNL     1      47.783   4.627  14.965  0.00  0.00    +0.000 HD
BRANCH   8  10
ATOM     10  C   UNL     1      48.345   5.943  16.418  0.00  0.00    +0.000 C 
BRANCH  10  11
ATOM     11  C   UNL     1      47.797   4.839  17.320  0.00  0.00    +0.000 C 
BRANCH  11  12
ATOM     12  C   UNL     1      47.766   3.501  16.583  0.00  0.00    +0.000 C 
BRANCH  12  13
ATOM     13  C   UNL     1      48.869   2.576  17.088  0.00  0.00    +0.000 C 
BRANCH  13  14
ATOM     14  N   UNL     1      49.436   1.824  15.977  0.00  0.00    +0.000 NA
ATOM     15  H   UNL     1      49.267   2.326  15.107  0.00  0.00    +0.000 HD
ATOM     16  H   UNL     1      48.959   0.928  15.888  0.00  0.00    +0.000 HD
ENDBRANCH  13  14
ENDBRANCH  12  13
ENDBRANCH  11  12
ENDBRANCH  10  11
ENDBRANCH   8  10
ENDBRANCH   7   8
ENDBRANCH   1   7
BRANCH   4  17
ATOM     17  O   UNL     1      44.309   4.383  10.140  0.00  0.00    +0.000 OA
BRANCH  17  18
ATOM     18  C   UNL     1      44.399   2.983   9.852  0.00  0.00    +0.000 C 
BRANCH  18  19
ATOM     19  C   UNL     1      45.357   2.762   8.703  0.00  0.00    +0.000 A 
ATOM     20  N   UNL     1      45.929   1.542   8.599  0.00  0.00    +0.000 NA
ATOM     21  C   UNL     1      46.781   1.362   7.573  0.00  0.00    +0.000 A 
ATOM     22  C   UNL     1      47.076   2.338   6.654  0.00  0.00    +0.000 A 
ATOM     23  C   UNL     1      46.441   3.541   6.840  0.00  0.00    +0.000 A 
ATOM     24  N   UNL     1      45.578   3.781   7.847  0.00  0.00    +0.000 NA
ENDBRANCH  18  19
ENDBRANCH  17  18
ENDBRANCH   4  17
TORSDOF 10
ENDMDL
MODEL 4
REMARK VINA RESULT:    -6.005      2.515      8.417
REMARK INTER + INTRA:         -10.147
REMARK INTER:                  -9.519
REMARK INTRA:                  -0.628
REMARK UNBOUND:                -0.807
REMARK  Name = 
REMARK  10 active torsions:
REMARK  status: ('A' for Active; 'I' for Inactive)
REMARK    1  A    between atoms: N_1  and  C_2
REMARK    2  A    between atoms: C_2  and  C_3
REMARK    3  A    between atoms: C_3  and  C_4
REMARK    4  A    between atoms: C_4  and  C_5
REMARK    5  A    between atoms: C_5  and  N_6
REMARK    6  A    between atoms: N_6  and  C_7
REMARK    7  A    between atoms: C_7  and  C_8
REMARK    8  A    between atoms: C_11  and  O_12
REMARK    9  A    between atoms: O_12  and  C_13
REMARK   10  A    between atoms: C_13  and  C_14
REMARK                            x       y       z     vdW  Elec       q    Type
REMARK                         _______ _______ _______ _____ _____    ______ ____
ROOT
ATOM      1  C   UNL     1      45.189   4.717  11.222  0.00  0.00    +0.000 A 
ATOM      2  C   UNL     1      45.511   4.273  12.513  0.00  0.00    +0.000 A 
ATOM      3  C   UNL     1      46.266   5.072  13.374  0.00  0.00    +0.000 A 
ATOM      4  C   UNL     1      46.715   6.324  12.953  0.00  0.00    +0.000 A 
ATOM      5  C   UNL     1      46.368   6.787  11.684  0.00  0.00    +0.000 A 
ATOM      6  C   UNL     1      45.619   5.987  10.819  0.00  0.00    +0.000 A 
ENDROOT
BRANCH   1   7
ATOM      7  C   UNL     1      44.370   3.855  10.293  0.00  0.00    +0.000 C 
BRANCH   7   8
ATOM      8  N   UNL     1      44.129   4.464   8.982  0.00  0.00    +0.000 NA
ATOM      9  H   UNL     1      43.130   4.633   8.886  0.00  0.00    +0.000 HD
BRANCH   8  10
ATOM     10  C   UNL     1      44.578   3.606   7.883  0.00  0.00    +0.000 C 
BRANCH  10  11
ATOM     11  C   UNL     1      46.093   3.737   7.735  0.00  0.00    +0.000 C 
BRANCH  11  12
ATOM     12  C   UNL     1      46.579   3.014   6.479  0.00  0.00    +0.000 C 
BRANCH  12  13
ATOM     13  C   UNL     1      47.657   1.992   6.822  0.00  0.00    +0.000 C 
BRANCH  13  14
ATOM     14  N   UNL     1      48.608   1.882   5.725  0.00  0.00    +0.000 NA
ATOM     15  H   UNL     1      49.295   2.631   5.796  0.00  0.00    +0.000 HD
ATOM     16  H   UNL     1      48.127   2.018   4.836  0.00  0.00    +0.000 HD
ENDBRANCH  13  14
ENDBRANCH  12  13
ENDBRANCH  11  12
ENDBRANCH  10  11
ENDBRANCH   8  10
ENDBRANCH   7   8
ENDBRANCH   1   7
BRANCH   4  17
ATOM     17  O   UNL     1      47.447   7.193  13.714  0.00  0.00    +0.000 OA
BRANCH  17  18
ATOM     18  C   UNL     1      48.770   6.749  14.036  0.00  0.00    +0.000 C 
BRANCH  18  19
ATOM     19  C   UNL     1      48.920   6.649  15.538  0.00  0.00    +0.000 A 
ATOM     20  N   UNL     1      48.769   7.785  16.253  0.00  0.00    +0.000 NA
ATOM     21  C   UNL     1      48.908   7.680  17.587  0.00  0.00    +0.000 A 
ATOM     22  C   UNL     1      49.182   6.497  18.228  0.00  0.00    +0.000 A 
ATOM     23  C   UNL     1      49.311   5.397  17.417  0.00  0.00    +0.000 A 
ATOM     24  N   UNL     1      49.182   5.440  16.076  0.00  0.00    +0.000 NA
ENDBRANCH  18  19
ENDBRANCH  17  18
ENDBRANCH   4  17
TORSDOF 10
ENDMDL
MODEL 5
REMARK VINA RESULT:    -5.796      2.751      4.129
REMARK INTER + INTRA:          -9.822
REMARK INTER:                  -9.015
REMARK INTRA:                  -0.807
REMARK UNBOUND:                -0.807
REMARK  Name = 
REMARK  10 active torsions:
REMARK  status: ('A' for Active; 'I' for Inactive)
REMARK    1  A    between atoms: N_1  and  C_2
REMARK    2  A    between atoms: C_2  and  C_3
REMARK    3  A    between atoms: C_3  and  C_4
REMARK    4  A    between atoms: C_4  and  C_5
REMARK    5  A    between atoms: C_5  and  N_6
REMARK    6  A    between atoms: N_6  and  C_7
REMARK    7  A    between atoms: C_7  and  C_8
REMARK    8  A    between atoms: C_11  and  O_12
REMARK    9  A    between atoms: O_12  and  C_13
REMARK   10  A    between atoms: C_13  and  C_14
REMARK                            x       y       z     vdW  Elec       q    Type
REMARK                         _______ _______ _______ _____ _____    ______ ____
ROOT
ATOM      1  C   UNL     1      46.744   5.374  13.073  0.00  0.00    +0.000 A 
ATOM      2  C   UNL     1      46.399   6.126  11.941  0.00  0.00    +0.000 A 
ATOM      3  C   UNL     1      45.533   5.606  10.977  0.00  0.00    +0.000 A 
ATOM      4  C   UNL     1      45.005   4.324  11.129  0.00  0.00    +0.000 A 
ATOM      5  C   UNL     1      45.315   3.584  12.270  0.00  0.00    +0.000 A 
ATOM      6  C   UNL     1      46.186   4.099  13.232  0.00  0.00    +0.000 A 
ENDROOT
BRANCH   1   7
ATOM      7  C   UNL     1      47.678   5.936  14.116  0.00  0.00    +0.000 C 
BRANCH   7   8
ATOM      8  N   UNL     1      48.999   6.296  13.593  0.00  0.00    +0.000 NA
ATOM      9  H   UNL     1      49.633   5.518  13.761  0.00  0.00    +0.000 HD
BRANCH   8  10
ATOM     10  C   UNL     1      49.537   7.499  14.233  0.00  0.00    +0.000 C 
BRANCH  10  11
ATOM     11  C   UNL     1      50.414   8.248  13.231  0.00  0.00    +0.000 C 
BRANCH  11  12
ATOM     12  C   UNL     1      49.832   8.151  11.821  0.00  0.00    +0.000 C 
BRANCH  12  13
ATOM     13  C   UNL     1      48.794   9.242  11.584  0.00  0.00    +0.000 C 
BRANCH  13  14
ATOM     14  N   UNL     1      49.389  10.553  11.803  0.00  0.00    +0.000 NA
ATOM     15  H   UNL     1      50.401  10.485  11.708  0.00  0.00    +0.000 HD
ATOM     16  H   UNL     1      49.211  10.857  12.760  0.00  0.00    +0.000 HD
ENDBRANCH  13  14
ENDBRANCH  12  13
ENDBRANCH  11  12
ENDBRANCH  10  11
ENDBRANCH   8  10
ENDBRANCH   7   8
ENDBRANCH   1   7
BRANCH   4  17
ATOM     17  O   UNL     1      44.140   3.722  10.258  0.00  0.00    +0.000 OA
BRANCH  17  18
ATOM     18  C   UNL     1      44.302   4.098   8.886  0.00  0.00    +0.000 C 
BRANCH  18  19
ATOM     19  C   UNL     1      45.390   3.259   8.254  0.00  0.00    +0.000 A 
ATOM     20  N   UNL     1      46.235   3.879   7.402  0.00  0.00    +0.000 NA
ATOM     21  C   UNL     1      47.196   3.118   6.846  0.00  0.00    +0.000 A 
ATOM     22  C   UNL     1      47.349   1.780   7.111  0.00  0.00    +0.000 A 
ATOM     23  C   UNL     1      46.446   1.241   7.995  0.00  0.00    +0.000 A 
ATOM     24  N   UNL     1      45.464   1.952   8.583  0.00  0.00    +0.000 NA
ENDBRANCH  18  19
ENDBRANCH  17  18
ENDBRANCH   4  17
TORSDOF 10
ENDMDL
MODEL 6
REMARK VINA RESULT:    -5.582      1.971      2.657
REMARK INTER + INTRA:          -9.490
REMARK INTER:                  -8.860
REMARK INTRA:                  -0.629
REMARK UNBOUND:                -0.807
REMARK  Name = 
REMARK  10 active torsions:
REMARK  status: ('A' for Active; 'I' for Inactive)
REMARK    1  A    between atoms: N_1  and  C_2
REMARK    2  A    between atoms: C_2  and  C_3
REMARK    3  A    between atoms: C_3  and  C_4
REMARK    4  A    between atoms: C_4  and  C_5
REMARK    5  A    between atoms: C_5  and  N_6
REMARK    6  A    between atoms: N_6  and  C_7
REMARK    7  A    between atoms: C_7  and  C_8
REMARK    8  A    between atoms: C_11  and  O_12
REMARK    9  A    between atoms: O_12  and  C_13
REMARK   10  A    between atoms: C_13  and  C_14
REMARK                            x       y       z     vdW  Elec       q    Type
REMARK                         _______ _______ _______ _____ _____    ______ ____
ROOT
ATOM      1  C   UNL     1      47.382   6.101  13.466  0.00  0.00    +0.000 A 
ATOM      2  C   UNL     1      46.785   6.772  12.389  0.00  0.00    +0.000 A 
ATOM      3  C   UNL     1      45.764   6.169  11.651  0.00  0.00    +0.000 A 
ATOM      4  C   UNL     1      45.332   4.883  11.977  0.00  0.00    +0.000 A 
ATOM      5  C   UNL     1      45.896   4.224  13.069  0.00  0.00    +0.000 A 
ATOM      6  C   UNL     1      46.922   4.822  13.804  0.00  0.00    +0.000 A 
ENDROOT
BRANCH   1   7
ATOM      7  C   UNL     1      48.483   6.754  14.265  0.00  0.00    +0.000 C 
BRANCH   7   8
ATOM      8  N   UNL     1      48.207   6.825  15.702  0.00  0.00    +0.000 NA
ATOM      9  H   UNL     1      48.355   7.784  16.010  0.00  0.00    +0.000 HD
BRANCH   8  10
ATOM     10  C   UNL     1      49.073   5.934  16.476  0.00  0.00    +0.000 C 
BRANCH  10  11
ATOM     11  C   UNL     1      48.205   4.999  17.317  0.00  0.00    +0.000 C 
BRANCH  11  12
ATOM     12  C   UNL     1      48.659   5.002  18.776  0.00  0.00    +0.000 C 
BRANCH  12  13
ATOM     13  C   UNL     1      47.723   5.846  19.635  0.00  0.00    +0.000 C 
BRANCH  13  14
ATOM     14  N   UNL     1      47.080   6.866  18.818  0.00  0.00    +0.000 NA
ATOM     15  H   UNL     1      46.078   6.688  18.781  0.00  0.00    +0.000 HD
ATOM     16  H   UNL     1      47.419   6.803  17.858  0.00  0.00    +0.000 HD
ENDBRANCH  13  14
ENDBRANCH  12  13
ENDBRANCH  11  12
ENDBRANCH  10  11
ENDBRANCH   8  10
ENDBRANCH   7   8
ENDBRANCH   1   7
BRANCH   4  17
ATOM     17  O   UNL     1      44.334   4.203  11.334  0.00  0.00    +0.000 OA
BRANCH  17  18
ATOM     18  C   UNL     1      44.125   4.583   9.969  0.00  0.00    +0.000 C 
BRANCH  18  19
ATOM     19  C   UNL     1      45.015   3.755   9.069  0.00  0.00    +0.000 A 
ATOM     20  N   UNL     1      45.712   4.409   8.115  0.00  0.00    +0.000 NA
ATOM     21  C   UNL     1      46.496   3.658   7.321  0.00  0.00    +0.000 A 
ATOM     22  C   UNL     1      46.617   2.295   7.446  0.00  0.00    +0.000 A 
ATOM     23  C   UNL     1      45.874   1.723   8.449  0.00  0.00    +0.000 A 
ATOM     24  N   UNL     1      45.071   2.422   9.275  0.00  0.00    +0.000 NA
ENDBRANCH  18  19
ENDBRANCH  17  18
ENDBRANCH   4  17
TORSDOF 10
ENDMDL
MODEL 7
REMARK VINA RESULT:    -5.558      2.042      7.948
REMARK INTER + INTRA:          -9.453
REMARK INTER:                  -8.742
REMARK INTRA:                  -0.711
REMARK UNBOUND:                -0.807
REMARK  Name = 
REMARK  10 active torsions:
REMARK  status: ('A' for Active; 'I' for Inactive)
REMARK    1  A    between atoms: N_1  and  C_2
REMARK    2  A    between atoms: C_2  and  C_3
REMARK    3  A    between atoms: C_3  and  C_4
REMARK    4  A    between atoms: C_4  and  C_5
REMARK    5  A    between atoms: C_5  and  N_6
REMARK    6  A    between atoms: N_6  and  C_7
REMARK    7  A    between atoms: C_7  and  C_8
REMARK    8  A    between atoms: C_11  and  O_12
REMARK    9  A    between atoms: O_12  and  C_13
REMARK   10  A    between atoms: C_13  and  C_14
REMARK                            x       y       z     vdW  Elec       q    Type
REMARK                         _______ _______ _______ _____ _____    ______ ____
ROOT
ATOM      1  C   UNL     1      44.824   4.231  12.455  0.00  0.00    +0.000 A 
ATOM      2  C   UNL     1      45.820   3.335  12.869  0.00  0.00    +0.000 A 
ATOM      3  C   UNL     1      47.006   3.802  13.440  0.00  0.00    +0.000 A 
ATOM      4  C   UNL     1      47.213   5.173  13.598  0.00  0.00    +0.000 A 
ATOM      5  C   UNL     1      46.211   6.068  13.222  0.00  0.00    +0.000 A 
ATOM      6  C   UNL     1      45.028   5.603  12.645  0.00  0.00    +0.000 A 
ENDROOT
BRANCH   1   7
ATOM      7  C   UNL     1      43.541   3.726  11.841  0.00  0.00    +0.000 C 
BRANCH   7   8
ATOM      8  N   UNL     1      43.670   3.349  10.430  0.00  0.00    +0.000 NA
ATOM      9  H   UNL     1      44.466   2.722  10.337  0.00  0.00    +0.000 HD
BRANCH   8  10
ATOM     10  C   UNL     1      43.873   4.513   9.565  0.00  0.00    +0.000 C 
BRANCH  10  11
ATOM     11  C   UNL     1      45.164   4.327   8.771  0.00  0.00    +0.000 C 
BRANCH  11  12
ATOM     12  C   UNL     1      45.381   2.854   8.425  0.00  0.00    +0.000 C 
BRANCH  12  13
ATOM     13  C   UNL     1      46.467   2.697   7.366  0.00  0.00    +0.000 C 
BRANCH  13  14
ATOM     14  N   UNL     1      47.017   4.000   7.019  0.00  0.00    +0.000 NA
ATOM     15  H   UNL     1      46.324   4.722   7.210  0.00  0.00    +0.000 HD
ATOM     16  H   UNL     1      47.204   4.040   6.018  0.00  0.00    +0.000 HD
ENDBRANCH  13  14
ENDBRANCH  12  13
ENDBRANCH  11  12
ENDBRANCH  10  11
ENDBRANCH   8  10
ENDBRANCH   7   8
ENDBRANCH   1   7
BRANCH   4  17
ATOM     17  O   UNL     1      48.326   5.740  14.155  0.00  0.00    +0.000 OA
BRANCH  17  18
ATOM     18  C   UNL     1      48.164   6.194  15.504  0.00  0.00    +0.000 C 
BRANCH  18  19
ATOM     19  C   UNL     1      48.397   5.044  16.458  0.00  0.00    +0.000 A 
ATOM     20  N   UNL     1      47.306   4.441  16.979  0.00  0.00    +0.000 NA
ATOM     21  C   UNL     1      47.530   3.422  17.829  0.00  0.00    +0.000 A 
ATOM     22  C   UNL     1      48.785   2.981  18.168  0.00  0.00    +0.000 A 
ATOM     23  C   UNL     1      49.830   3.653  17.582  0.00  0.00    +0.000 A 
ATOM     24  N   UNL     1      49.668   4.680  16.725  0.00  0.00    +0.000 NA
ENDBRANCH  18  19
ENDBRANCH  17  18
ENDBRANCH   4  17
TORSDOF 10
ENDMDL
MODEL 8
REMARK VINA RESULT:    -5.544      3.916      8.376
REMARK INTER + INTRA:          -9.430
REMARK INTER:                  -8.643
REMARK INTRA:                  -0.787
REMARK UNBOUND:                -0.807
REMARK  Name = 
REMARK  10 active torsions:
REMARK  status: ('A' for Active; 'I' for Inactive)
REMARK    1  A    between atoms: N_1  and  C_2
REMARK    2  A    between atoms: C_2  and  C_3
REMARK    3  A    between atoms: C_3  and  C_4
REMARK    4  A    between atoms: C_4  and  C_5
REMARK    5  A    between atoms: C_5  and  N_6
REMARK    6  A    between atoms: N_6  and  C_7
REMARK    7  A    between atoms: C_7  and  C_8
REMARK    8  A    between atoms: C_11  and  O_12
REMARK    9  A    between atoms: O_12  and  C_13
REMARK   10  A    between atoms: C_13  and  C_14
REMARK                            x       y       z     vdW  Elec       q    Type
REMARK                         _______ _______ _______ _____ _____    ______ ____
ROOT
ATOM      1  C   UNL     1      45.658   6.166  12.210  0.00  0.00    +0.000 A 
ATOM      2  C   UNL     1      45.126   4.869  12.182  0.00  0.00    +0.000 A 
ATOM      3  C   UNL     1      45.710   3.842  12.928  0.00  0.00    +0.000 A 
ATOM      4  C   UNL     1      46.839   4.099  13.706  0.00  0.00    +0.000 A 
ATOM      5  C   UNL     1      47.352   5.395  13.766  0.00  0.00    +0.000 A 
ATOM      6  C   UNL     1      46.774   6.421  13.016  0.00  0.00    +0.000 A 
ENDROOT
BRANCH   1   7
ATOM      7  C   UNL     1      45.025   7.275  11.406  0.00  0.00    +0.000 C 
BRANCH   7   8
ATOM      8  N   UNL     1      44.496   8.369  12.226  0.00  0.00    +0.000 NA
ATOM      9  H   UNL     1      43.507   8.481  12.012  0.00  0.00    +0.000 HD
BRANCH   8  10
ATOM     10  C   UNL     1      45.187   9.635  11.970  0.00  0.00    +0.000 C 
BRANCH  10  11
ATOM     11  C   UNL     1      44.165  10.683  11.532  0.00  0.00    +0.000 C 
BRANCH  11  12
ATOM     12  C   UNL     1      43.699  10.421  10.100  0.00  0.00    +0.000 C 
BRANCH  12  13
ATOM     13  C   UNL     1      42.181  10.300  10.036  0.00  0.00    +0.000 C 
BRANCH  13  14
ATOM     14  N   UNL     1      41.708   9.393  11.073  0.00  0.00    +0.000 NA
ATOM     15  H   UNL     1      41.820   9.834  11.985  0.00  0.00    +0.000 HD
ATOM     16  H   UNL     1      42.287   8.554  11.087  0.00  0.00    +0.000 HD
ENDBRANCH  13  14
ENDBRANCH  12  13
ENDBRANCH  11  12
ENDBRANCH  10  11
ENDBRANCH   8  10
ENDBRANCH   7   8
ENDBRANCH   1   7
BRANCH   4  17
ATOM     17  O   UNL     1      47.483   3.177  14.484  0.00  0.00    +0.000 OA
BRANCH  17  18
ATOM     18  C   UNL     1      47.442   3.438  15.892  0.00  0.00    +0.000 C 
BRANCH  18  19
ATOM     19  C   UNL     1      48.805   3.182  16.496  0.00  0.00    +0.000 A 
ATOM     20  N   UNL     1      49.326   1.945  16.346  0.00  0.00    +0.000 NA
ATOM     21  C   UNL     1      50.538   1.732  16.891  0.00  0.00    +0.000 A 
ATOM     22  C   UNL     1      51.244   2.697  17.565  0.00  0.00    +0.000 A 
ATOM     23  C   UNL     1      50.634   3.924  17.659  0.00  0.00    +0.000 A 
ATOM     24  N   UNL     1      49.424   4.196  17.135  0.00  0.00    +0.000 NA
ENDBRANCH  18  19
ENDBRANCH  17  18
ENDBRANCH   4  17
TORSDOF 10
ENDMDL
MODEL 9
REMARK VINA RESULT:    -5.484      2.598      3.222
REMARK INTER + INTRA:          -9.337
REMARK INTER:                  -8.842
REMARK INTRA:                  -0.495
REMARK UNBOUND:                -0.807
REMARK  Name = 
REMARK  10 active torsions:
REMARK  status: ('A' for Active; 'I' for Inactive)
REMARK    1  A    between atoms: N_1  and  C_2
REMARK    2  A    between atoms: C_2  and  C_3
REMARK    3  A    between atoms: C_3  and  C_4
REMARK    4  A    between atoms: C_4  and  C_5
REMARK    5  A    between atoms: C_5  and  N_6
REMARK    6  A    between atoms: N_6  and  C_7
REMARK    7  A    between atoms: C_7  and  C_8
REMARK    8  A    between atoms: C_11  and  O_12
REMARK    9  A    between atoms: O_12  and  C_13
REMARK   10  A    between atoms: C_13  and  C_14
REMARK                            x       y       z     vdW  Elec       q    Type
REMARK                         _______ _______ _______ _____ _____    ______ ____
ROOT
ATOM      1  C   UNL     1      46.618   5.815  12.627  0.00  0.00    +0.000 A 
ATOM      2  C   UNL     1      46.455   6.429  11.377  0.00  0.00    +0.000 A 
ATOM      3  C   UNL     1      45.667   5.836  10.388  0.00  0.00    +0.000 A 
ATOM      4  C   UNL     1      45.037   4.616  10.635  0.00  0.00    +0.000 A 
ATOM      5  C   UNL     1      45.165   4.017  11.888  0.00  0.00    +0.000 A 
ATOM      6  C   UNL     1      45.957   4.605  12.876  0.00  0.00    +0.000 A 
ENDROOT
BRANCH   1   7
ATOM      7  C   UNL     1      47.466   6.458  13.696  0.00  0.00    +0.000 C 
BRANCH   7   8
ATOM      8  N   UNL     1      48.906   6.262  13.503  0.00  0.00    +0.000 NA
ATOM      9  H   UNL     1      49.278   5.788  14.324  0.00  0.00    +0.000 HD
BRANCH   8  10
ATOM     10  C   UNL     1      49.616   7.530  13.320  0.00  0.00    +0.000 C 
BRANCH  10  11
ATOM     11  C   UNL     1      49.836   8.181  14.685  0.00  0.00    +0.000 C 
BRANCH  11  12
ATOM     12  C   UNL     1      50.355   7.159  15.696  0.00  0.00    +0.000 C 
BRANCH  12  13
ATOM     13  C   UNL     1      51.877   7.198  15.778  0.00  0.00    +0.000 C 
BRANCH  13  14
ATOM     14  N   UNL     1      52.312   8.447  16.387  0.00  0.00    +0.000 NA
ATOM     15  H   UNL     1      51.901   9.231  15.882  0.00  0.00    +0.000 HD
ATOM     16  H   UNL     1      53.323   8.544  16.293  0.00  0.00    +0.000 HD
ENDBRANCH  13  14
ENDBRANCH  12  13
ENDBRANCH  11  12
ENDBRANCH  10  11
ENDBRANCH   8  10
ENDBRANCH   7   8
ENDBRANCH   1   7
BRANCH   4  17
ATOM     17  O   UNL     1      44.234   3.952   9.749  0.00  0.00    +0.000 OA
BRANCH  17  18
ATOM     18  C   UNL     1      44.539   2.563   9.578  0.00  0.00    +0.000 C 
BRANCH  18  19
ATOM     19  C   UNL     1      45.510   2.394   8.430  0.00  0.00    +0.000 A 
ATOM     20  N   UNL     1      45.629   3.422   7.562  0.00  0.00    +0.000 NA
ATOM     21  C   UNL     1      46.494   3.256   6.546  0.00  0.00    +0.000 A 
ATOM     22  C   UNL     1      47.244   2.119   6.369  0.00  0.00    +0.000 A 
ATOM     23  C   UNL     1      47.058   1.133   7.307  0.00  0.00    +0.000 A 
ATOM     24  N   UNL     1      46.207   1.242   8.345  0.00  0.00    +0.000 NA
ENDBRANCH  18  19
ENDBRANCH  17  18
ENDBRANCH   4  17
TORSDOF 10
ENDMDL
