MODEL 1
REMARK VINA RESULT:    -7.741      0.000      0.000
REMARK INTER + INTRA:         -10.601
REMARK INTER:                 -10.003
REMARK INTRA:                  -0.598
REMARK UNBOUND:                -0.598
REMARK  Name = 
REMARK  5 active torsions:
REMARK  status: ('A' for Active; 'I' for Inactive)
REMARK    1  A    between atoms: C_2  and  C_4
REMARK    2  A    between atoms: C_6  and  S_7
REMARK    3  A    between atoms: S_7  and  C_8
REMARK    4  A    between atoms: C_8  and  C_9
REMARK    5  A    between atoms: C_13  and  C_14
REMARK                            x       y       z     vdW  Elec       q    Type
REMARK                         _______ _______ _______ _____ _____    ______ ____
ROOT
ATOM      1  C   UNL     1      43.944   6.316  11.732  0.00  0.00    +0.000 C 
ENDROOT
BRANCH   1   2
ATOM      2  C   UNL     1      43.936   4.850  11.356  0.00  0.00    +0.000 A 
ATOM      3  C   UNL     1      43.175   3.911  12.046  0.00  0.00    +0.000 A 
ATOM      4  C   UNL     1      43.239   2.579  11.665  0.00  0.00    +0.000 A 
ATOM      5  C   UNL     1      44.026   2.221  10.574  0.00  0.00    +0.000 A 
ATOM      6  C   UNL     1      44.730   3.204   9.884  0.00  0.00    +0.000 A 
ATOM      7  N   UNL     1      44.683   4.506  10.272  0.00  0.00    +0.000 NA
BRANCH   6   8
ATOM      8  C   UNL     1      45.534   2.910   8.687  0.00  0.00    +0.000 A 
ATOM      9  C   UNL     1      45.910   3.894   7.758  0.00  0.00    +0.000 A 
ATOM     10  C   UNL     1      46.704   3.573   6.658  0.00  0.00    +0.000 A 
ATOM     11  C   UNL     1      47.109   2.260   6.502  0.00  0.00    +0.000 A 
ATOM     12  N   UNL     1      46.775   1.273   7.355  0.00  0.00    +0.000 NA
ATOM     13  C   UNL     1      45.994   1.619   8.413  0.00  0.00    +0.000 A 
ENDBRANCH   6   8
ENDBRANCH   1   2
BRANCH   1  14
ATOM     14  S   UNL     1      45.466   7.254  11.322  0.00  0.00    +0.000 S 
BRANCH  14  17
ATOM     15  C   UNL     1      47.385   5.335  14.348  0.00  0.00    +0.000 A 
ATOM     16  C   UNL     1      46.424   5.628  13.393  0.00  0.00    +0.000 A 
ATOM     17  C   UNL     1      46.594   6.773  12.623  0.00  0.00    +0.000 A 
ATOM     18  C   UNL     1      47.724   7.566  12.836  0.00  0.00    +0.000 A 
ATOM     19  C   UNL     1      48.628   7.197  13.819  0.00  0.00    +0.000 A 
ATOM     20  N   UNL     1      48.489   6.098  14.588  0.00  0.00    +0.000 NA
BRANCH  15  22
ATOM     21  N   UNL     1      46.743   4.263  16.427  0.00  0.00    +0.000 N 
ATOM     22  C   UNL     1      47.248   4.088  15.166  0.00  0.00    +0.000 C 
ATOM     23  O   UNL     1      47.573   2.983  14.753  0.00  0.00    +0.000 OA
ATOM     24  H   UNL     1      46.655   3.467  17.040  0.00  0.00    +0.000 HD
ATOM     25  H   UNL     1      46.511   5.197  16.747  0.00  0.00    +0.000 HD
ENDBRANCH  15  22
ENDBRANCH  14  17
ENDBRANCH   1  14
TORSDOF 5
ENDMDL
MODEL 2
REMARK VINA RESULT:    -7.623      2.655      7.496
REMARK INTER + INTRA:         -10.449
REMARK INTER:                  -9.980
REMARK INTRA:                  -0.469
REMARK UNBOUND:                -0.598
REMARK  Name = 
REMARK  5 active torsions:
REMARK  status: ('A' for Active; 'I' for Inactive)
REMARK    1  A    between atoms: C_2  and  C_4
REMARK    2  A    between atoms: C_6  and  S_7
REMARK    3  A    between atoms: S_7  and  C_8
REMARK    4  A    between atoms: C_8  and  C_9
REMARK    5  A    between atoms: C_13  and  C_14
REMARK                            x       y       z     vdW  Elec       q    Type
REMARK                         _______ _______ _______ _____ _____    ______ ____
ROOT
ATOM      1  C   UNL     1      45.028   2.892  12.244  0.00  0.00    +0.000 C 
ENDROOT
BRANCH   1   2
ATOM      2  C   UNL     1      45.814   4.047  12.824  0.00  0.00    +0.000 A 
ATOM      3  C   UNL     1      45.920   5.273  12.175  0.00  0.00    +0.000 A 
ATOM      4  C   UNL     1      46.682   6.278  12.751  0.00  0.00    +0.000 A 
ATOM      5  C   UNL     1      47.284   6.052  13.986  0.00  0.00    +0.000 A 
ATOM      6  C   UNL     1      47.108   4.826  14.620  0.00  0.00    +0.000 A 
ATOM      7  N   UNL     1      46.378   3.834  14.044  0.00  0.00    +0.000 NA
BRANCH   6   8
ATOM      8  C   UNL     1      47.663   4.536  15.952  0.00  0.00    +0.000 A 
ATOM      9  C   UNL     1      47.490   3.302  16.600  0.00  0.00    +0.000 A 
ATOM     10  C   UNL     1      48.067   3.062  17.846  0.00  0.00    +0.000 A 
ATOM     11  C   UNL     1      48.811   4.070  18.431  0.00  0.00    +0.000 A 
ATOM     12  N   UNL     1      49.006   5.275  17.861  0.00  0.00    +0.000 NA
ATOM     13  C   UNL     1      48.423   5.478  16.650  0.00  0.00    +0.000 A 
ENDBRANCH   6   8
ENDBRANCH   1   2
BRANCH   1  14
ATOM     14  S   UNL     1      43.936   3.281  10.821  0.00  0.00    +0.000 S 
BRANCH  14  17
ATOM     15  C   UNL     1      46.496   2.292   7.822  0.00  0.00    +0.000 A 
ATOM     16  C   UNL     1      45.661   2.156   8.921  0.00  0.00    +0.000 A 
ATOM     17  C   UNL     1      45.072   3.304   9.440  0.00  0.00    +0.000 A 
ATOM     18  C   UNL     1      45.336   4.532   8.830  0.00  0.00    +0.000 A 
ATOM     19  C   UNL     1      46.190   4.571   7.740  0.00  0.00    +0.000 A 
ATOM     20  N   UNL     1      46.784   3.479   7.217  0.00  0.00    +0.000 NA
BRANCH  15  22
ATOM     21  N   UNL     1      46.678  -0.124   7.725  0.00  0.00    +0.000 N 
ATOM     22  C   UNL     1      47.115   1.069   7.218  0.00  0.00    +0.000 C 
ATOM     23  O   UNL     1      47.965   1.121   6.339  0.00  0.00    +0.000 OA
ATOM     24  H   UNL     1      47.079  -0.984   7.383  0.00  0.00    +0.000 HD
ATOM     25  H   UNL     1      45.994  -0.130   8.474  0.00  0.00    +0.000 HD
ENDBRANCH  15  22
ENDBRANCH  14  17
ENDBRANCH   1  14
TORSDOF 5
ENDMDL
MODEL 3
REMARK VINA RESULT:    -7.162      2.770      6.640
REMARK INTER + INTRA:          -9.853
REMARK INTER:                  -9.067
REMARK INTRA:                  -0.786
REMARK UNBOUND:                -0.598
REMARK  Name = 
REMARK  5 active torsions:
REMARK  status: ('A' for Active; 'I' for Inactive)
REMARK    1  A    between atoms: C_2  and  C_4
REMARK    2  A    between atoms: C_6  and  S_7
REMARK    3  A    between atoms: S_7  and  C_8
REMARK    4  A    between atoms: C_8  and  C_9
REMARK    5  A    between atoms: C_13  and  C_14
REMARK                            x       y       z     vdW  Elec       q    Type
REMARK                         _______ _______ _______ _____ _____    ______ ____
ROOT
ATOM      1  C   UNL     1      44.507   3.468  12.520  0.00  0.00    +0.000 C 
ENDROOT
BRANCH   1   2
ATOM      2  C   UNL     1      45.429   4.635  12.794  0.00  0.00    +0.000 A 
ATOM      3  C   UNL     1      46.672   4.474  13.399  0.00  0.00    +0.000 A 
ATOM      4  C   UNL     1      47.452   5.593  13.646  0.00  0.00    +0.000 A 
ATOM      5  C   UNL     1      46.995   6.844  13.242  0.00  0.00    +0.000 A 
ATOM      6  C   UNL     1      45.767   6.949  12.595  0.00  0.00    +0.000 A 
ATOM      7  N   UNL     1      44.993   5.854  12.373  0.00  0.00    +0.000 NA
BRANCH   6   8
ATOM      8  C   UNL     1      45.246   8.229  12.087  0.00  0.00    +0.000 A 
ATOM      9  C   UNL     1      45.852   9.465  12.365  0.00  0.00    +0.000 A 
ATOM     10  C   UNL     1      45.341  10.647  11.830  0.00  0.00    +0.000 A 
ATOM     11  C   UNL     1      44.221  10.573  11.023  0.00  0.00    +0.000 A 
ATOM     12  N   UNL     1      43.595   9.418  10.726  0.00  0.00    +0.000 NA
ATOM     13  C   UNL     1      44.114   8.285  11.270  0.00  0.00    +0.000 A 
ENDBRANCH   6   8
ENDBRANCH   1   2
BRANCH   1  14
ATOM     14  S   UNL     1      43.506   3.562  10.985  0.00  0.00    +0.000 S 
BRANCH  14  17
ATOM     15  C   UNL     1      46.222   2.375   8.203  0.00  0.00    +0.000 A 
ATOM     16  C   UNL     1      45.298   2.307   9.235  0.00  0.00    +0.000 A 
ATOM     17  C   UNL     1      44.744   3.495   9.696  0.00  0.00    +0.000 A 
ATOM     18  C   UNL     1      45.129   4.696   9.096  0.00  0.00    +0.000 A 
ATOM     19  C   UNL     1      46.065   4.667   8.076  0.00  0.00    +0.000 A 
ATOM     20  N   UNL     1      46.628   3.534   7.610  0.00  0.00    +0.000 NA
BRANCH  15  22
ATOM     21  N   UNL     1      47.777   1.269   6.707  0.00  0.00    +0.000 N 
ATOM     22  C   UNL     1      46.809   1.109   7.661  0.00  0.00    +0.000 C 
ATOM     23  O   UNL     1      46.447  -0.001   8.028  0.00  0.00    +0.000 OA
ATOM     24  H   UNL     1      48.190   0.454   6.279  0.00  0.00    +0.000 HD
ATOM     25  H   UNL     1      48.032   2.203   6.405  0.00  0.00    +0.000 HD
ENDBRANCH  15  22
ENDBRANCH  14  17
ENDBRANCH   1  14
TORSDOF 5
ENDMDL
MODEL 4
REMARK VINA RESULT:    -7.020      1.607      2.172
REMARK INTER + INTRA:          -9.670
REMARK INTER:                  -9.206
REMARK INTRA:                  -0.463
REMARK UNBOUND:                -0.598
REMARK  Name = 
REMARK  5 active torsions:
REMARK  status: ('A' for Active; 'I' for Inactive)
REMARK    1  A    between atoms: C_2  and  C_4
REMARK    2  A    between atoms: C_6  and  S_7
REMARK    3  A    between atoms: S_7  and  C_8
REMARK    4  A    between atoms: C_8  and  C_9
REMARK    5  A    between atoms: C_13  and  C_14
REMARK                            x       y       z     vdW  Elec       q    Type
REMARK                         _______ _______ _______ _____ _____    ______ ____
ROOT
ATOM      1  C   UNL     1      45.021   6.375  11.851  0.00  0.00    +0.000 C 
ENDROOT
BRANCH   1   2
ATOM      2  C   UNL     1      44.621   4.993  11.382  0.00  0.00    +0.000 A 
ATOM      3  C   UNL     1      43.621   4.257  12.009  0.00  0.00    +0.000 A 
ATOM      4  C   UNL     1      43.326   2.984  11.543  0.00  0.00    +0.000 A 
ATOM      5  C   UNL     1      44.005   2.493  10.432  0.00  0.00    +0.000 A 
ATOM      6  C   UNL     1      44.963   3.287   9.807  0.00  0.00    +0.000 A 
ATOM      7  N   UNL     1      45.266   4.526  10.278  0.00  0.00    +0.000 NA
BRANCH   6   8
ATOM      8  C   UNL     1      45.678   2.859   8.594  0.00  0.00    +0.000 A 
ATOM      9  C   UNL     1      46.043   3.747   7.569  0.00  0.00    +0.000 A 
ATOM     10  C   UNL     1      46.753   3.300   6.455  0.00  0.00    +0.000 A 
ATOM     11  C   UNL     1      47.084   1.960   6.382  0.00  0.00    +0.000 A 
ATOM     12  N   UNL     1      46.756   1.061   7.330  0.00  0.00    +0.000 NA
ATOM     13  C   UNL     1      46.058   1.529   8.399  0.00  0.00    +0.000 A 
ENDBRANCH   6   8
ENDBRANCH   1   2
BRANCH   1  14
ATOM     14  S   UNL     1      46.817   6.750  11.844  0.00  0.00    +0.000 S 
BRANCH  14  17
ATOM     15  C   UNL     1      48.598   6.225  15.459  0.00  0.00    +0.000 A 
ATOM     16  C   UNL     1      48.279   6.789  14.233  0.00  0.00    +0.000 A 
ATOM     17  C   UNL     1      47.363   6.123  13.427  0.00  0.00    +0.000 A 
ATOM     18  C   UNL     1      46.799   4.931  13.888  0.00  0.00    +0.000 A 
ATOM     19  C   UNL     1      47.185   4.440  15.125  0.00  0.00    +0.000 A 
ATOM     20  N   UNL     1      48.076   5.056  15.928  0.00  0.00    +0.000 NA
BRANCH  15  22
ATOM     21  N   UNL     1      50.856   6.962  15.948  0.00  0.00    +0.000 N 
ATOM     22  C   UNL     1      49.553   6.938  16.366  0.00  0.00    +0.000 C 
ATOM     23  O   UNL     1      49.207   7.458  17.419  0.00  0.00    +0.000 OA
ATOM     24  H   UNL     1      51.555   7.399  16.530  0.00  0.00    +0.000 HD
ATOM     25  H   UNL     1      51.113   6.496  15.085  0.00  0.00    +0.000 HD
ENDBRANCH  15  22
ENDBRANCH  14  17
ENDBRANCH   1  14
TORSDOF 5
ENDMDL
MODEL 5
REMARK VINA RESULT:    -6.998      2.660      6.707
REMARK INTER + INTRA:          -9.640
REMARK INTER:                  -9.174
REMARK INTRA:                  -0.466
REMARK UNBOUND:                -0.598
REMARK  Name = 
REMARK  5 active torsions:
REMARK  status: ('A' for Active; 'I' for Inactive)
REMARK    1  A    between atoms: C_2  and  C_4
REMARK    2  A    between atoms: C_6  and  S_7
REMARK    3  A    between atoms: S_7  and  C_8
REMARK    4  A    between atoms: C_8  and  C_9
REMARK    5  A    between atoms: C_13  and  C_14
REMARK                            x       y       z     vdW  Elec       q    Type
REMARK                         _______ _______ _______ _____ _____    ______ ____
ROOT
ATOM      1  C   UNL     1      44.784   3.586  12.210  0.00  0.00    +0.000 C 
ENDROOT
BRANCH   1   2
ATOM      2  C   UNL     1      44.994   5.083  12.140  0.00  0.00    +0.000 A 
ATOM      3  C   UNL     1      43.953   5.968  11.873  0.00  0.00    +0.000 A 
ATOM      4  C   UNL     1      44.225   7.325  11.795  0.00  0.00    +0.000 A 
ATOM      5  C   UNL     1      45.521   7.774  12.031  0.00  0.00    +0.000 A 
ATOM      6  C   UNL     1      46.519   6.856  12.344  0.00  0.00    +0.000 A 
ATOM      7  N   UNL     1      46.256   5.523  12.399  0.00  0.00    +0.000 NA
BRANCH   6   8
ATOM      8  C   UNL     1      47.897   7.261  12.663  0.00  0.00    +0.000 A 
ATOM      9  C   UNL     1      48.859   7.540  11.678  0.00  0.00    +0.000 A 
ATOM     10  C   UNL     1      50.143   7.956  12.031  0.00  0.00    +0.000 A 
ATOM     11  C   UNL     1      50.446   8.083  13.374  0.00  0.00    +0.000 A 
ATOM     12  N   UNL     1      49.568   7.824  14.362  0.00  0.00    +0.000 NA
ATOM     13  C   UNL     1      48.329   7.413  13.983  0.00  0.00    +0.000 A 
ENDBRANCH   6   8
ENDBRANCH   1   2
BRANCH   1  14
ATOM     14  S   UNL     1      43.932   2.815  10.780  0.00  0.00    +0.000 S 
BRANCH  14  17
ATOM     15  C   UNL     1      46.595   2.434   7.732  0.00  0.00    +0.000 A 
ATOM     16  C   UNL     1      45.769   2.091   8.792  0.00  0.00    +0.000 A 
ATOM     17  C   UNL     1      45.070   3.109   9.431  0.00  0.00    +0.000 A 
ATOM     18  C   UNL     1      45.218   4.419   8.974  0.00  0.00    +0.000 A 
ATOM     19  C   UNL     1      46.072   4.668   7.911  0.00  0.00    +0.000 A 
ATOM     20  N   UNL     1      46.771   3.706   7.274  0.00  0.00    +0.000 NA
BRANCH  15  22
ATOM     21  N   UNL     1      48.372   1.780   6.217  0.00  0.00    +0.000 N 
ATOM     22  C   UNL     1      47.333   1.356   7.000  0.00  0.00    +0.000 C 
ATOM     23  O   UNL     1      47.029   0.172   7.080  0.00  0.00    +0.000 OA
ATOM     24  H   UNL     1      48.889   1.105   5.673  0.00  0.00    +0.000 HD
ATOM     25  H   UNL     1      48.577   2.770   6.152  0.00  0.00    +0.000 HD
ENDBRANCH  15  22
ENDBRANCH  14  17
ENDBRANCH   1  14
TORSDOF 5
ENDMDL
MODEL 6
REMARK VINA RESULT:    -6.957      3.099      4.066
REMARK INTER + INTRA:          -9.588
REMARK INTER:                  -8.844
REMARK INTRA:                  -0.745
REMARK UNBOUND:                -0.598
REMARK  Name = 
REMARK  5 active torsions:
REMARK  status: ('A' for Active; 'I' for Inactive)
REMARK    1  A    between atoms: C_2  and  C_4
REMARK    2  A    between atoms: C_6  and  S_7
REMARK    3  A    between atoms: S_7  and  C_8
REMARK    4  A    between atoms: C_8  and  C_9
REMARK    5  A    between atoms: C_13  and  C_14
REMARK                            x       y       z     vdW  Elec       q    Type
REMARK                         _______ _______ _______ _____ _____    ______ ____
ROOT
ATOM      1  C   UNL     1      45.537   5.364  13.217  0.00  0.00    +0.000 C 
ENDROOT
BRANCH   1   2
ATOM      2  C   UNL     1      44.880   4.336  12.322  0.00  0.00    +0.000 A 
ATOM      3  C   UNL     1      43.715   3.668  12.688  0.00  0.00    +0.000 A 
ATOM      4  C   UNL     1      43.185   2.717  11.829  0.00  0.00    +0.000 A 
ATOM      5  C   UNL     1      43.803   2.486  10.604  0.00  0.00    +0.000 A 
ATOM      6  C   UNL     1      44.938   3.215  10.261  0.00  0.00    +0.000 A 
ATOM      7  N   UNL     1      45.470   4.132  11.112  0.00  0.00    +0.000 NA
BRANCH   6   8
ATOM      8  C   UNL     1      45.611   3.067   8.960  0.00  0.00    +0.000 A 
ATOM      9  C   UNL     1      46.052   1.830   8.463  0.00  0.00    +0.000 A 
ATOM     10  C   UNL     1      46.652   1.736   7.208  0.00  0.00    +0.000 A 
ATOM     11  C   UNL     1      46.806   2.893   6.466  0.00  0.00    +0.000 A 
ATOM     12  N   UNL     1      46.410   4.108   6.893  0.00  0.00    +0.000 NA
ATOM     13  C   UNL     1      45.836   4.164   8.124  0.00  0.00    +0.000 A 
ENDBRANCH   6   8
ENDBRANCH   1   2
BRANCH   1  14
ATOM     14  S   UNL     1      46.948   6.289  12.497  0.00  0.00    +0.000 S 
BRANCH  14  17
ATOM     15  C   UNL     1      44.524   9.300  11.239  0.00  0.00    +0.000 A 
ATOM     16  C   UNL     1      45.003   8.017  11.457  0.00  0.00    +0.000 A 
ATOM     17  C   UNL     1      46.226   7.877  12.103  0.00  0.00    +0.000 A 
ATOM     18  C   UNL     1      46.908   9.025  12.512  0.00  0.00    +0.000 A 
ATOM     19  C   UNL     1      46.355  10.267  12.244  0.00  0.00    +0.000 A 
ATOM     20  N   UNL     1      45.175  10.438  11.612  0.00  0.00    +0.000 NA
BRANCH  15  22
ATOM     21  N   UNL     1      42.211   8.619  10.985  0.00  0.00    +0.000 N 
ATOM     22  C   UNL     1      43.193   9.482  10.578  0.00  0.00    +0.000 C 
ATOM     23  O   UNL     1      42.987  10.332   9.722  0.00  0.00    +0.000 OA
ATOM     24  H   UNL     1      41.299   8.669  10.555  0.00  0.00    +0.000 HD
ATOM     25  H   UNL     1      42.424   7.909  11.675  0.00  0.00    +0.000 HD
ENDBRANCH  15  22
ENDBRANCH  14  17
ENDBRANCH   1  14
TORSDOF 5
ENDMDL
MODEL 7
REMARK VINA RESULT:    -6.696      2.499      3.975
REMARK INTER + INTRA:          -9.251
REMARK INTER:                  -8.753
REMARK INTRA:                  -0.499
REMARK UNBOUND:                -0.598
REMARK  Name = 
REMARK  5 active torsions:
REMARK  status: ('A' for Active; 'I' for Inactive)
REMARK    1  A    between atoms: C_2  and  C_4
REMARK    2  A    between atoms: C_6  and  S_7
REMARK    3  A    between atoms: S_7  and  C_8
REMARK    4  A    between atoms: C_8  and  C_9
REMARK    5  A    between atoms: C_13  and  C_14
REMARK                            x       y       z     vdW  Elec       q    Type
REMARK                         _______ _______ _______ _____ _____    ______ ____
ROOT
ATOM      1  C   UNL     1      48.515   6.869  13.328  0.00  0.00    +0.000 C 
ENDROOT
BRANCH   1   2
ATOM      2  C   UNL     1      47.172   7.060  12.658  0.00  0.00    +0.000 A 
ATOM      3  C   UNL     1      46.410   8.211  12.836  0.00  0.00    +0.000 A 
ATOM      4  C   UNL     1      45.174   8.306  12.214  0.00  0.00    +0.000 A 
ATOM      5  C   UNL     1      44.747   7.269  11.390  0.00  0.00    +0.000 A 
ATOM      6  C   UNL     1      45.566   6.159  11.203  0.00  0.00    +0.000 A 
ATOM      7  N   UNL     1      46.768   6.058  11.831  0.00  0.00    +0.000 NA
BRANCH   6   8
ATOM      8  C   UNL     1      45.207   5.052  10.301  0.00  0.00    +0.000 A 
ATOM      9  C   UNL     1      45.687   4.953   8.985  0.00  0.00    +0.000 A 
ATOM     10  C   UNL     1      45.347   3.865   8.181  0.00  0.00    +0.000 A 
ATOM     11  C   UNL     1      44.524   2.888   8.711  0.00  0.00    +0.000 A 
ATOM     12  N   UNL     1      44.029   2.933   9.963  0.00  0.00    +0.000 NA
ATOM     13  C   UNL     1      44.373   4.011  10.716  0.00  0.00    +0.000 A 
ENDBRANCH   6   8
ENDBRANCH   1   2
BRANCH   1  14
ATOM     14  S   UNL     1      48.760   7.738  14.925  0.00  0.00    +0.000 S 
BRANCH  14  17
ATOM     15  C   UNL     1      48.737   4.491  17.370  0.00  0.00    +0.000 A 
ATOM     16  C   UNL     1      48.273   5.504  16.545  0.00  0.00    +0.000 A 
ATOM     17  C   UNL     1      49.199   6.409  16.039  0.00  0.00    +0.000 A 
ATOM     18  C   UNL     1      50.546   6.253  16.371  0.00  0.00    +0.000 A 
ATOM     19  C   UNL     1      50.915   5.214  17.210  0.00  0.00    +0.000 A 
ATOM     20  N   UNL     1      50.043   4.323  17.724  0.00  0.00    +0.000 NA
BRANCH  15  22
ATOM     21  N   UNL     1      48.133   2.872  19.072  0.00  0.00    +0.000 N 
ATOM     22  C   UNL     1      47.769   3.479  17.901  0.00  0.00    +0.000 C 
ATOM     23  O   UNL     1      46.724   3.195  17.328  0.00  0.00    +0.000 OA
ATOM     24  H   UNL     1      47.539   2.158  19.465  0.00  0.00    +0.000 HD
ATOM     25  H   UNL     1      49.019   3.110  19.504  0.00  0.00    +0.000 HD
ENDBRANCH  15  22
ENDBRANCH  14  17
ENDBRANCH   1  14
TORSDOF 5
ENDMDL
MODEL 8
REMARK VINA RESULT:    -6.687      1.755      2.030
REMARK INTER + INTRA:          -9.239
REMARK INTER:                  -8.586
REMARK INTRA:                  -0.653
REMARK UNBOUND:                -0.598
REMARK  Name = 
REMARK  5 active torsions:
REMARK  status: ('A' for Active; 'I' for Inactive)
REMARK    1  A    between atoms: C_2  and  C_4
REMARK    2  A    between atoms: C_6  and  S_7
REMARK    3  A    between atoms: S_7  and  C_8
REMARK    4  A    between atoms: C_8  and  C_9
REMARK    5  A    between atoms: C_13  and  C_14
REMARK                            x       y       z     vdW  Elec       q    Type
REMARK                         _______ _______ _______ _____ _____    ______ ____
ROOT
ATOM      1  C   UNL     1      44.950   6.590  12.827  0.00  0.00    +0.000 C 
ENDROOT
BRANCH   1   2
ATOM      2  C   UNL     1      44.534   5.251  12.257  0.00  0.00    +0.000 A 
ATOM      3  C   UNL     1      43.579   4.447  12.872  0.00  0.00    +0.000 A 
ATOM      4  C   UNL     1      43.268   3.219  12.310  0.00  0.00    +0.000 A 
ATOM      5  C   UNL     1      43.884   2.840  11.121  0.00  0.00    +0.000 A 
ATOM      6  C   UNL     1      44.796   3.700  10.516  0.00  0.00    +0.000 A 
ATOM      7  N   UNL     1      45.117   4.895  11.080  0.00  0.00    +0.000 NA
BRANCH   6   8
ATOM      8  C   UNL     1      45.442   3.394   9.229  0.00  0.00    +0.000 A 
ATOM      9  C   UNL     1      45.696   2.082   8.795  0.00  0.00    +0.000 A 
ATOM     10  C   UNL     1      46.278   1.842   7.551  0.00  0.00    +0.000 A 
ATOM     11  C   UNL     1      46.602   2.927   6.757  0.00  0.00    +0.000 A 
ATOM     12  N   UNL     1      46.388   4.205   7.122  0.00  0.00    +0.000 NA
ATOM     13  C   UNL     1      45.827   4.404   8.344  0.00  0.00    +0.000 A 
ENDBRANCH   6   8
ENDBRANCH   1   2
BRANCH   1  14
ATOM     14  S   UNL     1      46.046   7.618  11.775  0.00  0.00    +0.000 S 
BRANCH  14  17
ATOM     15  C   UNL     1      48.966   7.141  14.563  0.00  0.00    +0.000 A 
ATOM     16  C   UNL     1      47.708   7.141  13.980  0.00  0.00    +0.000 A 
ATOM     17  C   UNL     1      47.592   7.603  12.674  0.00  0.00    +0.000 A 
ATOM     18  C   UNL     1      48.741   8.032  12.006  0.00  0.00    +0.000 A 
ATOM     19  C   UNL     1      49.956   8.003  12.673  0.00  0.00    +0.000 A 
ATOM     20  N   UNL     1      50.102   7.569  13.941  0.00  0.00    +0.000 NA
BRANCH  15  22
ATOM     21  N   UNL     1      48.487   7.328  16.933  0.00  0.00    +0.000 N 
ATOM     22  C   UNL     1      49.128   6.615  15.955  0.00  0.00    +0.000 C 
ATOM     23  O   UNL     1      49.795   5.623  16.217  0.00  0.00    +0.000 OA
ATOM     24  H   UNL     1      48.583   7.043  17.896  0.00  0.00    +0.000 HD
ATOM     25  H   UNL     1      47.967   8.161  16.684  0.00  0.00    +0.000 HD
ENDBRANCH  15  22
ENDBRANCH  14  17
ENDBRANCH   1  14
TORSDOF 5
ENDMDL
MODEL 9
REMARK VINA RESULT:    -6.589      2.264      7.352
REMARK INTER + INTRA:          -9.112
REMARK INTER:                  -8.464
REMARK INTRA:                  -0.648
REMARK UNBOUND:                -0.598
REMARK  Name = 
REMARK  5 active torsions:
REMARK  status: ('A' for Active; 'I' for Inactive)
REMARK    1  A    between atoms: C_2  and  C_4
REMARK    2  A    between atoms: C_6  and  S_7
REMARK    3  A    between atoms: S_7  and  C_8
REMARK    4  A    between atoms: C_8  and  C_9
REMARK    5  A    between atoms: C_13  and  C_14
REMARK                            x       y       z     vdW  Elec       q    Type
REMARK                         _______ _______ _______ _____ _____    ______ ____
ROOT
ATOM      1  C   UNL     1      46.968   7.055  11.955  0.00  0.00    +0.000 C 
ENDROOT
BRANCH   1   2
ATOM      2  C   UNL     1      47.928   7.085  13.125  0.00  0.00    +0.000 A 
ATOM      3  C   UNL     1      48.927   8.047  13.242  0.00  0.00    +0.000 A 
ATOM      4  C   UNL     1      49.789   7.995  14.326  0.00  0.00    +0.000 A 
ATOM      5  C   UNL     1      49.607   7.012  15.294  0.00  0.00    +0.000 A 
ATOM      6  C   UNL     1      48.562   6.102  15.159  0.00  0.00    +0.000 A 
ATOM      7  N   UNL     1      47.730   6.140  14.084  0.00  0.00    +0.000 NA
BRANCH   6   8
ATOM      8  C   UNL     1      48.272   5.073  16.171  0.00  0.00    +0.000 A 
ATOM      9  C   UNL     1      49.055   4.891  17.322  0.00  0.00    +0.000 A 
ATOM     10  C   UNL     1      48.718   3.926  18.270  0.00  0.00    +0.000 A 
ATOM     11  C   UNL     1      47.596   3.150  18.047  0.00  0.00    +0.000 A 
ATOM     12  N   UNL     1      46.811   3.274  16.960  0.00  0.00    +0.000 NA
ATOM     13  C   UNL     1      47.172   4.219  16.052  0.00  0.00    +0.000 A 
ENDBRANCH   6   8
ENDBRANCH   1   2
BRANCH   1  14
ATOM     14  S   UNL     1      45.184   7.182  12.361  0.00  0.00    +0.000 S 
BRANCH  14  17
ATOM     15  C   UNL     1      44.335   3.741  10.369  0.00  0.00    +0.000 A 
ATOM     16  C   UNL     1      44.859   4.997  10.637  0.00  0.00    +0.000 A 
ATOM     17  C   UNL     1      44.545   5.590  11.855  0.00  0.00    +0.000 A 
ATOM     18  C   UNL     1      43.732   4.896  12.753  0.00  0.00    +0.000 A 
ATOM     19  C   UNL     1      43.247   3.648  12.395  0.00  0.00    +0.000 A 
ATOM     20  N   UNL     1      43.526   3.048  11.220  0.00  0.00    +0.000 NA
BRANCH  15  22
ATOM     21  N   UNL     1      45.009   1.736   9.185  0.00  0.00    +0.000 N 
ATOM     22  C   UNL     1      44.685   3.061   9.082  0.00  0.00    +0.000 C 
ATOM     23  O   UNL     1      44.697   3.644   8.005  0.00  0.00    +0.000 OA
ATOM     24  H   UNL     1      45.286   1.228   8.358  0.00  0.00    +0.000 HD
ATOM     25  H   UNL     1      45.017   1.292  10.097  0.00  0.00    +0.000 HD
ENDBRANCH  15  22
ENDBRANCH  14  17
ENDBRANCH   1  14
TORSDOF 5
ENDMDL
