MODEL 1
REMARK VINA RESULT:    -7.766      0.000      0.000
REMARK INTER + INTRA:          -9.489
REMARK INTER:                  -9.128
REMARK INTRA:                  -0.361
REMARK UNBOUND:                -0.361
REMARK  Name = 
REMARK  4 active torsions:
REMARK  status: ('A' for Active; 'I' for Inactive)
REMARK    1  A    between atoms: C_1  and  N_2
REMARK    2  A    between atoms: C_3  and  C_5
REMARK    3  A    between atoms: N_9  and  C_10
REMARK    4  A    between atoms: C_10  and  C_11
REMARK                            x       y       z     vdW  Elec       q    Type
REMARK                         _______ _______ _______ _____ _____    ______ ____
ROOT
ATOM      1  C   UNL     1      46.433   4.501  13.920  0.00  0.00    +0.000 A 
ATOM      2  C   UNL     1      45.918   5.645  13.344  0.00  0.00    +0.000 A 
ATOM      3  C   UNL     1      45.337   5.541  12.084  0.00  0.00    +0.000 A 
ATOM      4  C   UNL     1      45.251   4.302  11.458  0.00  0.00    +0.000 A 
ATOM      5  N   UNL     1      44.578   4.247  10.235  0.00  0.00    +0.000 N 
ATOM      6  N   UNL     1      45.756   3.204  12.064  0.00  0.00    +0.000 NA
ATOM      7  N   UNL     1      46.371   3.299  13.299  0.00  0.00    +0.000 NA
ATOM      8  H   UNL     1      45.061   4.802   9.532  0.00  0.00    +0.000 HD
ENDROOT
BRANCH   1  11
ATOM      9  C   UNL     1      48.555   5.806  16.767  0.00  0.00    +0.000 C 
ATOM     10  N   UNL     1      47.871   5.645  15.511  0.00  0.00    +0.000 N 
ATOM     11  C   UNL     1      47.069   4.550  15.264  0.00  0.00    +0.000 C 
ATOM     12  O   UNL     1      46.871   3.660  16.086  0.00  0.00    +0.000 OA
ATOM     13  H   UNL     1      47.979   6.336  14.776  0.00  0.00    +0.000 HD
ENDBRANCH   1  11
BRANCH   5  14
ATOM     14  C   UNL     1      44.249   2.921   9.722  0.00  0.00    +0.000 C 
BRANCH  14  15
ATOM     15  C   UNL     1      45.242   2.574   8.626  0.00  0.00    +0.000 A 
ATOM     16  C   UNL     1      45.601   3.542   7.687  0.00  0.00    +0.000 A 
ATOM     17  C   UNL     1      46.554   3.231   6.720  0.00  0.00    +0.000 A 
ATOM     18  C   UNL     1      47.127   1.967   6.718  0.00  0.00    +0.000 A 
ATOM     19  C   UNL     1      46.728   1.065   7.692  0.00  0.00    +0.000 A 
ATOM     20  N   UNL     1      45.809   1.339   8.646  0.00  0.00    +0.000 NA
ENDBRANCH  14  15
ENDBRANCH   5  14
TORSDOF 3
ENDMDL
MODEL 2
REMARK VINA RESULT:    -7.386      1.766      1.929
REMARK INTER + INTRA:          -9.042
REMARK INTER:                  -8.653
REMARK INTRA:                  -0.388
REMARK UNBOUND:                -0.361
REMARK  Name = 
REMARK  4 active torsions:
REMARK  status: ('A' for Active; 'I' for Inactive)
REMARK    1  A    between atoms: C_1  and  N_2
REMARK    2  A    between atoms: C_3  and  C_5
REMARK    3  A    between atoms: N_9  and  C_10
REMARK    4  A    between atoms: C_10  and  C_11
REMARK                            x       y       z     vdW  Elec       q    Type
REMARK                         _______ _______ _______ _____ _____    ______ ____
ROOT
ATOM      1  C   UNL     1      46.837   5.526  13.174  0.00  0.00    +0.000 A 
ATOM      2  C   UNL     1      46.738   4.222  13.616  0.00  0.00    +0.000 A 
ATOM      3  C   UNL     1      45.936   3.344  12.894  0.00  0.00    +0.000 A 
ATOM      4  C   UNL     1      45.293   3.778  11.739  0.00  0.00    +0.000 A 
ATOM      5  N   UNL     1      44.575   2.828  11.010  0.00  0.00    +0.000 N 
ATOM      6  N   UNL     1      45.429   5.061  11.335  0.00  0.00    +0.000 NA
ATOM      7  N   UNL     1      46.191   5.955  12.064  0.00  0.00    +0.000 NA
ATOM      8  H   UNL     1      43.796   2.466  11.557  0.00  0.00    +0.000 HD
ENDROOT
BRANCH   1  11
ATOM      9  C   UNL     1      47.924   8.858  14.602  0.00  0.00    +0.000 C 
ATOM     10  N   UNL     1      47.200   7.806  13.937  0.00  0.00    +0.000 N 
ATOM     11  C   UNL     1      47.677   6.512  13.907  0.00  0.00    +0.000 C 
ATOM     12  O   UNL     1      48.724   6.167  14.448  0.00  0.00    +0.000 OA
ATOM     13  H   UNL     1      46.325   8.005  13.466  0.00  0.00    +0.000 HD
ENDBRANCH   1  11
BRANCH   5  14
ATOM     14  C   UNL     1      44.141   3.215   9.671  0.00  0.00    +0.000 C 
BRANCH  14  15
ATOM     15  C   UNL     1      45.180   2.731   8.673  0.00  0.00    +0.000 A 
ATOM     16  C   UNL     1      45.747   3.635   7.774  0.00  0.00    +0.000 A 
ATOM     17  C   UNL     1      46.739   3.194   6.901  0.00  0.00    +0.000 A 
ATOM     18  C   UNL     1      47.142   1.867   6.952  0.00  0.00    +0.000 A 
ATOM     19  C   UNL     1      46.541   1.034   7.883  0.00  0.00    +0.000 A 
ATOM     20  N   UNL     1      45.579   1.434   8.746  0.00  0.00    +0.000 NA
ENDBRANCH  14  15
ENDBRANCH   5  14
TORSDOF 3
ENDMDL
MODEL 3
REMARK VINA RESULT:    -6.561      2.450      2.571
REMARK INTER + INTRA:          -8.072
REMARK INTER:                  -8.011
REMARK INTRA:                  -0.061
REMARK UNBOUND:                -0.361
REMARK  Name = 
REMARK  4 active torsions:
REMARK  status: ('A' for Active; 'I' for Inactive)
REMARK    1  A    between atoms: C_1  and  N_2
REMARK    2  A    between atoms: C_3  and  C_5
REMARK    3  A    between atoms: N_9  and  C_10
REMARK    4  A    between atoms: C_10  and  C_11
REMARK                            x       y       z     vdW  Elec       q    Type
REMARK                         _______ _______ _______ _____ _____    ______ ____
ROOT
ATOM      1  C   UNL     1      45.260   6.661  11.991  0.00  0.00    +0.000 A 
ATOM      2  C   UNL     1      43.975   6.705  11.487  0.00  0.00    +0.000 A 
ATOM      3  C   UNL     1      43.545   5.645  10.696  0.00  0.00    +0.000 A 
ATOM      4  C   UNL     1      44.386   4.563  10.464  0.00  0.00    +0.000 A 
ATOM      5  N   UNL     1      43.866   3.490   9.736  0.00  0.00    +0.000 N 
ATOM      6  N   UNL     1      45.633   4.554  10.988  0.00  0.00    +0.000 NA
ATOM      7  N   UNL     1      46.089   5.618  11.744  0.00  0.00    +0.000 NA
ATOM      8  H   UNL     1      43.631   3.777   8.788  0.00  0.00    +0.000 HD
ENDROOT
BRANCH   1  11
ATOM      9  C   UNL     1      47.525   8.472  14.421  0.00  0.00    +0.000 C 
ATOM     10  N   UNL     1      46.929   7.493  13.551  0.00  0.00    +0.000 N 
ATOM     11  C   UNL     1      45.778   7.767  12.841  0.00  0.00    +0.000 C 
ATOM     12  O   UNL     1      45.201   8.850  12.885  0.00  0.00    +0.000 OA
ATOM     13  H   UNL     1      47.342   6.572  13.456  0.00  0.00    +0.000 HD
ENDBRANCH   1  11
BRANCH   5  14
ATOM     14  C   UNL     1      44.644   2.256   9.733  0.00  0.00    +0.000 C 
BRANCH  14  15
ATOM     15  C   UNL     1      45.513   2.242   8.487  0.00  0.00    +0.000 A 
ATOM     16  C   UNL     1      45.542   3.361   7.652  0.00  0.00    +0.000 A 
ATOM     17  C   UNL     1      46.384   3.360   6.543  0.00  0.00    +0.000 A 
ATOM     18  C   UNL     1      47.179   2.248   6.299  0.00  0.00    +0.000 A 
ATOM     19  C   UNL     1      47.104   1.182   7.182  0.00  0.00    +0.000 A 
ATOM     20  N   UNL     1      46.300   1.155   8.269  0.00  0.00    +0.000 NA
ENDBRANCH  14  15
ENDBRANCH   5  14
TORSDOF 3
ENDMDL
MODEL 4
REMARK VINA RESULT:    -6.489      2.028      2.461
REMARK INTER + INTRA:          -7.987
REMARK INTER:                  -7.689
REMARK INTRA:                  -0.299
REMARK UNBOUND:                -0.361
REMARK  Name = 
REMARK  4 active torsions:
REMARK  status: ('A' for Active; 'I' for Inactive)
REMARK    1  A    between atoms: C_1  and  N_2
REMARK    2  A    between atoms: C_3  and  C_5
REMARK    3  A    between atoms: N_9  and  C_10
REMARK    4  A    between atoms: C_10  and  C_11
REMARK                            x       y       z     vdW  Elec       q    Type
REMARK                         _______ _______ _______ _____ _____    ______ ____
ROOT
ATOM      1  C   UNL     1      47.898   6.507  13.832  0.00  0.00    +0.000 A 
ATOM      2  C   UNL     1      47.632   7.627  13.069  0.00  0.00    +0.000 A 
ATOM      3  C   UNL     1      46.785   7.489  11.974  0.00  0.00    +0.000 A 
ATOM      4  C   UNL     1      46.202   6.257  11.696  0.00  0.00    +0.000 A 
ATOM      5  N   UNL     1      45.292   6.203  10.638  0.00  0.00    +0.000 N 
ATOM      6  N   UNL     1      46.479   5.189  12.477  0.00  0.00    +0.000 NA
ATOM      7  N   UNL     1      47.349   5.302  13.546  0.00  0.00    +0.000 NA
ATOM      8  H   UNL     1      45.752   6.418   9.755  0.00  0.00    +0.000 HD
ENDROOT
BRANCH   1  11
ATOM      9  C   UNL     1      48.974   6.388  17.457  0.00  0.00    +0.000 C 
ATOM     10  N   UNL     1      48.216   6.326  16.235  0.00  0.00    +0.000 N 
ATOM     11  C   UNL     1      48.798   6.592  15.013  0.00  0.00    +0.000 C 
ATOM     12  O   UNL     1      49.985   6.878  14.880  0.00  0.00    +0.000 OA
ATOM     13  H   UNL     1      47.228   6.096  16.255  0.00  0.00    +0.000 HD
ENDBRANCH   1  11
BRANCH   5  14
ATOM     14  C   UNL     1      44.482   4.994  10.526  0.00  0.00    +0.000 C 
BRANCH  14  15
ATOM     15  C   UNL     1      45.135   4.074   9.508  0.00  0.00    +0.000 A 
ATOM     16  C   UNL     1      45.019   2.691   9.653  0.00  0.00    +0.000 A 
ATOM     17  C   UNL     1      45.572   1.857   8.683  0.00  0.00    +0.000 A 
ATOM     18  C   UNL     1      46.219   2.424   7.594  0.00  0.00    +0.000 A 
ATOM     19  C   UNL     1      46.281   3.806   7.515  0.00  0.00    +0.000 A 
ATOM     20  N   UNL     1      45.750   4.642   8.437  0.00  0.00    +0.000 NA
ENDBRANCH  14  15
ENDBRANCH   5  14
TORSDOF 3
ENDMDL
MODEL 5
REMARK VINA RESULT:    -6.391      2.550      7.386
REMARK INTER + INTRA:          -7.872
REMARK INTER:                  -7.600
REMARK INTRA:                  -0.272
REMARK UNBOUND:                -0.361
REMARK  Name = 
REMARK  4 active torsions:
REMARK  status: ('A' for Active; 'I' for Inactive)
REMARK    1  A    between atoms: C_1  and  N_2
REMARK    2  A    between atoms: C_3  and  C_5
REMARK    3  A    between atoms: N_9  and  C_10
REMARK    4  A    between atoms: C_10  and  C_11
REMARK                            x       y       z     vdW  Elec       q    Type
REMARK                         _______ _______ _______ _____ _____    ______ ____
ROOT
ATOM      1  C   UNL     1      45.252   4.704  11.622  0.00  0.00    +0.000 A 
ATOM      2  C   UNL     1      46.195   5.703  11.758  0.00  0.00    +0.000 A 
ATOM      3  C   UNL     1      46.820   5.851  12.992  0.00  0.00    +0.000 A 
ATOM      4  C   UNL     1      46.519   4.981  14.034  0.00  0.00    +0.000 A 
ATOM      5  N   UNL     1      47.244   5.124  15.219  0.00  0.00    +0.000 N 
ATOM      6  N   UNL     1      45.598   4.007  13.853  0.00  0.00    +0.000 NA
ATOM      7  N   UNL     1      44.940   3.872  12.645  0.00  0.00    +0.000 NA
ATOM      8  H   UNL     1      47.062   6.030  15.646  0.00  0.00    +0.000 HD
ENDROOT
BRANCH   1  11
ATOM      9  C   UNL     1      44.711   3.620   8.037  0.00  0.00    +0.000 C 
ATOM     10  N   UNL     1      45.273   3.866   9.340  0.00  0.00    +0.000 N 
ATOM     11  C   UNL     1      44.547   4.499  10.328  0.00  0.00    +0.000 C 
ATOM     12  O   UNL     1      43.388   4.875  10.177  0.00  0.00    +0.000 OA
ATOM     13  H   UNL     1      46.225   3.587   9.549  0.00  0.00    +0.000 HD
ENDBRANCH   1  11
BRANCH   5  14
ATOM     14  C   UNL     1      47.126   4.049  16.198  0.00  0.00    +0.000 C 
BRANCH  14  15
ATOM     15  C   UNL     1      48.516   3.717  16.715  0.00  0.00    +0.000 A 
ATOM     16  C   UNL     1      48.933   2.386  16.770  0.00  0.00    +0.000 A 
ATOM     17  C   UNL     1      50.228   2.097  17.192  0.00  0.00    +0.000 A 
ATOM     18  C   UNL     1      51.075   3.140  17.540  0.00  0.00    +0.000 A 
ATOM     19  C   UNL     1      50.591   4.436  17.445  0.00  0.00    +0.000 A 
ATOM     20  N   UNL     1      49.340   4.749  17.036  0.00  0.00    +0.000 NA
ENDBRANCH  14  15
ENDBRANCH   5  14
TORSDOF 3
ENDMDL
MODEL 6
REMARK VINA RESULT:    -6.308      1.433      1.997
REMARK INTER + INTRA:          -7.775
REMARK INTER:                  -7.405
REMARK INTRA:                  -0.370
REMARK UNBOUND:                -0.361
REMARK  Name = 
REMARK  4 active torsions:
REMARK  status: ('A' for Active; 'I' for Inactive)
REMARK    1  A    between atoms: C_1  and  N_2
REMARK    2  A    between atoms: C_3  and  C_5
REMARK    3  A    between atoms: N_9  and  C_10
REMARK    4  A    between atoms: C_10  and  C_11
REMARK                            x       y       z     vdW  Elec       q    Type
REMARK                         _______ _______ _______ _____ _____    ______ ____
ROOT
ATOM      1  C   UNL     1      47.395   4.781  15.258  0.00  0.00    +0.000 A 
ATOM      2  C   UNL     1      47.759   5.953  14.626  0.00  0.00    +0.000 A 
ATOM      3  C   UNL     1      47.191   6.234  13.388  0.00  0.00    +0.000 A 
ATOM      4  C   UNL     1      46.255   5.365  12.838  0.00  0.00    +0.000 A 
ATOM      5  N   UNL     1      45.655   5.747  11.635  0.00  0.00    +0.000 N 
ATOM      6  N   UNL     1      45.918   4.234  13.497  0.00  0.00    +0.000 NA
ATOM      7  N   UNL     1      46.502   3.922  14.710  0.00  0.00    +0.000 NA
ATOM      8  H   UNL     1      46.346   5.806  10.890  0.00  0.00    +0.000 HD
ENDROOT
BRANCH   1  11
ATOM      9  C   UNL     1      49.159   5.244  18.573  0.00  0.00    +0.000 C 
ATOM     10  N   UNL     1      48.553   5.459  17.285  0.00  0.00    +0.000 N 
ATOM     11  C   UNL     1      47.971   4.424  16.582  0.00  0.00    +0.000 C 
ATOM     12  O   UNL     1      47.913   3.272  17.004  0.00  0.00    +0.000 OA
ATOM     13  H   UNL     1      48.556   6.381  16.864  0.00  0.00    +0.000 HD
ENDBRANCH   1  11
BRANCH   5  14
ATOM     14  C   UNL     1      44.489   4.981  11.209  0.00  0.00    +0.000 C 
BRANCH  14  15
ATOM     15  C   UNL     1      44.888   4.125  10.018  0.00  0.00    +0.000 A 
ATOM     16  C   UNL     1      45.580   4.704   8.953  0.00  0.00    +0.000 A 
ATOM     17  C   UNL     1      45.990   3.899   7.893  0.00  0.00    +0.000 A 
ATOM     18  C   UNL     1      45.706   2.541   7.925  0.00  0.00    +0.000 A 
ATOM     19  C   UNL     1      45.027   2.039   9.025  0.00  0.00    +0.000 A 
ATOM     20  N   UNL     1      44.619   2.794  10.071  0.00  0.00    +0.000 NA
ENDBRANCH  14  15
ENDBRANCH   5  14
TORSDOF 3
ENDMDL
MODEL 7
REMARK VINA RESULT:    -6.234      2.598      6.506
REMARK INTER + INTRA:          -7.688
REMARK INTER:                  -7.569
REMARK INTRA:                  -0.119
REMARK UNBOUND:                -0.361
REMARK  Name = 
REMARK  4 active torsions:
REMARK  status: ('A' for Active; 'I' for Inactive)
REMARK    1  A    between atoms: C_1  and  N_2
REMARK    2  A    between atoms: C_3  and  C_5
REMARK    3  A    between atoms: N_9  and  C_10
REMARK    4  A    between atoms: C_10  and  C_11
REMARK                            x       y       z     vdW  Elec       q    Type
REMARK                         _______ _______ _______ _____ _____    ______ ____
ROOT
ATOM      1  C   UNL     1      45.678   2.682   8.401  0.00  0.00    +0.000 A 
ATOM      2  C   UNL     1      44.939   3.779   8.004  0.00  0.00    +0.000 A 
ATOM      3  C   UNL     1      44.117   4.391   8.944  0.00  0.00    +0.000 A 
ATOM      4  C   UNL     1      44.084   3.920  10.252  0.00  0.00    +0.000 A 
ATOM      5  N   UNL     1      43.308   4.630  11.171  0.00  0.00    +0.000 N 
ATOM      6  N   UNL     1      44.834   2.849  10.601  0.00  0.00    +0.000 NA
ATOM      7  N   UNL     1      45.626   2.207   9.668  0.00  0.00    +0.000 NA
ATOM      8  H   UNL     1      42.323   4.596  10.914  0.00  0.00    +0.000 HD
ENDROOT
BRANCH   1  11
ATOM      9  C   UNL     1      47.918   2.191   5.391  0.00  0.00    +0.000 C 
ATOM     10  N   UNL     1      47.054   2.750   6.398  0.00  0.00    +0.000 N 
ATOM     11  C   UNL     1      46.572   1.984   7.439  0.00  0.00    +0.000 C 
ATOM     12  O   UNL     1      46.855   0.798   7.590  0.00  0.00    +0.000 OA
ATOM     13  H   UNL     1      46.772   3.723   6.349  0.00  0.00    +0.000 HD
ENDBRANCH   1  11
BRANCH   5  14
ATOM     14  C   UNL     1      43.493   4.305  12.581  0.00  0.00    +0.000 C 
BRANCH  14  15
ATOM     15  C   UNL     1      44.850   4.830  13.019  0.00  0.00    +0.000 A 
ATOM     16  C   UNL     1      45.212   6.144  12.718  0.00  0.00    +0.000 A 
ATOM     17  C   UNL     1      46.434   6.633  13.172  0.00  0.00    +0.000 A 
ATOM     18  C   UNL     1      47.259   5.804  13.919  0.00  0.00    +0.000 A 
ATOM     19  C   UNL     1      46.822   4.516  14.188  0.00  0.00    +0.000 A 
ATOM     20  N   UNL     1      45.640   4.013  13.764  0.00  0.00    +0.000 NA
ENDBRANCH  14  15
ENDBRANCH   5  14
TORSDOF 3
ENDMDL
MODEL 8
REMARK VINA RESULT:    -5.996      3.545      5.594
REMARK INTER + INTRA:          -7.408
REMARK INTER:                  -7.184
REMARK INTRA:                  -0.224
REMARK UNBOUND:                -0.361
REMARK  Name = 
REMARK  4 active torsions:
REMARK  status: ('A' for Active; 'I' for Inactive)
REMARK    1  A    between atoms: C_1  and  N_2
REMARK    2  A    between atoms: C_3  and  C_5
REMARK    3  A    between atoms: N_9  and  C_10
REMARK    4  A    between atoms: C_10  and  C_11
REMARK                            x       y       z     vdW  Elec       q    Type
REMARK                         _______ _______ _______ _____ _____    ______ ____
ROOT
ATOM      1  C   UNL     1      49.752   4.115  17.684  0.00  0.00    +0.000 A 
ATOM      2  C   UNL     1      48.707   3.239  17.906  0.00  0.00    +0.000 A 
ATOM      3  C   UNL     1      47.586   3.337  17.089  0.00  0.00    +0.000 A 
ATOM      4  C   UNL     1      47.554   4.270  16.059  0.00  0.00    +0.000 A 
ATOM      5  N   UNL     1      46.438   4.260  15.218  0.00  0.00    +0.000 N 
ATOM      6  N   UNL     1      48.604   5.100  15.869  0.00  0.00    +0.000 NA
ATOM      7  N   UNL     1      49.710   5.041  16.697  0.00  0.00    +0.000 NA
ATOM      8  H   UNL     1      45.593   4.493  15.736  0.00  0.00    +0.000 HD
ENDROOT
BRANCH   1  11
ATOM      9  C   UNL     1      53.114   2.919  18.941  0.00  0.00    +0.000 C 
ATOM     10  N   UNL     1      51.894   3.086  18.196  0.00  0.00    +0.000 N 
ATOM     11  C   UNL     1      50.976   4.061  18.527  0.00  0.00    +0.000 C 
ATOM     12  O   UNL     1      51.138   4.853  19.452  0.00  0.00    +0.000 OA
ATOM     13  H   UNL     1      51.682   2.474  17.415  0.00  0.00    +0.000 HD
ENDBRANCH   1  11
BRANCH   5  14
ATOM     14  C   UNL     1      46.532   5.040  13.988  0.00  0.00    +0.000 C 
BRANCH  14  15
ATOM     15  C   UNL     1      45.332   4.706  13.118  0.00  0.00    +0.000 A 
ATOM     16  C   UNL     1      45.342   3.544  12.344  0.00  0.00    +0.000 A 
ATOM     17  C   UNL     1      44.215   3.219  11.594  0.00  0.00    +0.000 A 
ATOM     18  C   UNL     1      43.108   4.054  11.639  0.00  0.00    +0.000 A 
ATOM     19  C   UNL     1      43.170   5.182  12.442  0.00  0.00    +0.000 A 
ATOM     20  N   UNL     1      44.248   5.523  13.185  0.00  0.00    +0.000 NA
ENDBRANCH  14  15
ENDBRANCH   5  14
TORSDOF 3
ENDMDL
MODEL 9
REMARK VINA RESULT:    -5.354      4.585      7.451
REMARK INTER + INTRA:          -6.654
REMARK INTER:                  -6.314
REMARK INTRA:                  -0.340
REMARK UNBOUND:                -0.361
REMARK  Name = 
REMARK  4 active torsions:
REMARK  status: ('A' for Active; 'I' for Inactive)
REMARK    1  A    between atoms: C_1  and  N_2
REMARK    2  A    between atoms: C_3  and  C_5
REMARK    3  A    between atoms: N_9  and  C_10
REMARK    4  A    between atoms: C_10  and  C_11
REMARK                            x       y       z     vdW  Elec       q    Type
REMARK                         _______ _______ _______ _____ _____    ______ ____
ROOT
ATOM      1  C   UNL     1      51.977   1.856  17.598  0.00  0.00    +0.000 A 
ATOM      2  C   UNL     1      51.985   3.119  18.155  0.00  0.00    +0.000 A 
ATOM      3  C   UNL     1      50.901   3.954  17.904  0.00  0.00    +0.000 A 
ATOM      4  C   UNL     1      49.831   3.496  17.143  0.00  0.00    +0.000 A 
ATOM      5  N   UNL     1      48.734   4.348  17.001  0.00  0.00    +0.000 N 
ATOM      6  N   UNL     1      49.858   2.246  16.627  0.00  0.00    +0.000 NA
ATOM      7  N   UNL     1      50.946   1.419  16.836  0.00  0.00    +0.000 NA
ATOM      8  H   UNL     1      48.997   5.194  16.500  0.00  0.00    +0.000 HD
ENDROOT
BRANCH   1  11
ATOM      9  C   UNL     1      54.550  -0.814  16.844  0.00  0.00    +0.000 C 
ATOM     10  N   UNL     1      53.478   0.142  16.749  0.00  0.00    +0.000 N 
ATOM     11  C   UNL     1      53.110   0.920  17.828  0.00  0.00    +0.000 C 
ATOM     12  O   UNL     1      53.669   0.866  18.920  0.00  0.00    +0.000 OA
ATOM     13  H   UNL     1      52.963   0.251  15.882  0.00  0.00    +0.000 HD
ENDBRANCH   1  11
BRANCH   5  14
ATOM     14  C   UNL     1      47.516   3.767  16.446  0.00  0.00    +0.000 C 
BRANCH  14  15
ATOM     15  C   UNL     1      47.172   4.510  15.166  0.00  0.00    +0.000 A 
ATOM     16  C   UNL     1      47.879   5.665  14.827  0.00  0.00    +0.000 A 
ATOM     17  C   UNL     1      47.595   6.307  13.624  0.00  0.00    +0.000 A 
ATOM     18  C   UNL     1      46.620   5.778  12.789  0.00  0.00    +0.000 A 
ATOM     19  C   UNL     1      45.971   4.621  13.191  0.00  0.00    +0.000 A 
ATOM     20  N   UNL     1      46.228   3.973  14.350  0.00  0.00    +0.000 NA
ENDBRANCH  14  15
ENDBRANCH   5  14
TORSDOF 3
ENDMDL
