MODEL 1
REMARK VINA RESULT:    -6.992      0.000      0.000
REMARK INTER + INTRA:         -11.594
REMARK INTER:                  -9.854
REMARK INTRA:                  -1.741
REMARK UNBOUND:                -1.741
REMARK  Name = 
REMARK  7 active torsions:
REMARK  status: ('A' for Active; 'I' for Inactive)
REMARK    1  A    between atoms: C_2  and  C_3
REMARK    2  A    between atoms: C_6  and  C_7
REMARK    3  A    between atoms: N_9  and  C_10
REMARK    4  A    between atoms: C_10  and  C_11
REMARK    5  A    between atoms: C_14  and  C_15
REMARK    6  A    between atoms: C_15  and  N_16
REMARK    7  A    between atoms: C_17  and  C_19
REMARK                            x       y       z     vdW  Elec       q    Type
REMARK                         _______ _______ _______ _____ _____    ______ ____
ROOT
ATOM      1  C   UNL     1      49.503   8.076  15.351  0.00  0.00    +0.000 A 
ATOM      2  C   UNL     1      48.173   8.502  15.242  0.00  0.00    +0.000 A 
ATOM      3  C   UNL     1      47.502   8.446  14.014  0.00  0.00    +0.000 A 
ATOM      4  C   UNL     1      48.143   7.944  12.872  0.00  0.00    +0.000 A 
ATOM      5  C   UNL     1      49.478   7.530  12.983  0.00  0.00    +0.000 A 
ATOM      6  C   UNL     1      50.146   7.580  14.211  0.00  0.00    +0.000 A 
ENDROOT
BRANCH   1   7
ATOM      7  C   UNL     1      50.222   8.146  16.671  0.00  0.00    +0.000 C 
BRANCH   7  10
ATOM      8  C   UNL     1      49.889   5.910  17.582  0.00  0.00    +0.000 C 
ATOM      9  O   UNL     1      50.649   5.420  16.753  0.00  0.00    +0.000 OA
ATOM     10  N   UNL     1      49.640   7.263  17.653  0.00  0.00    +0.000 N 
ATOM     11  H   UNL     1      48.982   7.645  18.319  0.00  0.00    +0.000 HD
BRANCH   8  15
ATOM     12  C   UNL     1      47.310   4.036  17.461  0.00  0.00    +0.000 C 
ATOM     13  C   UNL     1      48.315   2.927  17.771  0.00  0.00    +0.000 C 
ATOM     14  C   UNL     1      49.478   3.577  18.531  0.00  0.00    +0.000 C 
ATOM     15  C   UNL     1      49.163   5.075  18.632  0.00  0.00    +0.000 C 
ATOM     16  C   UNL     1      47.644   5.136  18.470  0.00  0.00    +0.000 C 
BRANCH  12  18
ATOM     17  N   UNL     1      47.520   4.850  14.965  0.00  0.00    +0.000 NA
ATOM     18  C   UNL     1      47.407   4.487  16.058  0.00  0.00    +0.000 C 
ENDBRANCH  12  18
ENDBRANCH   8  15
ENDBRANCH   7  10
ENDBRANCH   1   7
BRANCH   4  19
ATOM     19  C   UNL     1      47.434   7.851  11.541  0.00  0.00    +0.000 C 
BRANCH  19  20
ATOM     20  N   UNL     1      46.746   6.596  11.383  0.00  0.00    +0.000 N 
ATOM     21  C   UNL     1      45.384   6.494  11.543  0.00  0.00    +0.000 C 
ATOM     22  O   UNL     1      44.676   7.463  11.797  0.00  0.00    +0.000 OA
ATOM     23  H   UNL     1      47.306   5.757  11.494  0.00  0.00    +0.000 HD
BRANCH  21  24
ATOM     24  C   UNL     1      44.813   5.158  11.322  0.00  0.00    +0.000 A 
ATOM     25  C   UNL     1      44.049   4.550  12.308  0.00  0.00    +0.000 A 
ATOM     26  S   UNL     1      43.439   3.021  11.852  0.00  0.00    +0.000 S 
ATOM     27  C   UNL     1      44.214   3.100  10.340  0.00  0.00    +0.000 A 
ATOM     28  N   UNL     1      44.127   2.078   9.447  0.00  0.00    +0.000 NA
ATOM     29  C   UNL     1      44.785   2.265   8.353  0.00  0.00    +0.000 A 
ATOM     30  N   UNL     1      45.518   3.385   8.065  0.00  0.00    +0.000 N 
ATOM     31  C   UNL     1      45.603   4.459   8.916  0.00  0.00    +0.000 A 
ATOM     32  O   UNL     1      46.210   5.477   8.598  0.00  0.00    +0.000 OA
ATOM     33  C   UNL     1      44.904   4.290  10.174  0.00  0.00    +0.000 A 
ATOM     34  H   UNL     1      45.996   3.483   7.180  0.00  0.00    +0.000 HD
ENDBRANCH  21  24
ENDBRANCH  19  20
ENDBRANCH   4  19
TORSDOF 7
ENDMDL
MODEL 2
REMARK VINA RESULT:    -6.864      1.649      2.394
REMARK INTER + INTRA:         -11.414
REMARK INTER:                  -9.708
REMARK INTRA:                  -1.705
REMARK UNBOUND:                -1.741
REMARK  Name = 
REMARK  7 active torsions:
REMARK  status: ('A' for Active; 'I' for Inactive)
REMARK    1  A    between atoms: C_2  and  C_3
REMARK    2  A    between atoms: C_6  and  C_7
REMARK    3  A    between atoms: N_9  and  C_10
REMARK    4  A    between atoms: C_10  and  C_11
REMARK    5  A    between atoms: C_14  and  C_15
REMARK    6  A    between atoms: C_15  and  N_16
REMARK    7  A    between atoms: C_17  and  C_19
REMARK                            x       y       z     vdW  Elec       q    Type
REMARK                         _______ _______ _______ _____ _____    ______ ____
ROOT
ATOM      1  C   UNL     1      49.027   7.842  16.129  0.00  0.00    +0.000 A 
ATOM      2  C   UNL     1      49.571   6.925  15.220  0.00  0.00    +0.000 A 
ATOM      3  C   UNL     1      49.306   7.035  13.849  0.00  0.00    +0.000 A 
ATOM      4  C   UNL     1      48.505   8.076  13.357  0.00  0.00    +0.000 A 
ATOM      5  C   UNL     1      47.954   8.984  14.271  0.00  0.00    +0.000 A 
ATOM      6  C   UNL     1      48.223   8.878  15.639  0.00  0.00    +0.000 A 
ENDROOT
BRANCH   1   7
ATOM      7  C   UNL     1      49.308   7.716  17.602  0.00  0.00    +0.000 C 
BRANCH   7  10
ATOM      8  C   UNL     1      48.676   5.524  18.461  0.00  0.00    +0.000 C 
ATOM      9  O   UNL     1      47.495   5.852  18.529  0.00  0.00    +0.000 OA
ATOM     10  N   UNL     1      49.652   6.364  17.975  0.00  0.00    +0.000 N 
ATOM     11  H   UNL     1      50.625   6.091  17.960  0.00  0.00    +0.000 HD
BRANCH   8  15
ATOM     12  C   UNL     1      48.517   2.643  17.100  0.00  0.00    +0.000 C 
ATOM     13  C   UNL     1      50.036   2.790  17.017  0.00  0.00    +0.000 C 
ATOM     14  C   UNL     1      50.459   3.723  18.158  0.00  0.00    +0.000 C 
ATOM     15  C   UNL     1      49.176   4.148  18.885  0.00  0.00    +0.000 C 
ATOM     16  C   UNL     1      48.181   3.039  18.539  0.00  0.00    +0.000 C 
BRANCH  12  18
ATOM     17  N   UNL     1      47.292   4.102  15.280  0.00  0.00    +0.000 NA
ATOM     18  C   UNL     1      47.830   3.478  16.093  0.00  0.00    +0.000 C 
ENDBRANCH  12  18
ENDBRANCH   8  15
ENDBRANCH   7  10
ENDBRANCH   1   7
BRANCH   4  19
ATOM     19  C   UNL     1      48.224   8.230  11.880  0.00  0.00    +0.000 C 
BRANCH  19  20
ATOM     20  N   UNL     1      47.547   7.081  11.337  0.00  0.00    +0.000 N 
ATOM     21  C   UNL     1      46.177   6.962  11.379  0.00  0.00    +0.000 C 
ATOM     22  O   UNL     1      45.455   7.835  11.849  0.00  0.00    +0.000 OA
ATOM     23  H   UNL     1      48.099   6.235  11.243  0.00  0.00    +0.000 HD
BRANCH  21  24
ATOM     24  C   UNL     1      45.622   5.751  10.759  0.00  0.00    +0.000 A 
ATOM     25  C   UNL     1      45.827   5.496   9.411  0.00  0.00    +0.000 A 
ATOM     26  S   UNL     1      45.141   4.023   8.884  0.00  0.00    +0.000 S 
ATOM     27  C   UNL     1      44.508   3.700  10.429  0.00  0.00    +0.000 A 
ATOM     28  N   UNL     1      43.768   2.584  10.670  0.00  0.00    +0.000 NA
ATOM     29  C   UNL     1      43.332   2.482  11.880  0.00  0.00    +0.000 A 
ATOM     30  N   UNL     1      43.574   3.391  12.876  0.00  0.00    +0.000 N 
ATOM     31  C   UNL     1      44.348   4.509  12.692  0.00  0.00    +0.000 A 
ATOM     32  O   UNL     1      44.604   5.266  13.623  0.00  0.00    +0.000 OA
ATOM     33  C   UNL     1      44.840   4.688  11.341  0.00  0.00    +0.000 A 
ATOM     34  H   UNL     1      43.222   3.245  13.812  0.00  0.00    +0.000 HD
ENDBRANCH  21  24
ENDBRANCH  19  20
ENDBRANCH   4  19
TORSDOF 7
ENDMDL
MODEL 3
REMARK VINA RESULT:    -6.295      5.238      7.710
REMARK INTER + INTRA:         -10.612
REMARK INTER:                  -9.445
REMARK INTRA:                  -1.167
REMARK UNBOUND:                -1.741
REMARK  Name = 
REMARK  7 active torsions:
REMARK  status: ('A' for Active; 'I' for Inactive)
REMARK    1  A    between atoms: C_2  and  C_3
REMARK    2  A    between atoms: C_6  and  C_7
REMARK    3  A    between atoms: N_9  and  C_10
REMARK    4  A    between atoms: C_10  and  C_11
REMARK    5  A    between atoms: C_14  and  C_15
REMARK    6  A    between atoms: C_15  and  N_16
REMARK    7  A    between atoms: C_17  and  C_19
REMARK                            x       y       z     vdW  Elec       q    Type
REMARK                         _______ _______ _______ _____ _____    ______ ____
ROOT
ATOM      1  C   UNL     1      47.216   8.271  12.240  0.00  0.00    +0.000 A 
ATOM      2  C   UNL     1      47.974   7.093  12.257  0.00  0.00    +0.000 A 
ATOM      3  C   UNL     1      49.357   7.129  12.042  0.00  0.00    +0.000 A 
ATOM      4  C   UNL     1      50.015   8.348  11.824  0.00  0.00    +0.000 A 
ATOM      5  C   UNL     1      49.251   9.523  11.796  0.00  0.00    +0.000 A 
ATOM      6  C   UNL     1      47.870   9.488  12.016  0.00  0.00    +0.000 A 
ENDROOT
BRANCH   1   7
ATOM      7  C   UNL     1      45.729   8.226  12.463  0.00  0.00    +0.000 C 
BRANCH   7  10
ATOM      8  C   UNL     1      44.348   6.253  12.085  0.00  0.00    +0.000 C 
ATOM      9  O   UNL     1      44.172   6.102  13.291  0.00  0.00    +0.000 OA
ATOM     10  N   UNL     1      45.073   7.303  11.567  0.00  0.00    +0.000 N 
ATOM     11  H   UNL     1      45.239   7.391  10.574  0.00  0.00    +0.000 HD
BRANCH   8  15
ATOM     12  C   UNL     1      44.862   3.179  11.407  0.00  0.00    +0.000 C 
ATOM     13  C   UNL     1      43.414   3.014  11.869  0.00  0.00    +0.000 C 
ATOM     14  C   UNL     1      42.709   4.353  11.618  0.00  0.00    +0.000 C 
ATOM     15  C   UNL     1      43.762   5.309  11.041  0.00  0.00    +0.000 C 
ATOM     16  C   UNL     1      44.817   4.372  10.452  0.00  0.00    +0.000 C 
BRANCH  12  18
ATOM     17  N   UNL     1      46.469   3.551  13.461  0.00  0.00    +0.000 NA
ATOM     18  C   UNL     1      45.780   3.382  12.547  0.00  0.00    +0.000 C 
ENDBRANCH  12  18
ENDBRANCH   8  15
ENDBRANCH   7  10
ENDBRANCH   1   7
BRANCH   4  19
ATOM     19  C   UNL     1      51.510   8.417  11.613  0.00  0.00    +0.000 C 
BRANCH  19  20
ATOM     20  N   UNL     1      51.886   8.014  10.283  0.00  0.00    +0.000 N 
ATOM     21  C   UNL     1      52.853   8.685   9.571  0.00  0.00    +0.000 C 
ATOM     22  O   UNL     1      53.468   9.640  10.034  0.00  0.00    +0.000 OA
ATOM     23  H   UNL     1      51.206   7.465   9.769  0.00  0.00    +0.000 HD
BRANCH  21  24
ATOM     24  C   UNL     1      53.156   8.143   8.239  0.00  0.00    +0.000 A 
ATOM     25  C   UNL     1      53.140   8.971   7.125  0.00  0.00    +0.000 A 
ATOM     26  S   UNL     1      53.558   8.170   5.675  0.00  0.00    +0.000 S 
ATOM     27  C   UNL     1      53.729   6.681   6.480  0.00  0.00    +0.000 A 
ATOM     28  N   UNL     1      54.053   5.546   5.805  0.00  0.00    +0.000 NA
ATOM     29  C   UNL     1      54.124   4.488   6.539  0.00  0.00    +0.000 A 
ATOM     30  N   UNL     1      53.908   4.461   7.891  0.00  0.00    +0.000 N 
ATOM     31  C   UNL     1      53.619   5.586   8.623  0.00  0.00    +0.000 A 
ATOM     32  O   UNL     1      53.501   5.539   9.843  0.00  0.00    +0.000 OA
ATOM     33  C   UNL     1      53.499   6.800   7.841  0.00  0.00    +0.000 A 
ATOM     34  H   UNL     1      53.999   3.602   8.417  0.00  0.00    +0.000 HD
ENDBRANCH  21  24
ENDBRANCH  19  20
ENDBRANCH   4  19
TORSDOF 7
ENDMDL
MODEL 4
REMARK VINA RESULT:    -6.186      3.975      9.092
REMARK INTER + INTRA:         -10.459
REMARK INTER:                  -9.342
REMARK INTRA:                  -1.117
REMARK UNBOUND:                -1.741
REMARK  Name = 
REMARK  7 active torsions:
REMARK  status: ('A' for Active; 'I' for Inactive)
REMARK    1  A    between atoms: C_2  and  C_3
REMARK    2  A    between atoms: C_6  and  C_7
REMARK    3  A    between atoms: N_9  and  C_10
REMARK    4  A    between atoms: C_10  and  C_11
REMARK    5  A    between atoms: C_14  and  C_15
REMARK    6  A    between atoms: C_15  and  N_16
REMARK    7  A    between atoms: C_17  and  C_19
REMARK                            x       y       z     vdW  Elec       q    Type
REMARK                         _______ _______ _______ _____ _____    ______ ____
ROOT
ATOM      1  C   UNL     1      47.714   5.518  14.823  0.00  0.00    +0.000 A 
ATOM      2  C   UNL     1      47.207   4.423  15.535  0.00  0.00    +0.000 A 
ATOM      3  C   UNL     1      47.618   4.173  16.851  0.00  0.00    +0.000 A 
ATOM      4  C   UNL     1      48.532   5.026  17.488  0.00  0.00    +0.000 A 
ATOM      5  C   UNL     1      49.044   6.113  16.768  0.00  0.00    +0.000 A 
ATOM      6  C   UNL     1      48.629   6.366  15.456  0.00  0.00    +0.000 A 
ENDROOT
BRANCH   1   7
ATOM      7  C   UNL     1      47.275   5.778  13.408  0.00  0.00    +0.000 C 
BRANCH   7  10
ATOM      8  C   UNL     1      45.107   5.596  12.309  0.00  0.00    +0.000 C 
ATOM      9  O   UNL     1      45.195   6.739  11.869  0.00  0.00    +0.000 OA
ATOM     10  N   UNL     1      46.106   5.009  13.052  0.00  0.00    +0.000 N 
ATOM     11  H   UNL     1      46.001   4.081  13.438  0.00  0.00    +0.000 HD
BRANCH   8  15
ATOM     12  C   UNL     1      44.005   4.112   9.709  0.00  0.00    +0.000 C 
ATOM     13  C   UNL     1      44.339   2.848  10.501  0.00  0.00    +0.000 C 
ATOM     14  C   UNL     1      44.248   3.215  11.988  0.00  0.00    +0.000 C 
ATOM     15  C   UNL     1      43.894   4.706  12.058  0.00  0.00    +0.000 C 
ATOM     16  C   UNL     1      43.241   4.987  10.704  0.00  0.00    +0.000 C 
BRANCH  12  18
ATOM     17  N   UNL     1      46.162   5.306   8.780  0.00  0.00    +0.000 NA
ATOM     18  C   UNL     1      45.221   4.763   9.178  0.00  0.00    +0.000 C 
ENDBRANCH  12  18
ENDBRANCH   8  15
ENDBRANCH   7  10
ENDBRANCH   1   7
BRANCH   4  19
ATOM     19  C   UNL     1      48.973   4.792  18.914  0.00  0.00    +0.000 C 
BRANCH  19  20
ATOM     20  N   UNL     1      50.176   4.004  18.985  0.00  0.00    +0.000 N 
ATOM     21  C   UNL     1      51.422   4.585  18.977  0.00  0.00    +0.000 C 
ATOM     22  O   UNL     1      51.581   5.801  18.940  0.00  0.00    +0.000 OA
ATOM     23  H   UNL     1      50.096   3.034  18.698  0.00  0.00    +0.000 HD
BRANCH  21  24
ATOM     24  C   UNL     1      52.559   3.660  19.085  0.00  0.00    +0.000 A 
ATOM     25  C   UNL     1      53.635   3.964  19.906  0.00  0.00    +0.000 A 
ATOM     26  S   UNL     1      54.837   2.751  19.932  0.00  0.00    +0.000 S 
ATOM     27  C   UNL     1      53.981   1.800  18.812  0.00  0.00    +0.000 A 
ATOM     28  N   UNL     1      54.477   0.613  18.368  0.00  0.00    +0.000 NA
ATOM     29  C   UNL     1      53.733   0.013  17.502  0.00  0.00    +0.000 A 
ATOM     30  N   UNL     1      52.533   0.485  17.043  0.00  0.00    +0.000 N 
ATOM     31  C   UNL     1      51.972   1.656  17.491  0.00  0.00    +0.000 A 
ATOM     32  O   UNL     1      50.862   2.016  17.112  0.00  0.00    +0.000 OA
ATOM     33  C   UNL     1      52.781   2.386  18.446  0.00  0.00    +0.000 A 
ATOM     34  H   UNL     1      51.983  -0.042  16.378  0.00  0.00    +0.000 HD
ENDBRANCH  21  24
ENDBRANCH  19  20
ENDBRANCH   4  19
TORSDOF 7
ENDMDL
MODEL 5
REMARK VINA RESULT:    -6.146      3.173      8.073
REMARK INTER + INTRA:         -10.401
REMARK INTER:                  -9.035
REMARK INTRA:                  -1.366
REMARK UNBOUND:                -1.741
REMARK  Name = 
REMARK  7 active torsions:
REMARK  status: ('A' for Active; 'I' for Inactive)
REMARK    1  A    between atoms: C_2  and  C_3
REMARK    2  A    between atoms: C_6  and  C_7
REMARK    3  A    between atoms: N_9  and  C_10
REMARK    4  A    between atoms: C_10  and  C_11
REMARK    5  A    between atoms: C_14  and  C_15
REMARK    6  A    between atoms: C_15  and  N_16
REMARK    7  A    between atoms: C_17  and  C_19
REMARK                            x       y       z     vdW  Elec       q    Type
REMARK                         _______ _______ _______ _____ _____    ______ ____
ROOT
ATOM      1  C   UNL     1      47.574   6.945  12.034  0.00  0.00    +0.000 A 
ATOM      2  C   UNL     1      47.196   6.313  13.226  0.00  0.00    +0.000 A 
ATOM      3  C   UNL     1      47.915   6.529  14.409  0.00  0.00    +0.000 A 
ATOM      4  C   UNL     1      49.016   7.397  14.428  0.00  0.00    +0.000 A 
ATOM      5  C   UNL     1      49.397   8.018  13.230  0.00  0.00    +0.000 A 
ATOM      6  C   UNL     1      48.677   7.807  12.050  0.00  0.00    +0.000 A 
ENDROOT
BRANCH   1   7
ATOM      7  C   UNL     1      46.805   6.703  10.764  0.00  0.00    +0.000 C 
BRANCH   7  10
ATOM      8  C   UNL     1      44.990   5.160  10.250  0.00  0.00    +0.000 C 
ATOM      9  O   UNL     1      45.660   4.603   9.386  0.00  0.00    +0.000 OA
ATOM     10  N   UNL     1      45.480   6.189  11.022  0.00  0.00    +0.000 N 
ATOM     11  H   UNL     1      44.902   6.661  11.703  0.00  0.00    +0.000 HD
BRANCH   8  15
ATOM     12  C   UNL     1      43.716   3.302  12.510  0.00  0.00    +0.000 C 
ATOM     13  C   UNL     1      43.088   4.611  12.988  0.00  0.00    +0.000 C 
ATOM     14  C   UNL     1      42.964   5.523  11.761  0.00  0.00    +0.000 C 
ATOM     15  C   UNL     1      43.556   4.752  10.572  0.00  0.00    +0.000 C 
ATOM     16  C   UNL     1      43.453   3.289  11.004  0.00  0.00    +0.000 C 
BRANCH  12  18
ATOM     17  N   UNL     1      46.268   3.165  13.152  0.00  0.00    +0.000 NA
ATOM     18  C   UNL     1      45.153   3.228  12.849  0.00  0.00    +0.000 C 
ENDBRANCH  12  18
ENDBRANCH   8  15
ENDBRANCH   7  10
ENDBRANCH   1   7
BRANCH   4  19
ATOM     19  C   UNL     1      49.792   7.666  15.696  0.00  0.00    +0.000 C 
BRANCH  19  20
ATOM     20  N   UNL     1      50.593   6.536  16.088  0.00  0.00    +0.000 N 
ATOM     21  C   UNL     1      51.099   6.415  17.361  0.00  0.00    +0.000 C 
ATOM     22  O   UNL     1      50.874   7.241  18.240  0.00  0.00    +0.000 OA
ATOM     23  H   UNL     1      51.051   6.027  15.339  0.00  0.00    +0.000 HD
BRANCH  21  24
ATOM     24  C   UNL     1      51.872   5.195  17.629  0.00  0.00    +0.000 A 
ATOM     25  C   UNL     1      53.187   5.279  18.063  0.00  0.00    +0.000 A 
ATOM     26  S   UNL     1      53.906   3.758  18.359  0.00  0.00    +0.000 S 
ATOM     27  C   UNL     1      52.499   2.935  17.872  0.00  0.00    +0.000 A 
ATOM     28  N   UNL     1      52.446   1.576  17.855  0.00  0.00    +0.000 NA
ATOM     29  C   UNL     1      51.325   1.090  17.440  0.00  0.00    +0.000 A 
ATOM     30  N   UNL     1      50.248   1.837  17.047  0.00  0.00    +0.000 N 
ATOM     31  C   UNL     1      50.239   3.210  17.085  0.00  0.00    +0.000 A 
ATOM     32  O   UNL     1      49.233   3.848  16.793  0.00  0.00    +0.000 OA
ATOM     33  C   UNL     1      51.486   3.810  17.517  0.00  0.00    +0.000 A 
ATOM     34  H   UNL     1      49.387   1.397  16.751  0.00  0.00    +0.000 HD
ENDBRANCH  21  24
ENDBRANCH  19  20
ENDBRANCH   4  19
TORSDOF 7
ENDMDL
MODEL 6
REMARK VINA RESULT:    -6.140      3.281      8.747
REMARK INTER + INTRA:         -10.393
REMARK INTER:                  -9.158
REMARK INTRA:                  -1.235
REMARK UNBOUND:                -1.741
REMARK  Name = 
REMARK  7 active torsions:
REMARK  status: ('A' for Active; 'I' for Inactive)
REMARK    1  A    between atoms: C_2  and  C_3
REMARK    2  A    between atoms: C_6  and  C_7
REMARK    3  A    between atoms: N_9  and  C_10
REMARK    4  A    between atoms: C_10  and  C_11
REMARK    5  A    between atoms: C_14  and  C_15
REMARK    6  A    between atoms: C_15  and  N_16
REMARK    7  A    between atoms: C_17  and  C_19
REMARK                            x       y       z     vdW  Elec       q    Type
REMARK                         _______ _______ _______ _____ _____    ______ ____
ROOT
ATOM      1  C   UNL     1      45.655   4.625  12.765  0.00  0.00    +0.000 A 
ATOM      2  C   UNL     1      46.991   4.905  13.082  0.00  0.00    +0.000 A 
ATOM      3  C   UNL     1      47.421   6.226  13.262  0.00  0.00    +0.000 A 
ATOM      4  C   UNL     1      46.519   7.293  13.148  0.00  0.00    +0.000 A 
ATOM      5  C   UNL     1      45.186   7.009  12.820  0.00  0.00    +0.000 A 
ATOM      6  C   UNL     1      44.755   5.690  12.646  0.00  0.00    +0.000 A 
ENDROOT
BRANCH   1   7
ATOM      7  C   UNL     1      45.199   3.205  12.565  0.00  0.00    +0.000 C 
BRANCH   7  10
ATOM      8  C   UNL     1      44.157   2.850  10.390  0.00  0.00    +0.000 C 
ATOM      9  O   UNL     1      43.086   3.297  10.790  0.00  0.00    +0.000 OA
ATOM     10  N   UNL     1      45.282   2.799  11.182  0.00  0.00    +0.000 N 
ATOM     11  H   UNL     1      46.145   2.394  10.848  0.00  0.00    +0.000 HD
BRANCH   8  15
ATOM     12  C   UNL     1      45.676   4.022   7.841  0.00  0.00    +0.000 C 
ATOM     13  C   UNL     1      46.588   2.812   8.044  0.00  0.00    +0.000 C 
ATOM     14  C   UNL     1      45.749   1.732   8.738  0.00  0.00    +0.000 C 
ATOM     15  C   UNL     1      44.356   2.330   8.970  0.00  0.00    +0.000 C 
ATOM     16  C   UNL     1      44.263   3.445   7.927  0.00  0.00    +0.000 C 
BRANCH  12  18
ATOM     17  N   UNL     1      46.135   5.876   9.656  0.00  0.00    +0.000 NA
ATOM     18  C   UNL     1      45.935   5.077   8.843  0.00  0.00    +0.000 C 
ENDBRANCH  12  18
ENDBRANCH   8  15
ENDBRANCH   7  10
ENDBRANCH   1   7
BRANCH   4  19
ATOM     19  C   UNL     1      46.953   8.725  13.362  0.00  0.00    +0.000 C 
BRANCH  19  20
ATOM     20  N   UNL     1      47.281   8.990  14.738  0.00  0.00    +0.000 N 
ATOM     21  C   UNL     1      48.546   9.374  15.119  0.00  0.00    +0.000 C 
ATOM     22  O   UNL     1      49.453   9.543  14.311  0.00  0.00    +0.000 OA
ATOM     23  H   UNL     1      46.679   8.564  15.435  0.00  0.00    +0.000 HD
BRANCH  21  24
ATOM     24  C   UNL     1      48.728   9.640  16.552  0.00  0.00    +0.000 A 
ATOM     25  C   UNL     1      48.868  10.942  17.012  0.00  0.00    +0.000 A 
ATOM     26  S   UNL     1      49.029  11.052  18.709  0.00  0.00    +0.000 S 
ATOM     27  C   UNL     1      48.963   9.361  18.881  0.00  0.00    +0.000 A 
ATOM     28  N   UNL     1      49.075   8.770  20.102  0.00  0.00    +0.000 NA
ATOM     29  C   UNL     1      49.033   7.481  20.078  0.00  0.00    +0.000 A 
ATOM     30  N   UNL     1      48.882   6.726  18.946  0.00  0.00    +0.000 N 
ATOM     31  C   UNL     1      48.723   7.276  17.698  0.00  0.00    +0.000 A 
ATOM     32  O   UNL     1      48.519   6.573  16.714  0.00  0.00    +0.000 OA
ATOM     33  C   UNL     1      48.791   8.723  17.664  0.00  0.00    +0.000 A 
ATOM     34  H   UNL     1      48.835   5.717  18.994  0.00  0.00    +0.000 HD
ENDBRANCH  21  24
ENDBRANCH  19  20
ENDBRANCH   4  19
TORSDOF 7
ENDMDL
MODEL 7
REMARK VINA RESULT:    -5.869      4.180      6.323
REMARK INTER + INTRA:         -10.011
REMARK INTER:                  -8.731
REMARK INTRA:                  -1.280
REMARK UNBOUND:                -1.741
REMARK  Name = 
REMARK  7 active torsions:
REMARK  status: ('A' for Active; 'I' for Inactive)
REMARK    1  A    between atoms: C_2  and  C_3
REMARK    2  A    between atoms: C_6  and  C_7
REMARK    3  A    between atoms: N_9  and  C_10
REMARK    4  A    between atoms: C_10  and  C_11
REMARK    5  A    between atoms: C_14  and  C_15
REMARK    6  A    between atoms: C_15  and  N_16
REMARK    7  A    between atoms: C_17  and  C_19
REMARK                            x       y       z     vdW  Elec       q    Type
REMARK                         _______ _______ _______ _____ _____    ______ ____
ROOT
ATOM      1  C   UNL     1      50.968   8.161  11.912  0.00  0.00    +0.000 A 
ATOM      2  C   UNL     1      49.968   7.760  11.016  0.00  0.00    +0.000 A 
ATOM      3  C   UNL     1      48.639   7.627  11.439  0.00  0.00    +0.000 A 
ATOM      4  C   UNL     1      48.280   7.912  12.764  0.00  0.00    +0.000 A 
ATOM      5  C   UNL     1      49.285   8.302  13.660  0.00  0.00    +0.000 A 
ATOM      6  C   UNL     1      50.610   8.440  13.236  0.00  0.00    +0.000 A 
ENDROOT
BRANCH   1   7
ATOM      7  C   UNL     1      52.394   8.295  11.455  0.00  0.00    +0.000 C 
BRANCH   7  10
ATOM      8  C   UNL     1      53.751   8.190   9.433  0.00  0.00    +0.000 C 
ATOM      9  O   UNL     1      54.726   8.649  10.021  0.00  0.00    +0.000 OA
ATOM     10  N   UNL     1      52.555   7.937  10.065  0.00  0.00    +0.000 N 
ATOM     11  H   UNL     1      51.752   7.594   9.558  0.00  0.00    +0.000 HD
BRANCH   8  15
ATOM     12  C   UNL     1      54.646   5.571   7.846  0.00  0.00    +0.000 C 
ATOM     13  C   UNL     1      53.161   5.491   7.490  0.00  0.00    +0.000 C 
ATOM     14  C   UNL     1      52.612   6.922   7.534  0.00  0.00    +0.000 C 
ATOM     15  C   UNL     1      53.775   7.833   7.951  0.00  0.00    +0.000 C 
ATOM     16  C   UNL     1      55.018   7.029   7.569  0.00  0.00    +0.000 C 
BRANCH  12  18
ATOM     17  N   UNL     1      55.085   4.807  10.328  0.00  0.00    +0.000 NA
ATOM     18  C   UNL     1      54.897   5.163   9.243  0.00  0.00    +0.000 C 
ENDBRANCH  12  18
ENDBRANCH   8  15
ENDBRANCH   7  10
ENDBRANCH   1   7
BRANCH   4  19
ATOM     19  C   UNL     1      46.849   7.800  13.239  0.00  0.00    +0.000 C 
BRANCH  19  20
ATOM     20  N   UNL     1      46.245   6.554  12.842  0.00  0.00    +0.000 N 
ATOM     21  C   UNL     1      45.213   6.509  11.934  0.00  0.00    +0.000 C 
ATOM     22  O   UNL     1      44.771   7.515  11.389  0.00  0.00    +0.000 OA
ATOM     23  H   UNL     1      46.355   5.776  13.483  0.00  0.00    +0.000 HD
BRANCH  21  24
ATOM     24  C   UNL     1      44.715   5.167  11.600  0.00  0.00    +0.000 A 
ATOM     25  C   UNL     1      43.950   4.456  12.513  0.00  0.00    +0.000 A 
ATOM     26  S   UNL     1      43.430   2.937  11.929  0.00  0.00    +0.000 S 
ATOM     27  C   UNL     1      44.248   3.160  10.455  0.00  0.00    +0.000 A 
ATOM     28  N   UNL     1      44.239   2.201   9.490  0.00  0.00    +0.000 NA
ATOM     29  C   UNL     1      44.923   2.496   8.436  0.00  0.00    +0.000 A 
ATOM     30  N   UNL     1      45.610   3.666   8.254  0.00  0.00    +0.000 N 
ATOM     31  C   UNL     1      45.615   4.680   9.180  0.00  0.00    +0.000 A 
ATOM     32  O   UNL     1      46.183   5.744   8.956  0.00  0.00    +0.000 OA
ATOM     33  C   UNL     1      44.885   4.389  10.398  0.00  0.00    +0.000 A 
ATOM     34  H   UNL     1      46.111   3.849   7.395  0.00  0.00    +0.000 HD
ENDBRANCH  21  24
ENDBRANCH  19  20
ENDBRANCH   4  19
TORSDOF 7
ENDMDL
MODEL 8
REMARK VINA RESULT:    -5.785      3.102      9.055
REMARK INTER + INTRA:          -9.894
REMARK INTER:                  -9.042
REMARK INTRA:                  -0.851
REMARK UNBOUND:                -1.741
REMARK  Name = 
REMARK  7 active torsions:
REMARK  status: ('A' for Active; 'I' for Inactive)
REMARK    1  A    between atoms: C_2  and  C_3
REMARK    2  A    between atoms: C_6  and  C_7
REMARK    3  A    between atoms: N_9  and  C_10
REMARK    4  A    between atoms: C_10  and  C_11
REMARK    5  A    between atoms: C_14  and  C_15
REMARK    6  A    between atoms: C_15  and  N_16
REMARK    7  A    between atoms: C_17  and  C_19
REMARK                            x       y       z     vdW  Elec       q    Type
REMARK                         _______ _______ _______ _____ _____    ______ ____
ROOT
ATOM      1  C   UNL     1      45.275   4.541  11.221  0.00  0.00    +0.000 A 
ATOM      2  C   UNL     1      45.353   3.323  11.910  0.00  0.00    +0.000 A 
ATOM      3  C   UNL     1      45.955   3.253  13.173  0.00  0.00    +0.000 A 
ATOM      4  C   UNL     1      46.475   4.405  13.781  0.00  0.00    +0.000 A 
ATOM      5  C   UNL     1      46.405   5.618  13.084  0.00  0.00    +0.000 A 
ATOM      6  C   UNL     1      45.798   5.690  11.826  0.00  0.00    +0.000 A 
ENDROOT
BRANCH   1   7
ATOM      7  C   UNL     1      44.635   4.610   9.861  0.00  0.00    +0.000 C 
BRANCH   7  10
ATOM      8  C   UNL     1      45.619   3.764   7.798  0.00  0.00    +0.000 C 
ATOM      9  O   UNL     1      44.774   2.878   7.716  0.00  0.00    +0.000 OA
ATOM     10  N   UNL     1      45.614   4.703   8.804  0.00  0.00    +0.000 N 
ATOM     11  H   UNL     1      46.339   5.404   8.877  0.00  0.00    +0.000 HD
BRANCH   8  15
ATOM     12  C   UNL     1      47.732   1.727   6.548  0.00  0.00    +0.000 C 
ATOM     13  C   UNL     1      46.978   2.013   5.249  0.00  0.00    +0.000 C 
ATOM     14  C   UNL     1      46.369   3.414   5.384  0.00  0.00    +0.000 C 
ATOM     15  C   UNL     1      46.742   3.929   6.780  0.00  0.00    +0.000 C 
ATOM     16  C   UNL     1      47.981   3.112   7.148  0.00  0.00    +0.000 C 
BRANCH  12  18
ATOM     17  N   UNL     1      46.389   0.110   8.136  0.00  0.00    +0.000 NA
ATOM     18  C   UNL     1      46.964   0.836   7.443  0.00  0.00    +0.000 C 
ENDBRANCH  12  18
ENDBRANCH   8  15
ENDBRANCH   7  10
ENDBRANCH   1   7
BRANCH   4  19
ATOM     19  C   UNL     1      47.107   4.360  15.153  0.00  0.00    +0.000 C 
BRANCH  19  20
ATOM     20  N   UNL     1      47.595   5.651  15.564  0.00  0.00    +0.000 N 
ATOM     21  C   UNL     1      48.744   5.786  16.309  0.00  0.00    +0.000 C 
ATOM     22  O   UNL     1      49.431   4.825  16.638  0.00  0.00    +0.000 OA
ATOM     23  H   UNL     1      46.914   6.402  15.592  0.00  0.00    +0.000 HD
BRANCH  21  24
ATOM     24  C   UNL     1      49.139   7.164  16.630  0.00  0.00    +0.000 A 
ATOM     25  C   UNL     1      49.172   7.595  17.948  0.00  0.00    +0.000 A 
ATOM     26  S   UNL     1      49.694   9.212  18.124  0.00  0.00    +0.000 S 
ATOM     27  C   UNL     1      49.849   9.405  16.441  0.00  0.00    +0.000 A 
ATOM     28  N   UNL     1      50.237  10.590  15.898  0.00  0.00    +0.000 NA
ATOM     29  C   UNL     1      50.287  10.597  14.608  0.00  0.00    +0.000 A 
ATOM     30  N   UNL     1      49.990   9.525  13.810  0.00  0.00    +0.000 N 
ATOM     31  C   UNL     1      49.634   8.298  14.312  0.00  0.00    +0.000 A 
ATOM     32  O   UNL     1      49.443   7.338  13.572  0.00  0.00    +0.000 OA
ATOM     33  C   UNL     1      49.535   8.242  15.757  0.00  0.00    +0.000 A 
ATOM     34  H   UNL     1      50.068   9.586  12.804  0.00  0.00    +0.000 HD
ENDBRANCH  21  24
ENDBRANCH  19  20
ENDBRANCH   4  19
TORSDOF 7
ENDMDL
MODEL 9
REMARK VINA RESULT:    -5.400      4.389      7.036
REMARK INTER + INTRA:          -9.350
REMARK INTER:                  -8.336
REMARK INTRA:                  -1.015
REMARK UNBOUND:                -1.741
REMARK  Name = 
REMARK  7 active torsions:
REMARK  status: ('A' for Active; 'I' for Inactive)
REMARK    1  A    between atoms: C_2  and  C_3
REMARK    2  A    between atoms: C_6  and  C_7
REMARK    3  A    between atoms: N_9  and  C_10
REMARK    4  A    between atoms: C_10  and  C_11
REMARK    5  A    between atoms: C_14  and  C_15
REMARK    6  A    between atoms: C_15  and  N_16
REMARK    7  A    between atoms: C_17  and  C_19
REMARK                            x       y       z     vdW  Elec       q    Type
REMARK                         _______ _______ _______ _____ _____    ______ ____
ROOT
ATOM      1  C   UNL     1      50.435   8.750  11.344  0.00  0.00    +0.000 A 
ATOM      2  C   UNL     1      49.654   9.899  11.525  0.00  0.00    +0.000 A 
ATOM      3  C   UNL     1      48.300   9.797  11.868  0.00  0.00    +0.000 A 
ATOM      4  C   UNL     1      47.702   8.543  12.056  0.00  0.00    +0.000 A 
ATOM      5  C   UNL     1      48.484   7.395  11.864  0.00  0.00    +0.000 A 
ATOM      6  C   UNL     1      49.838   7.497  11.527  0.00  0.00    +0.000 A 
ENDROOT
BRANCH   1   7
ATOM      7  C   UNL     1      51.887   8.864  10.968  0.00  0.00    +0.000 C 
BRANCH   7  10
ATOM      8  C   UNL     1      53.301   9.759   9.197  0.00  0.00    +0.000 C 
ATOM      9  O   UNL     1      54.208   8.982   9.480  0.00  0.00    +0.000 OA
ATOM     10  N   UNL     1      52.089   9.754   9.850  0.00  0.00    +0.000 N 
ATOM     11  H   UNL     1      51.367  10.425   9.628  0.00  0.00    +0.000 HD
BRANCH   8  15
ATOM     12  C   UNL     1      53.001   9.567   6.026  0.00  0.00    +0.000 C 
ATOM     13  C   UNL     1      51.785  10.464   6.261  0.00  0.00    +0.000 C 
ATOM     14  C   UNL     1      52.054  11.255   7.547  0.00  0.00    +0.000 C 
ATOM     15  C   UNL     1      53.416  10.790   8.079  0.00  0.00    +0.000 C 
ATOM     16  C   UNL     1      54.114  10.226   6.841  0.00  0.00    +0.000 C 
BRANCH  12  18
ATOM     17  N   UNL     1      52.533   7.086   6.780  0.00  0.00    +0.000 NA
ATOM     18  C   UNL     1      52.737   8.170   6.428  0.00  0.00    +0.000 C 
ENDBRANCH  12  18
ENDBRANCH   8  15
ENDBRANCH   7  10
ENDBRANCH   1   7
BRANCH   4  19
ATOM     19  C   UNL     1      46.250   8.406  12.450  0.00  0.00    +0.000 C 
BRANCH  19  20
ATOM     20  N   UNL     1      45.656   7.209  11.914  0.00  0.00    +0.000 N 
ATOM     21  C   UNL     1      45.645   6.029  12.620  0.00  0.00    +0.000 C 
ATOM     22  O   UNL     1      46.110   5.934  13.751  0.00  0.00    +0.000 OA
ATOM     23  H   UNL     1      45.562   7.166  10.905  0.00  0.00    +0.000 HD
BRANCH  21  24
ATOM     24  C   UNL     1      44.978   4.897  11.963  0.00  0.00    +0.000 A 
ATOM     25  C   UNL     1      44.159   4.046  12.691  0.00  0.00    +0.000 A 
ATOM     26  S   UNL     1      43.441   2.817  11.747  0.00  0.00    +0.000 S 
ATOM     27  C   UNL     1      44.236   3.354  10.342  0.00  0.00    +0.000 A 
ATOM     28  N   UNL     1      44.081   2.710   9.154  0.00  0.00    +0.000 NA
ATOM     29  C   UNL     1      44.763   3.213   8.181  0.00  0.00    +0.000 A 
ATOM     30  N   UNL     1      45.582   4.306   8.284  0.00  0.00    +0.000 N 
ATOM     31  C   UNL     1      45.738   5.012   9.450  0.00  0.00    +0.000 A 
ATOM     32  O   UNL     1      46.424   6.029   9.492  0.00  0.00    +0.000 OA
ATOM     33  C   UNL     1      45.015   4.473  10.585  0.00  0.00    +0.000 A 
ATOM     34  H   UNL     1      46.075   4.666   7.478  0.00  0.00    +0.000 HD
ENDBRANCH  21  24
ENDBRANCH  19  20
ENDBRANCH   4  19
TORSDOF 7
ENDMDL
