MODEL 1
REMARK VINA RESULT:    -8.715      0.000      0.000
REMARK INTER + INTRA:         -12.940
REMARK INTER:                 -12.026
REMARK INTRA:                  -0.914
REMARK UNBOUND:                -0.914
REMARK  Name = 
REMARK  7 active torsions:
REMARK  status: ('A' for Active; 'I' for Inactive)
REMARK    1  A    between atoms: C_2  and  C_22
REMARK    2  A    between atoms: N_3  and  C_4
REMARK    3  A    between atoms: C_4  and  C_5
REMARK    4  A    between atoms: C_8  and  C_9
REMARK    5  A    between atoms: C_9  and  N_10
REMARK    6  A    between atoms: C_11  and  C_13
REMARK    7  A    between atoms: C_16  and  O_17
REMARK                            x       y       z     vdW  Elec       q    Type
REMARK                         _______ _______ _______ _____ _____    ______ ____
ROOT
ATOM      1  C   UNL     1      47.085   6.282  12.701  0.00  0.00    +0.000 A 
ATOM      2  C   UNL     1      46.160   5.415  13.298  0.00  0.00    +0.000 A 
ATOM      3  C   UNL     1      45.048   4.950  12.586  0.00  0.00    +0.000 A 
ATOM      4  C   UNL     1      44.849   5.322  11.249  0.00  0.00    +0.000 A 
ATOM      5  C   UNL     1      45.772   6.191  10.652  0.00  0.00    +0.000 A 
ATOM      6  C   UNL     1      46.886   6.658  11.367  0.00  0.00    +0.000 A 
ENDROOT
BRANCH   1   7
ATOM      7  C   UNL     1      48.284   6.773  13.474  0.00  0.00    +0.000 C 
BRANCH   7  10
ATOM      8  O   UNL     1      50.291   6.657  15.377  0.00  0.00    +0.000 OA
ATOM      9  C   UNL     1      49.129   6.736  15.769  0.00  0.00    +0.000 C 
ATOM     10  N   UNL     1      48.066   6.719  14.900  0.00  0.00    +0.000 N 
ATOM     11  H   UNL     1      47.148   6.997  15.233  0.00  0.00    +0.000 HD
BRANCH   9  12
ATOM     12  C   UNL     1      48.812   6.812  17.200  0.00  0.00    +0.000 A 
ATOM     13  C   UNL     1      48.356   8.004  17.748  0.00  0.00    +0.000 A 
ATOM     14  S   UNL     1      48.038   7.909  19.421  0.00  0.00    +0.000 S 
ATOM     15  C   UNL     1      48.454   6.262  19.463  0.00  0.00    +0.000 A 
ATOM     16  N   UNL     1      48.365   5.545  20.617  0.00  0.00    +0.000 NA
ATOM     17  C   UNL     1      48.677   4.299  20.498  0.00  0.00    +0.000 A 
ATOM     18  N   UNL     1      49.079   3.702  19.329  0.00  0.00    +0.000 N 
ATOM     19  C   UNL     1      49.220   4.394  18.148  0.00  0.00    +0.000 A 
ATOM     20  O   UNL     1      49.641   3.844  17.136  0.00  0.00    +0.000 OA
ATOM     21  C   UNL     1      48.857   5.794  18.224  0.00  0.00    +0.000 A 
ATOM     22  H   UNL     1      49.326   2.726  19.306  0.00  0.00    +0.000 HD
ENDBRANCH   9  12
ENDBRANCH   7  10
ENDBRANCH   1   7
BRANCH   4  23
ATOM     23  C   UNL     1      43.718   4.727  10.450  0.00  0.00    +0.000 C 
BRANCH  23  24
ATOM     24  N   UNL     1      44.116   4.127   9.197  0.00  0.00    +0.000 N 
ATOM     25  C   UNL     1      44.773   2.912   9.214  0.00  0.00    +0.000 C 
ATOM     26  O   UNL     1      44.947   2.282  10.254  0.00  0.00    +0.000 OA
ATOM     27  H   UNL     1      43.860   4.572   8.326  0.00  0.00    +0.000 HD
BRANCH  25  28
ATOM     28  C   UNL     1      45.313   2.432   7.861  0.00  0.00    +0.000 C 
ATOM     29  C   UNL     1      45.882   3.638   7.098  0.00  0.00    +0.000 C 
ATOM     30  C   UNL     1      46.637   3.250   5.828  0.00  0.00    +0.000 C 
ATOM     31  C   UNL     1      47.716   2.202   6.082  0.00  0.00    +0.000 C 
ATOM     32  C   UNL     1      47.134   0.977   6.783  0.00  0.00    +0.000 C 
ATOM     33  C   UNL     1      46.382   1.338   8.063  0.00  0.00    +0.000 C 
BRANCH  31  34
ATOM     34  O   UNL     1      48.780   2.763   6.845  0.00  0.00    +0.000 OA
ATOM     35  H   UNL     1      49.622   2.369   6.560  0.00  0.00    +0.000 HD
ENDBRANCH  31  34
ENDBRANCH  25  28
ENDBRANCH  23  24
ENDBRANCH   4  23
TORSDOF 7
ENDMDL
MODEL 2
REMARK VINA RESULT:    -8.524      1.261      2.102
REMARK INTER + INTRA:         -12.676
REMARK INTER:                 -11.787
REMARK INTRA:                  -0.889
REMARK UNBOUND:                -0.914
REMARK  Name = 
REMARK  7 active torsions:
REMARK  status: ('A' for Active; 'I' for Inactive)
REMARK    1  A    between atoms: C_2  and  C_22
REMARK    2  A    between atoms: N_3  and  C_4
REMARK    3  A    between atoms: C_4  and  C_5
REMARK    4  A    between atoms: C_8  and  C_9
REMARK    5  A    between atoms: C_9  and  N_10
REMARK    6  A    between atoms: C_11  and  C_13
REMARK    7  A    between atoms: C_16  and  O_17
REMARK                            x       y       z     vdW  Elec       q    Type
REMARK                         _______ _______ _______ _____ _____    ______ ____
ROOT
ATOM      1  C   UNL     1      46.994   6.299  12.905  0.00  0.00    +0.000 A 
ATOM      2  C   UNL     1      46.869   6.729  11.577  0.00  0.00    +0.000 A 
ATOM      3  C   UNL     1      45.869   6.210  10.746  0.00  0.00    +0.000 A 
ATOM      4  C   UNL     1      44.954   5.266  11.231  0.00  0.00    +0.000 A 
ATOM      5  C   UNL     1      45.080   4.834  12.558  0.00  0.00    +0.000 A 
ATOM      6  C   UNL     1      46.082   5.353  13.391  0.00  0.00    +0.000 A 
ENDROOT
BRANCH   1   7
ATOM      7  C   UNL     1      48.070   6.868  13.796  0.00  0.00    +0.000 C 
BRANCH   7  10
ATOM      8  O   UNL     1      50.183   6.438  15.531  0.00  0.00    +0.000 OA
ATOM      9  C   UNL     1      49.043   6.299  15.967  0.00  0.00    +0.000 C 
ATOM     10  N   UNL     1      47.937   6.415  15.159  0.00  0.00    +0.000 N 
ATOM     11  H   UNL     1      47.020   6.505  15.585  0.00  0.00    +0.000 HD
BRANCH   9  12
ATOM     12  C   UNL     1      48.801   5.959  17.374  0.00  0.00    +0.000 A 
ATOM     13  C   UNL     1      49.085   4.682  17.838  0.00  0.00    +0.000 A 
ATOM     14  S   UNL     1      48.742   4.465  19.495  0.00  0.00    +0.000 S 
ATOM     15  C   UNL     1      48.246   6.082  19.661  0.00  0.00    +0.000 A 
ATOM     16  N   UNL     1      47.851   6.575  20.867  0.00  0.00    +0.000 NA
ATOM     17  C   UNL     1      47.535   7.826  20.856  0.00  0.00    +0.000 A 
ATOM     18  N   UNL     1      47.570   8.631  19.744  0.00  0.00    +0.000 N 
ATOM     19  C   UNL     1      47.925   8.168  18.499  0.00  0.00    +0.000 A 
ATOM     20  O   UNL     1      47.885   8.899  17.515  0.00  0.00    +0.000 OA
ATOM     21  C   UNL     1      48.314   6.773  18.463  0.00  0.00    +0.000 A 
ATOM     22  H   UNL     1      47.293   9.597  19.799  0.00  0.00    +0.000 HD
ENDBRANCH   9  12
ENDBRANCH   7  10
ENDBRANCH   1   7
BRANCH   4  23
ATOM     23  C   UNL     1      43.808   4.799  10.370  0.00  0.00    +0.000 C 
BRANCH  23  24
ATOM     24  N   UNL     1      44.204   4.180   9.125  0.00  0.00    +0.000 N 
ATOM     25  C   UNL     1      44.802   2.936   9.155  0.00  0.00    +0.000 C 
ATOM     26  O   UNL     1      44.925   2.299  10.198  0.00  0.00    +0.000 OA
ATOM     27  H   UNL     1      43.987   4.636   8.249  0.00  0.00    +0.000 HD
BRANCH  25  28
ATOM     28  C   UNL     1      45.347   2.431   7.813  0.00  0.00    +0.000 C 
ATOM     29  C   UNL     1      45.914   3.623   7.027  0.00  0.00    +0.000 C 
ATOM     30  C   UNL     1      46.673   3.213   5.767  0.00  0.00    +0.000 C 
ATOM     31  C   UNL     1      47.755   2.174   6.044  0.00  0.00    +0.000 C 
ATOM     32  C   UNL     1      47.176   0.962   6.769  0.00  0.00    +0.000 C 
ATOM     33  C   UNL     1      46.420   1.346   8.040  0.00  0.00    +0.000 C 
BRANCH  31  34
ATOM     34  O   UNL     1      48.815   2.755   6.799  0.00  0.00    +0.000 OA
ATOM     35  H   UNL     1      48.605   2.695   7.746  0.00  0.00    +0.000 HD
ENDBRANCH  31  34
ENDBRANCH  25  28
ENDBRANCH  23  24
ENDBRANCH   4  23
TORSDOF 7
ENDMDL
MODEL 3
REMARK VINA RESULT:    -8.417      2.316      3.037
REMARK INTER + INTRA:         -12.528
REMARK INTER:                 -11.488
REMARK INTRA:                  -1.041
REMARK UNBOUND:                -0.914
REMARK  Name = 
REMARK  7 active torsions:
REMARK  status: ('A' for Active; 'I' for Inactive)
REMARK    1  A    between atoms: C_2  and  C_22
REMARK    2  A    between atoms: N_3  and  C_4
REMARK    3  A    between atoms: C_4  and  C_5
REMARK    4  A    between atoms: C_8  and  C_9
REMARK    5  A    between atoms: C_9  and  N_10
REMARK    6  A    between atoms: C_11  and  C_13
REMARK    7  A    between atoms: C_16  and  O_17
REMARK                            x       y       z     vdW  Elec       q    Type
REMARK                         _______ _______ _______ _____ _____    ______ ____
ROOT
ATOM      1  C   UNL     1      46.523   4.759  14.242  0.00  0.00    +0.000 A 
ATOM      2  C   UNL     1      47.273   5.784  13.651  0.00  0.00    +0.000 A 
ATOM      3  C   UNL     1      47.067   6.146  12.314  0.00  0.00    +0.000 A 
ATOM      4  C   UNL     1      46.087   5.506  11.544  0.00  0.00    +0.000 A 
ATOM      5  C   UNL     1      45.338   4.479  12.133  0.00  0.00    +0.000 A 
ATOM      6  C   UNL     1      45.545   4.117  13.473  0.00  0.00    +0.000 A 
ENDROOT
BRANCH   1   7
ATOM      7  C   UNL     1      46.747   4.381  15.685  0.00  0.00    +0.000 C 
BRANCH   7  10
ATOM      8  O   UNL     1      47.831   5.144  18.116  0.00  0.00    +0.000 OA
ATOM      9  C   UNL     1      48.584   4.657  17.277  0.00  0.00    +0.000 C 
ATOM     10  N   UNL     1      48.150   4.323  16.016  0.00  0.00    +0.000 N 
ATOM     11  H   UNL     1      48.735   3.736  15.430  0.00  0.00    +0.000 HD
BRANCH   9  12
ATOM     12  C   UNL     1      50.008   4.442  17.564  0.00  0.00    +0.000 A 
ATOM     13  C   UNL     1      50.786   5.490  18.038  0.00  0.00    +0.000 A 
ATOM     14  S   UNL     1      52.413   5.061  18.316  0.00  0.00    +0.000 S 
ATOM     15  C   UNL     1      52.125   3.451  17.858  0.00  0.00    +0.000 A 
ATOM     16  N   UNL     1      53.117   2.520  17.902  0.00  0.00    +0.000 NA
ATOM     17  C   UNL     1      52.751   1.331  17.561  0.00  0.00    +0.000 A 
ATOM     18  N   UNL     1      51.481   0.986  17.170  0.00  0.00    +0.000 N 
ATOM     19  C   UNL     1      50.457   1.899  17.073  0.00  0.00    +0.000 A 
ATOM     20  O   UNL     1      49.350   1.569  16.660  0.00  0.00    +0.000 OA
ATOM     21  C   UNL     1      50.811   3.246  17.470  0.00  0.00    +0.000 A 
ATOM     22  H   UNL     1      51.264   0.041  16.899  0.00  0.00    +0.000 HD
ENDBRANCH   9  12
ENDBRANCH   7  10
ENDBRANCH   1   7
BRANCH   4  23
ATOM     23  C   UNL     1      45.787   5.977  10.143  0.00  0.00    +0.000 C 
BRANCH  23  24
ATOM     24  N   UNL     1      46.034   4.994   9.112  0.00  0.00    +0.000 N 
ATOM     25  C   UNL     1      44.981   4.232   8.646  0.00  0.00    +0.000 C 
ATOM     26  O   UNL     1      43.826   4.425   9.015  0.00  0.00    +0.000 OA
ATOM     27  H   UNL     1      46.956   4.917   8.706  0.00  0.00    +0.000 HD
BRANCH  25  28
ATOM     28  C   UNL     1      45.359   3.099   7.684  0.00  0.00    +0.000 C 
ATOM     29  C   UNL     1      46.182   3.684   6.527  0.00  0.00    +0.000 C 
ATOM     30  C   UNL     1      46.793   2.620   5.618  0.00  0.00    +0.000 C 
ATOM     31  C   UNL     1      47.595   1.577   6.389  0.00  0.00    +0.000 C 
ATOM     32  C   UNL     1      46.754   0.950   7.498  0.00  0.00    +0.000 C 
ATOM     33  C   UNL     1      46.140   1.996   8.429  0.00  0.00    +0.000 C 
BRANCH  31  34
ATOM     34  O   UNL     1      48.780   2.162   6.923  0.00  0.00    +0.000 OA
ATOM     35  H   UNL     1      48.733   3.128   6.826  0.00  0.00    +0.000 HD
ENDBRANCH  31  34
ENDBRANCH  25  28
ENDBRANCH  23  24
ENDBRANCH   4  23
TORSDOF 7
ENDMDL
MODEL 4
REMARK VINA RESULT:    -7.872      1.844      3.018
REMARK INTER + INTRA:         -11.778
REMARK INTER:                 -10.884
REMARK INTRA:                  -0.893
REMARK UNBOUND:                -0.914
REMARK  Name = 
REMARK  7 active torsions:
REMARK  status: ('A' for Active; 'I' for Inactive)
REMARK    1  A    between atoms: C_2  and  C_22
REMARK    2  A    between atoms: N_3  and  C_4
REMARK    3  A    between atoms: C_4  and  C_5
REMARK    4  A    between atoms: C_8  and  C_9
REMARK    5  A    between atoms: C_9  and  N_10
REMARK    6  A    between atoms: C_11  and  C_13
REMARK    7  A    between atoms: C_16  and  O_17
REMARK                            x       y       z     vdW  Elec       q    Type
REMARK                         _______ _______ _______ _____ _____    ______ ____
ROOT
ATOM      1  C   UNL     1      46.985   4.438  14.197  0.00  0.00    +0.000 A 
ATOM      2  C   UNL     1      47.280   5.703  13.673  0.00  0.00    +0.000 A 
ATOM      3  C   UNL     1      46.803   6.088  12.414  0.00  0.00    +0.000 A 
ATOM      4  C   UNL     1      45.999   5.224  11.659  0.00  0.00    +0.000 A 
ATOM      5  C   UNL     1      45.706   3.957  12.181  0.00  0.00    +0.000 A 
ATOM      6  C   UNL     1      46.184   3.571  13.442  0.00  0.00    +0.000 A 
ENDROOT
BRANCH   1   7
ATOM      7  C   UNL     1      47.497   4.034  15.557  0.00  0.00    +0.000 C 
BRANCH   7  10
ATOM      8  O   UNL     1      49.644   5.358  16.697  0.00  0.00    +0.000 OA
ATOM      9  C   UNL     1      48.513   5.752  16.971  0.00  0.00    +0.000 C 
ATOM     10  N   UNL     1      47.388   5.108  16.515  0.00  0.00    +0.000 N 
ATOM     11  H   UNL     1      46.489   5.573  16.581  0.00  0.00    +0.000 HD
BRANCH   9  12
ATOM     12  C   UNL     1      48.301   6.915  17.841  0.00  0.00    +0.000 A 
ATOM     13  C   UNL     1      48.119   6.738  19.206  0.00  0.00    +0.000 A 
ATOM     14  S   UNL     1      47.887   8.197  20.059  0.00  0.00    +0.000 S 
ATOM     15  C   UNL     1      48.067   9.118  18.643  0.00  0.00    +0.000 A 
ATOM     16  N   UNL     1      48.013  10.478  18.680  0.00  0.00    +0.000 NA
ATOM     17  C   UNL     1      48.201  11.052  17.539  0.00  0.00    +0.000 A 
ATOM     18  N   UNL     1      48.430  10.388  16.359  0.00  0.00    +0.000 N 
ATOM     19  C   UNL     1      48.455   9.016  16.268  0.00  0.00    +0.000 A 
ATOM     20  O   UNL     1      48.600   8.455  15.187  0.00  0.00    +0.000 OA
ATOM     21  C   UNL     1      48.274   8.325  17.528  0.00  0.00    +0.000 A 
ATOM     22  H   UNL     1      48.552  10.895  15.498  0.00  0.00    +0.000 HD
ENDBRANCH   9  12
ENDBRANCH   7  10
ENDBRANCH   1   7
BRANCH   4  23
ATOM     23  C   UNL     1      45.391   5.685  10.359  0.00  0.00    +0.000 C 
BRANCH  23  24
ATOM     24  N   UNL     1      45.694   4.846   9.222  0.00  0.00    +0.000 N 
ATOM     25  C   UNL     1      44.820   3.830   8.886  0.00  0.00    +0.000 C 
ATOM     26  O   UNL     1      43.749   3.677   9.466  0.00  0.00    +0.000 OA
ATOM     27  H   UNL     1      46.506   5.047   8.655  0.00  0.00    +0.000 HD
BRANCH  25  28
ATOM     28  C   UNL     1      45.301   2.882   7.780  0.00  0.00    +0.000 C 
ATOM     29  C   UNL     1      46.075   3.695   6.731  0.00  0.00    +0.000 C 
ATOM     30  C   UNL     1      46.782   2.827   5.693  0.00  0.00    +0.000 C 
ATOM     31  C   UNL     1      47.669   1.758   6.323  0.00  0.00    +0.000 C 
ATOM     32  C   UNL     1      46.880   0.910   7.318  0.00  0.00    +0.000 C 
ATOM     33  C   UNL     1      46.172   1.757   8.375  0.00  0.00    +0.000 C 
BRANCH  31  34
ATOM     34  O   UNL     1      48.795   2.361   6.955  0.00  0.00    +0.000 OA
ATOM     35  H   UNL     1      49.585   1.820   6.787  0.00  0.00    +0.000 HD
ENDBRANCH  31  34
ENDBRANCH  25  28
ENDBRANCH  23  24
ENDBRANCH   4  23
TORSDOF 7
ENDMDL
MODEL 5
REMARK VINA RESULT:    -7.404      3.658      5.451
REMARK INTER + INTRA:         -11.131
REMARK INTER:                 -10.003
REMARK INTRA:                  -1.128
REMARK UNBOUND:                -0.914
REMARK  Name = 
REMARK  7 active torsions:
REMARK  status: ('A' for Active; 'I' for Inactive)
REMARK    1  A    between atoms: C_2  and  C_22
REMARK    2  A    between atoms: N_3  and  C_4
REMARK    3  A    between atoms: C_4  and  C_5
REMARK    4  A    between atoms: C_8  and  C_9
REMARK    5  A    between atoms: C_9  and  N_10
REMARK    6  A    between atoms: C_11  and  C_13
REMARK    7  A    between atoms: C_16  and  O_17
REMARK                            x       y       z     vdW  Elec       q    Type
REMARK                         _______ _______ _______ _____ _____    ______ ____
ROOT
ATOM      1  C   UNL     1      47.717   6.325  13.195  0.00  0.00    +0.000 A 
ATOM      2  C   UNL     1      47.507   7.033  12.004  0.00  0.00    +0.000 A 
ATOM      3  C   UNL     1      46.520   6.632  11.096  0.00  0.00    +0.000 A 
ATOM      4  C   UNL     1      45.702   5.527  11.369  0.00  0.00    +0.000 A 
ATOM      5  C   UNL     1      45.914   4.817  12.559  0.00  0.00    +0.000 A 
ATOM      6  C   UNL     1      46.904   5.218  13.468  0.00  0.00    +0.000 A 
ENDROOT
BRANCH   1   7
ATOM      7  C   UNL     1      48.778   6.768  14.171  0.00  0.00    +0.000 C 
BRANCH   7  10
ATOM      8  O   UNL     1      49.787   9.345  14.229  0.00  0.00    +0.000 OA
ATOM      9  C   UNL     1      50.442   8.483  13.649  0.00  0.00    +0.000 C 
ATOM     10  N   UNL     1      49.983   7.196  13.502  0.00  0.00    +0.000 N 
ATOM     11  H   UNL     1      50.629   6.470  13.211  0.00  0.00    +0.000 HD
BRANCH   9  12
ATOM     12  C   UNL     1      51.741   8.794  13.041  0.00  0.00    +0.000 A 
ATOM     13  C   UNL     1      52.696   9.496  13.765  0.00  0.00    +0.000 A 
ATOM     14  S   UNL     1      54.143   9.769  12.903  0.00  0.00    +0.000 S 
ATOM     15  C   UNL     1      53.562   8.920  11.550  0.00  0.00    +0.000 A 
ATOM     16  N   UNL     1      54.338   8.745  10.445  0.00  0.00    +0.000 NA
ATOM     17  C   UNL     1      53.784   8.052   9.508  0.00  0.00    +0.000 A 
ATOM     18  N   UNL     1      52.519   7.522   9.569  0.00  0.00    +0.000 N 
ATOM     19  C   UNL     1      51.686   7.706  10.649  0.00  0.00    +0.000 A 
ATOM     20  O   UNL     1      50.539   7.272  10.645  0.00  0.00    +0.000 OA
ATOM     21  C   UNL     1      52.271   8.457  11.740  0.00  0.00    +0.000 A 
ATOM     22  H   UNL     1      52.139   7.005   8.795  0.00  0.00    +0.000 HD
ENDBRANCH   9  12
ENDBRANCH   7  10
ENDBRANCH   1   7
BRANCH   4  23
ATOM     23  C   UNL     1      44.564   5.170  10.447  0.00  0.00    +0.000 C 
BRANCH  23  24
ATOM     24  N   UNL     1      44.964   4.508   9.225  0.00  0.00    +0.000 N 
ATOM     25  C   UNL     1      44.656   3.173   9.055  0.00  0.00    +0.000 C 
ATOM     26  O   UNL     1      43.973   2.555   9.867  0.00  0.00    +0.000 OA
ATOM     27  H   UNL     1      45.411   5.041   8.492  0.00  0.00    +0.000 HD
BRANCH  25  28
ATOM     28  C   UNL     1      45.266   2.506   7.815  0.00  0.00    +0.000 C 
ATOM     29  C   UNL     1      45.848   3.595   6.901  0.00  0.00    +0.000 C 
ATOM     30  C   UNL     1      46.667   3.038   5.740  0.00  0.00    +0.000 C 
ATOM     31  C   UNL     1      47.752   2.068   6.196  0.00  0.00    +0.000 C 
ATOM     32  C   UNL     1      47.161   0.950   7.052  0.00  0.00    +0.000 C 
ATOM     33  C   UNL     1      46.344   1.483   8.229  0.00  0.00    +0.000 C 
BRANCH  31  34
ATOM     34  O   UNL     1      48.769   2.766   6.910  0.00  0.00    +0.000 OA
ATOM     35  H   UNL     1      48.700   2.555   7.856  0.00  0.00    +0.000 HD
ENDBRANCH  31  34
ENDBRANCH  25  28
ENDBRANCH  23  24
ENDBRANCH   4  23
TORSDOF 7
ENDMDL
MODEL 6
REMARK VINA RESULT:    -7.400      2.126      2.628
REMARK INTER + INTRA:         -11.125
REMARK INTER:                 -10.133
REMARK INTRA:                  -0.992
REMARK UNBOUND:                -0.914
REMARK  Name = 
REMARK  7 active torsions:
REMARK  status: ('A' for Active; 'I' for Inactive)
REMARK    1  A    between atoms: C_2  and  C_22
REMARK    2  A    between atoms: N_3  and  C_4
REMARK    3  A    between atoms: C_4  and  C_5
REMARK    4  A    between atoms: C_8  and  C_9
REMARK    5  A    between atoms: C_9  and  N_10
REMARK    6  A    between atoms: C_11  and  C_13
REMARK    7  A    between atoms: C_16  and  O_17
REMARK                            x       y       z     vdW  Elec       q    Type
REMARK                         _______ _______ _______ _____ _____    ______ ____
ROOT
ATOM      1  C   UNL     1      46.788   5.404  13.317  0.00  0.00    +0.000 A 
ATOM      2  C   UNL     1      45.653   4.613  13.541  0.00  0.00    +0.000 A 
ATOM      3  C   UNL     1      44.635   4.531  12.584  0.00  0.00    +0.000 A 
ATOM      4  C   UNL     1      44.739   5.220  11.368  0.00  0.00    +0.000 A 
ATOM      5  C   UNL     1      45.872   6.014  11.145  0.00  0.00    +0.000 A 
ATOM      6  C   UNL     1      46.892   6.096  12.104  0.00  0.00    +0.000 A 
ENDROOT
BRANCH   1   7
ATOM      7  C   UNL     1      47.884   5.481  14.351  0.00  0.00    +0.000 C 
BRANCH   7  10
ATOM      8  O   UNL     1      50.106   6.913  15.171  0.00  0.00    +0.000 OA
ATOM      9  C   UNL     1      48.997   7.392  15.395  0.00  0.00    +0.000 C 
ATOM     10  N   UNL     1      47.839   6.717  15.094  0.00  0.00    +0.000 N 
ATOM     11  H   UNL     1      46.958   7.220  15.094  0.00  0.00    +0.000 HD
BRANCH   9  12
ATOM     12  C   UNL     1      48.850   8.704  16.037  0.00  0.00    +0.000 A 
ATOM     13  C   UNL     1      49.216   9.856  15.354  0.00  0.00    +0.000 A 
ATOM     14  S   UNL     1      48.978  11.287  16.251  0.00  0.00    +0.000 S 
ATOM     15  C   UNL     1      48.334  10.422  17.564  0.00  0.00    +0.000 A 
ATOM     16  N   UNL     1      47.886  11.066  18.677  0.00  0.00    +0.000 NA
ATOM     17  C   UNL     1      47.391  10.290  19.581  0.00  0.00    +0.000 A 
ATOM     18  N   UNL     1      47.308   8.923  19.479  0.00  0.00    +0.000 N 
ATOM     19  C   UNL     1      47.781   8.227  18.391  0.00  0.00    +0.000 A 
ATOM     20  O   UNL     1      47.748   7.002  18.359  0.00  0.00    +0.000 OA
ATOM     21  C   UNL     1      48.325   9.056  17.335  0.00  0.00    +0.000 A 
ATOM     22  H   UNL     1      46.925   8.372  20.229  0.00  0.00    +0.000 HD
ENDBRANCH   9  12
ENDBRANCH   7  10
ENDBRANCH   1   7
BRANCH   4  23
ATOM     23  C   UNL     1      43.698   5.037  10.293  0.00  0.00    +0.000 C 
BRANCH  23  24
ATOM     24  N   UNL     1      44.172   4.363   9.104  0.00  0.00    +0.000 N 
ATOM     25  C   UNL     1      44.370   2.997   9.143  0.00  0.00    +0.000 C 
ATOM     26  O   UNL     1      44.069   2.324  10.124  0.00  0.00    +0.000 OA
ATOM     27  H   UNL     1      44.297   4.887   8.249  0.00  0.00    +0.000 HD
BRANCH  25  28
ATOM     28  C   UNL     1      45.037   2.390   7.901  0.00  0.00    +0.000 C 
ATOM     29  C   UNL     1      45.545   3.529   7.004  0.00  0.00    +0.000 C 
ATOM     30  C   UNL     1      46.412   3.045   5.844  0.00  0.00    +0.000 C 
ATOM     31  C   UNL     1      47.561   2.152   6.300  0.00  0.00    +0.000 C 
ATOM     32  C   UNL     1      47.047   0.985   7.138  0.00  0.00    +0.000 C 
ATOM     33  C   UNL     1      46.184   1.444   8.313  0.00  0.00    +0.000 C 
BRANCH  31  34
ATOM     34  O   UNL     1      48.519   2.914   7.029  0.00  0.00    +0.000 OA
ATOM     35  H   UNL     1      48.097   3.286   7.822  0.00  0.00    +0.000 HD
ENDBRANCH  31  34
ENDBRANCH  25  28
ENDBRANCH  23  24
ENDBRANCH   4  23
TORSDOF 7
ENDMDL
MODEL 7
REMARK VINA RESULT:    -7.354      1.982      2.299
REMARK INTER + INTRA:         -11.062
REMARK INTER:                  -9.972
REMARK INTRA:                  -1.091
REMARK UNBOUND:                -0.914
REMARK  Name = 
REMARK  7 active torsions:
REMARK  status: ('A' for Active; 'I' for Inactive)
REMARK    1  A    between atoms: C_2  and  C_22
REMARK    2  A    between atoms: N_3  and  C_4
REMARK    3  A    between atoms: C_4  and  C_5
REMARK    4  A    between atoms: C_8  and  C_9
REMARK    5  A    between atoms: C_9  and  N_10
REMARK    6  A    between atoms: C_11  and  C_13
REMARK    7  A    between atoms: C_16  and  O_17
REMARK                            x       y       z     vdW  Elec       q    Type
REMARK                         _______ _______ _______ _____ _____    ______ ____
ROOT
ATOM      1  C   UNL     1      47.588   7.026  12.858  0.00  0.00    +0.000 A 
ATOM      2  C   UNL     1      47.280   5.814  13.490  0.00  0.00    +0.000 A 
ATOM      3  C   UNL     1      46.316   4.951  12.956  0.00  0.00    +0.000 A 
ATOM      4  C   UNL     1      45.653   5.270  11.762  0.00  0.00    +0.000 A 
ATOM      5  C   UNL     1      45.959   6.483  11.132  0.00  0.00    +0.000 A 
ATOM      6  C   UNL     1      46.925   7.348  11.667  0.00  0.00    +0.000 A 
ENDROOT
BRANCH   1   7
ATOM      7  C   UNL     1      48.634   7.946  13.437  0.00  0.00    +0.000 C 
BRANCH   7  10
ATOM      8  O   UNL     1      50.406   9.083  15.235  0.00  0.00    +0.000 OA
ATOM      9  C   UNL     1      50.435   7.863  15.090  0.00  0.00    +0.000 C 
ATOM     10  N   UNL     1      49.648   7.222  14.164  0.00  0.00    +0.000 N 
ATOM     11  H   UNL     1      49.542   6.214  14.217  0.00  0.00    +0.000 HD
BRANCH   9  12
ATOM     12  C   UNL     1      51.348   7.024  15.875  0.00  0.00    +0.000 A 
ATOM     13  C   UNL     1      52.715   7.259  15.834  0.00  0.00    +0.000 A 
ATOM     14  S   UNL     1      53.623   6.191  16.806  0.00  0.00    +0.000 S 
ATOM     15  C   UNL     1      52.217   5.407  17.352  0.00  0.00    +0.000 A 
ATOM     16  N   UNL     1      52.287   4.392  18.257  0.00  0.00    +0.000 NA
ATOM     17  C   UNL     1      51.142   3.911  18.609  0.00  0.00    +0.000 A 
ATOM     18  N   UNL     1      49.930   4.347  18.133  0.00  0.00    +0.000 N 
ATOM     19  C   UNL     1      49.814   5.342  17.190  0.00  0.00    +0.000 A 
ATOM     20  O   UNL     1      48.720   5.665  16.741  0.00  0.00    +0.000 OA
ATOM     21  C   UNL     1      51.071   5.933  16.780  0.00  0.00    +0.000 A 
ATOM     22  H   UNL     1      49.073   3.917  18.436  0.00  0.00    +0.000 HD
ENDBRANCH   9  12
ENDBRANCH   7  10
ENDBRANCH   1   7
BRANCH   4  23
ATOM     23  C   UNL     1      44.703   4.286  11.129  0.00  0.00    +0.000 C 
BRANCH  23  24
ATOM     24  N   UNL     1      45.029   3.924   9.768  0.00  0.00    +0.000 N 
ATOM     25  C   UNL     1      44.741   2.647   9.327  0.00  0.00    +0.000 C 
ATOM     26  O   UNL     1      44.134   1.840  10.024  0.00  0.00    +0.000 OA
ATOM     27  H   UNL     1      45.407   4.622   9.142  0.00  0.00    +0.000 HD
BRANCH  25  28
ATOM     28  C   UNL     1      45.276   2.293   7.933  0.00  0.00    +0.000 C 
ATOM     29  C   UNL     1      45.811   3.570   7.268  0.00  0.00    +0.000 C 
ATOM     30  C   UNL     1      46.560   3.305   5.963  0.00  0.00    +0.000 C 
ATOM     31  C   UNL     1      47.663   2.263   6.118  0.00  0.00    +0.000 C 
ATOM     32  C   UNL     1      47.114   0.972   6.721  0.00  0.00    +0.000 C 
ATOM     33  C   UNL     1      46.369   1.209   8.034  0.00  0.00    +0.000 C 
BRANCH  31  34
ATOM     34  O   UNL     1      48.723   2.781   6.916  0.00  0.00    +0.000 OA
ATOM     35  H   UNL     1      49.005   3.640   6.557  0.00  0.00    +0.000 HD
ENDBRANCH  31  34
ENDBRANCH  25  28
ENDBRANCH  23  24
ENDBRANCH   4  23
TORSDOF 7
ENDMDL
MODEL 8
REMARK VINA RESULT:    -7.298      3.500      5.524
REMARK INTER + INTRA:         -10.985
REMARK INTER:                 -10.023
REMARK INTRA:                  -0.962
REMARK UNBOUND:                -0.914
REMARK  Name = 
REMARK  7 active torsions:
REMARK  status: ('A' for Active; 'I' for Inactive)
REMARK    1  A    between atoms: C_2  and  C_22
REMARK    2  A    between atoms: N_3  and  C_4
REMARK    3  A    between atoms: C_4  and  C_5
REMARK    4  A    between atoms: C_8  and  C_9
REMARK    5  A    between atoms: C_9  and  N_10
REMARK    6  A    between atoms: C_11  and  C_13
REMARK    7  A    between atoms: C_16  and  O_17
REMARK                            x       y       z     vdW  Elec       q    Type
REMARK                         _______ _______ _______ _____ _____    ______ ____
ROOT
ATOM      1  C   UNL     1      48.200   4.416  16.871  0.00  0.00    +0.000 A 
ATOM      2  C   UNL     1      47.360   4.023  15.821  0.00  0.00    +0.000 A 
ATOM      3  C   UNL     1      47.202   4.829  14.688  0.00  0.00    +0.000 A 
ATOM      4  C   UNL     1      47.901   6.038  14.567  0.00  0.00    +0.000 A 
ATOM      5  C   UNL     1      48.739   6.433  15.618  0.00  0.00    +0.000 A 
ATOM      6  C   UNL     1      48.897   5.626  16.754  0.00  0.00    +0.000 A 
ENDROOT
BRANCH   1   7
ATOM      7  C   UNL     1      48.370   3.538  18.086  0.00  0.00    +0.000 C 
BRANCH   7  10
ATOM      8  O   UNL     1      49.784   1.769  16.494  0.00  0.00    +0.000 OA
ATOM      9  C   UNL     1      50.386   2.331  17.405  0.00  0.00    +0.000 C 
ATOM     10  N   UNL     1      49.748   3.164  18.293  0.00  0.00    +0.000 N 
ATOM     11  H   UNL     1      50.302   3.769  18.891  0.00  0.00    +0.000 HD
BRANCH   9  12
ATOM     12  C   UNL     1      51.821   2.110  17.621  0.00  0.00    +0.000 A 
ATOM     13  C   UNL     1      52.325   0.818  17.663  0.00  0.00    +0.000 A 
ATOM     14  S   UNL     1      54.010   0.750  17.922  0.00  0.00    +0.000 S 
ATOM     15  C   UNL     1      54.131   2.444  17.940  0.00  0.00    +0.000 A 
ATOM     16  N   UNL     1      55.337   3.060  18.089  0.00  0.00    +0.000 NA
ATOM     17  C   UNL     1      55.287   4.349  18.050  0.00  0.00    +0.000 A 
ATOM     18  N   UNL     1      54.139   5.083  17.882  0.00  0.00    +0.000 N 
ATOM     19  C   UNL     1      52.895   4.505  17.766  0.00  0.00    +0.000 A 
ATOM     20  O   UNL     1      51.883   5.192  17.680  0.00  0.00    +0.000 OA
ATOM     21  C   UNL     1      52.900   3.057  17.779  0.00  0.00    +0.000 A 
ATOM     22  H   UNL     1      54.166   6.089  17.877  0.00  0.00    +0.000 HD
ENDBRANCH   9  12
ENDBRANCH   7  10
ENDBRANCH   1   7
BRANCH   4  23
ATOM     23  C   UNL     1      47.820   6.844  13.296  0.00  0.00    +0.000 C 
BRANCH  23  24
ATOM     24  N   UNL     1      46.967   6.277  12.276  0.00  0.00    +0.000 N 
ATOM     25  C   UNL     1      45.674   6.745  12.145  0.00  0.00    +0.000 C 
ATOM     26  O   UNL     1      45.256   7.691  12.807  0.00  0.00    +0.000 OA
ATOM     27  H   UNL     1      47.343   5.590  11.636  0.00  0.00    +0.000 HD
BRANCH  25  28
ATOM     28  C   UNL     1      44.787   5.972  11.161  0.00  0.00    +0.000 C 
ATOM     29  C   UNL     1      45.660   5.451  10.010  0.00  0.00    +0.000 C 
ATOM     30  C   UNL     1      44.924   4.489   9.079  0.00  0.00    +0.000 C 
ATOM     31  C   UNL     1      44.260   3.338   9.828  0.00  0.00    +0.000 C 
ATOM     32  C   UNL     1      43.343   3.861  10.931  0.00  0.00    +0.000 C 
ATOM     33  C   UNL     1      44.059   4.818  11.882  0.00  0.00    +0.000 C 
BRANCH  31  34
ATOM     34  O   UNL     1      45.247   2.463  10.365  0.00  0.00    +0.000 OA
ATOM     35  H   UNL     1      45.739   2.925  11.065  0.00  0.00    +0.000 HD
ENDBRANCH  31  34
ENDBRANCH  25  28
ENDBRANCH  23  24
ENDBRANCH   4  23
TORSDOF 7
ENDMDL
MODEL 9
REMARK VINA RESULT:    -7.255      3.195     10.449
REMARK INTER + INTRA:         -10.926
REMARK INTER:                  -9.994
REMARK INTRA:                  -0.931
REMARK UNBOUND:                -0.914
REMARK  Name = 
REMARK  7 active torsions:
REMARK  status: ('A' for Active; 'I' for Inactive)
REMARK    1  A    between atoms: C_2  and  C_22
REMARK    2  A    between atoms: N_3  and  C_4
REMARK    3  A    between atoms: C_4  and  C_5
REMARK    4  A    between atoms: C_8  and  C_9
REMARK    5  A    between atoms: C_9  and  N_10
REMARK    6  A    between atoms: C_11  and  C_13
REMARK    7  A    between atoms: C_16  and  O_17
REMARK                            x       y       z     vdW  Elec       q    Type
REMARK                         _______ _______ _______ _____ _____    ______ ____
ROOT
ATOM      1  C   UNL     1      45.302   4.600  12.568  0.00  0.00    +0.000 A 
ATOM      2  C   UNL     1      45.463   5.941  12.196  0.00  0.00    +0.000 A 
ATOM      3  C   UNL     1      46.414   6.752  12.828  0.00  0.00    +0.000 A 
ATOM      4  C   UNL     1      47.244   6.232  13.831  0.00  0.00    +0.000 A 
ATOM      5  C   UNL     1      47.081   4.892  14.205  0.00  0.00    +0.000 A 
ATOM      6  C   UNL     1      46.128   4.080  13.572  0.00  0.00    +0.000 A 
ENDROOT
BRANCH   1   7
ATOM      7  C   UNL     1      44.280   3.732  11.877  0.00  0.00    +0.000 C 
BRANCH   7  10
ATOM      8  O   UNL     1      44.073   3.975   9.127  0.00  0.00    +0.000 OA
ATOM      9  C   UNL     1      44.788   3.082   9.575  0.00  0.00    +0.000 C 
ATOM     10  N   UNL     1      44.889   2.837  10.923  0.00  0.00    +0.000 N 
ATOM     11  H   UNL     1      45.638   2.244  11.265  0.00  0.00    +0.000 HD
BRANCH   9  12
ATOM     12  C   UNL     1      45.547   2.195   8.684  0.00  0.00    +0.000 A 
ATOM     13  C   UNL     1      45.379   0.820   8.766  0.00  0.00    +0.000 A 
ATOM     14  S   UNL     1      46.339  -0.053   7.658  0.00  0.00    +0.000 S 
ATOM     15  C   UNL     1      46.976   1.378   6.999  0.00  0.00    +0.000 A 
ATOM     16  N   UNL     1      47.856   1.340   5.961  0.00  0.00    +0.000 NA
ATOM     17  C   UNL     1      48.233   2.500   5.537  0.00  0.00    +0.000 A 
ATOM     18  N   UNL     1      47.816   3.698   6.063  0.00  0.00    +0.000 N 
ATOM     19  C   UNL     1      46.959   3.783   7.136  0.00  0.00    +0.000 A 
ATOM     20  O   UNL     1      46.656   4.868   7.621  0.00  0.00    +0.000 OA
ATOM     21  C   UNL     1      46.487   2.507   7.633  0.00  0.00    +0.000 A 
ATOM     22  H   UNL     1      48.161   4.569   5.697  0.00  0.00    +0.000 HD
ENDBRANCH   9  12
ENDBRANCH   7  10
ENDBRANCH   1   7
BRANCH   4  23
ATOM     23  C   UNL     1      48.344   7.074  14.425  0.00  0.00    +0.000 C 
BRANCH  23  24
ATOM     24  N   UNL     1      48.392   7.071  15.870  0.00  0.00    +0.000 N 
ATOM     25  C   UNL     1      49.514   6.572  16.502  0.00  0.00    +0.000 C 
ATOM     26  O   UNL     1      50.509   6.218  15.876  0.00  0.00    +0.000 OA
ATOM     27  H   UNL     1      47.633   7.482  16.396  0.00  0.00    +0.000 HD
BRANCH  25  28
ATOM     28  C   UNL     1      49.412   6.444  18.027  0.00  0.00    +0.000 C 
ATOM     29  C   UNL     1      47.965   6.086  18.399  0.00  0.00    +0.000 C 
ATOM     30  C   UNL     1      47.790   5.725  19.873  0.00  0.00    +0.000 C 
ATOM     31  C   UNL     1      48.759   4.642  20.334  0.00  0.00    +0.000 C 
ATOM     32  C   UNL     1      50.202   5.030  20.021  0.00  0.00    +0.000 C 
ATOM     33  C   UNL     1      50.406   5.385  18.548  0.00  0.00    +0.000 C 
BRANCH  31  34
ATOM     34  O   UNL     1      48.429   3.395  19.729  0.00  0.00    +0.000 OA
ATOM     35  H   UNL     1      47.684   2.993  20.208  0.00  0.00    +0.000 HD
ENDBRANCH  31  34
ENDBRANCH  25  28
ENDBRANCH  23  24
ENDBRANCH   4  23
TORSDOF 7
ENDMDL
