MODEL 1
REMARK VINA RESULT:    -8.676      0.000      0.000
REMARK INTER + INTRA:         -12.199
REMARK INTER:                 -11.719
REMARK INTRA:                  -0.480
REMARK UNBOUND:                -0.480
REMARK  Name = 
REMARK  7 active torsions:
REMARK  status: ('A' for Active; 'I' for Inactive)
REMARK    1  A    between atoms: C_1  and  C_2
REMARK    2  A    between atoms: C_2  and  N_3
REMARK    3  A    between atoms: C_2  and  C_16
REMARK    4  A    between atoms: C_4  and  C_6
REMARK    5  A    between atoms: C_19  and  O_20
REMARK    6  A    between atoms: O_20  and  C_21
REMARK    7  A    between atoms: C_21  and  C_22
REMARK                            x       y       z     vdW  Elec       q    Type
REMARK                         _______ _______ _______ _____ _____    ______ ____
ROOT
ATOM      1  C   UNL     1      47.756   8.699  12.254  0.00  0.00    +0.000 C 
ATOM      2  C   UNL     1      46.658   7.948  13.015  0.00  0.00    +0.000 C 
ENDROOT
BRANCH   2   3
ATOM      3  C   UNL     1      46.048   6.791  12.242  0.00  0.00    +0.000 A 
ATOM      4  C   UNL     1      46.352   6.629  10.880  0.00  0.00    +0.000 A 
ATOM      5  C   UNL     1      45.787   5.577  10.147  0.00  0.00    +0.000 A 
ATOM      6  C   UNL     1      44.921   4.681  10.762  0.00  0.00    +0.000 A 
ATOM      7  C   UNL     1      44.567   4.875  12.098  0.00  0.00    +0.000 A 
ATOM      8  C   UNL     1      45.130   5.915  12.831  0.00  0.00    +0.000 A 
BRANCH   6   9
ATOM      9  O   UNL     1      44.467   3.650   9.985  0.00  0.00    +0.000 OA
BRANCH   9  10
ATOM     10  C   UNL     1      44.539   3.891   8.572  0.00  0.00    +0.000 C 
BRANCH  10  11
ATOM     11  C   UNL     1      45.584   3.003   7.948  0.00  0.00    +0.000 A 
ATOM     12  C   UNL     1      46.453   3.524   6.989  0.00  0.00    +0.000 A 
ATOM     13  C   UNL     1      47.439   2.703   6.461  0.00  0.00    +0.000 A 
ATOM     14  C   UNL     1      47.537   1.388   6.900  0.00  0.00    +0.000 A 
ATOM     15  C   UNL     1      46.642   0.952   7.863  0.00  0.00    +0.000 A 
ATOM     16  N   UNL     1      45.678   1.727   8.401  0.00  0.00    +0.000 NA
ENDBRANCH  10  11
ENDBRANCH   9  10
ENDBRANCH   6   9
ENDBRANCH   2   3
BRANCH   2  17
ATOM     17  N   UNL     1      47.165   7.449  14.277  0.00  0.00    +0.000 N 
ATOM     18  C   UNL     1      48.256   6.625  14.345  0.00  0.00    +0.000 C 
ATOM     19  O   UNL     1      48.895   6.295  13.349  0.00  0.00    +0.000 OA
ATOM     20  H   UNL     1      46.572   7.569  15.093  0.00  0.00    +0.000 HD
BRANCH  18  21
ATOM     21  C   UNL     1      48.669   6.206  15.685  0.00  0.00    +0.000 A 
ATOM     22  C   UNL     1      49.610   6.953  16.381  0.00  0.00    +0.000 A 
ATOM     23  S   UNL     1      49.966   6.327  17.928  0.00  0.00    +0.000 S 
ATOM     24  C   UNL     1      48.915   5.012  17.693  0.00  0.00    +0.000 A 
ATOM     25  N   UNL     1      48.766   4.040  18.627  0.00  0.00    +0.000 NA
ATOM     26  N   UNL     1      48.010   3.066  18.386  0.00  0.00    +0.000 NA
ATOM     27  N   UNL     1      47.331   3.023  17.199  0.00  0.00    +0.000 N 
ATOM     28  C   UNL     1      47.372   3.976  16.208  0.00  0.00    +0.000 A 
ATOM     29  O   UNL     1      46.684   3.896  15.195  0.00  0.00    +0.000 OA
ATOM     30  C   UNL     1      48.276   5.069  16.476  0.00  0.00    +0.000 A 
ATOM     31  H   UNL     1      46.726   2.224  17.069  0.00  0.00    +0.000 HD
ENDBRANCH  18  21
ENDBRANCH   2  17
TORSDOF 6
ENDMDL
MODEL 2
REMARK VINA RESULT:    -7.997      2.071      2.528
REMARK INTER + INTRA:         -11.282
REMARK INTER:                 -10.205
REMARK INTRA:                  -1.077
REMARK UNBOUND:                -0.480
REMARK  Name = 
REMARK  7 active torsions:
REMARK  status: ('A' for Active; 'I' for Inactive)
REMARK    1  A    between atoms: C_1  and  C_2
REMARK    2  A    between atoms: C_2  and  N_3
REMARK    3  A    between atoms: C_2  and  C_16
REMARK    4  A    between atoms: C_4  and  C_6
REMARK    5  A    between atoms: C_19  and  O_20
REMARK    6  A    between atoms: O_20  and  C_21
REMARK    7  A    between atoms: C_21  and  C_22
REMARK                            x       y       z     vdW  Elec       q    Type
REMARK                         _______ _______ _______ _____ _____    ______ ____
ROOT
ATOM      1  C   UNL     1      48.815   8.445  13.863  0.00  0.00    +0.000 C 
ATOM      2  C   UNL     1      48.113   7.292  14.589  0.00  0.00    +0.000 C 
ENDROOT
BRANCH   2   3
ATOM      3  C   UNL     1      47.205   6.461  13.701  0.00  0.00    +0.000 A 
ATOM      4  C   UNL     1      47.018   5.097  13.981  0.00  0.00    +0.000 A 
ATOM      5  C   UNL     1      46.196   4.311  13.162  0.00  0.00    +0.000 A 
ATOM      6  C   UNL     1      45.555   4.874  12.066  0.00  0.00    +0.000 A 
ATOM      7  C   UNL     1      45.788   6.212  11.746  0.00  0.00    +0.000 A 
ATOM      8  C   UNL     1      46.599   6.998  12.560  0.00  0.00    +0.000 A 
BRANCH   6   9
ATOM      9  O   UNL     1      44.725   4.046  11.361  0.00  0.00    +0.000 OA
BRANCH   9  10
ATOM     10  C   UNL     1      44.452   4.476  10.018  0.00  0.00    +0.000 C 
BRANCH  10  11
ATOM     11  C   UNL     1      45.287   3.689   9.042  0.00  0.00    +0.000 A 
ATOM     12  C   UNL     1      45.363   2.301   9.158  0.00  0.00    +0.000 A 
ATOM     13  C   UNL     1      46.099   1.590   8.221  0.00  0.00    +0.000 A 
ATOM     14  C   UNL     1      46.737   2.274   7.193  0.00  0.00    +0.000 A 
ATOM     15  C   UNL     1      46.603   3.652   7.144  0.00  0.00    +0.000 A 
ATOM     16  N   UNL     1      45.889   4.372   8.035  0.00  0.00    +0.000 NA
ENDBRANCH  10  11
ENDBRANCH   9  10
ENDBRANCH   6   9
ENDBRANCH   2   3
BRANCH   2  17
ATOM     17  N   UNL     1      49.086   6.416  15.211  0.00  0.00    +0.000 N 
ATOM     18  C   UNL     1      49.267   6.381  16.567  0.00  0.00    +0.000 C 
ATOM     19  O   UNL     1      48.589   7.052  17.340  0.00  0.00    +0.000 OA
ATOM     20  H   UNL     1      49.766   5.973  14.599  0.00  0.00    +0.000 HD
BRANCH  18  21
ATOM     21  C   UNL     1      50.274   5.440  17.063  0.00  0.00    +0.000 A 
ATOM     22  C   UNL     1      51.471   5.921  17.576  0.00  0.00    +0.000 A 
ATOM     23  S   UNL     1      52.521   4.689  18.116  0.00  0.00    +0.000 S 
ATOM     24  C   UNL     1      51.431   3.478  17.633  0.00  0.00    +0.000 A 
ATOM     25  N   UNL     1      51.722   2.160  17.765  0.00  0.00    +0.000 NA
ATOM     26  N   UNL     1      50.901   1.304  17.351  0.00  0.00    +0.000 NA
ATOM     27  N   UNL     1      49.719   1.721  16.803  0.00  0.00    +0.000 N 
ATOM     28  C   UNL     1      49.305   3.026  16.666  0.00  0.00    +0.000 A 
ATOM     29  O   UNL     1      48.200   3.318  16.219  0.00  0.00    +0.000 OA
ATOM     30  C   UNL     1      50.274   4.001  17.105  0.00  0.00    +0.000 A 
ATOM     31  H   UNL     1      49.091   0.987  16.503  0.00  0.00    +0.000 HD
ENDBRANCH  18  21
ENDBRANCH   2  17
TORSDOF 6
ENDMDL
MODEL 3
REMARK VINA RESULT:    -7.979      1.858      2.403
REMARK INTER + INTRA:         -11.258
REMARK INTER:                 -10.220
REMARK INTRA:                  -1.038
REMARK UNBOUND:                -0.480
REMARK  Name = 
REMARK  7 active torsions:
REMARK  status: ('A' for Active; 'I' for Inactive)
REMARK    1  A    between atoms: C_1  and  C_2
REMARK    2  A    between atoms: C_2  and  N_3
REMARK    3  A    between atoms: C_2  and  C_16
REMARK    4  A    between atoms: C_4  and  C_6
REMARK    5  A    between atoms: C_19  and  O_20
REMARK    6  A    between atoms: O_20  and  C_21
REMARK    7  A    between atoms: C_21  and  C_22
REMARK                            x       y       z     vdW  Elec       q    Type
REMARK                         _______ _______ _______ _____ _____    ______ ____
ROOT
ATOM      1  C   UNL     1      49.630   7.365  13.281  0.00  0.00    +0.000 C 
ATOM      2  C   UNL     1      48.195   7.551  13.786  0.00  0.00    +0.000 C 
ENDROOT
BRANCH   2   3
ATOM      3  C   UNL     1      47.168   6.693  13.069  0.00  0.00    +0.000 A 
ATOM      4  C   UNL     1      46.998   5.351  13.448  0.00  0.00    +0.000 A 
ATOM      5  C   UNL     1      46.067   4.540  12.786  0.00  0.00    +0.000 A 
ATOM      6  C   UNL     1      45.300   5.056  11.749  0.00  0.00    +0.000 A 
ATOM      7  C   UNL     1      45.510   6.369  11.327  0.00  0.00    +0.000 A 
ATOM      8  C   UNL     1      46.430   7.181  11.985  0.00  0.00    +0.000 A 
BRANCH   6   9
ATOM      9  O   UNL     1      44.373   4.209  11.203  0.00  0.00    +0.000 OA
BRANCH   9  10
ATOM     10  C   UNL     1      44.102   4.439   9.812  0.00  0.00    +0.000 C 
BRANCH  10  11
ATOM     11  C   UNL     1      45.079   3.672   8.960  0.00  0.00    +0.000 A 
ATOM     12  C   UNL     1      45.188   2.289   9.105  0.00  0.00    +0.000 A 
ATOM     13  C   UNL     1      46.059   1.594   8.278  0.00  0.00    +0.000 A 
ATOM     14  C   UNL     1      46.796   2.290   7.328  0.00  0.00    +0.000 A 
ATOM     15  C   UNL     1      46.622   3.661   7.241  0.00  0.00    +0.000 A 
ATOM     16  N   UNL     1      45.778   4.364   8.025  0.00  0.00    +0.000 NA
ENDBRANCH  10  11
ENDBRANCH   9  10
ENDBRANCH   6   9
ENDBRANCH   2   3
BRANCH   2  17
ATOM     17  N   UNL     1      48.118   7.279  15.208  0.00  0.00    +0.000 N 
ATOM     18  C   UNL     1      48.626   8.144  16.140  0.00  0.00    +0.000 C 
ATOM     19  O   UNL     1      49.135   9.218  15.833  0.00  0.00    +0.000 OA
ATOM     20  H   UNL     1      47.852   6.338  15.484  0.00  0.00    +0.000 HD
BRANCH  18  21
ATOM     21  C   UNL     1      48.468   7.752  17.541  0.00  0.00    +0.000 A 
ATOM     22  C   UNL     1      48.094   8.700  18.484  0.00  0.00    +0.000 A 
ATOM     23  S   UNL     1      47.948   8.069  20.062  0.00  0.00    +0.000 S 
ATOM     24  C   UNL     1      48.430   6.523  19.543  0.00  0.00    +0.000 A 
ATOM     25  N   UNL     1      48.566   5.489  20.408  0.00  0.00    +0.000 NA
ATOM     26  N   UNL     1      48.969   4.378  19.981  0.00  0.00    +0.000 NA
ATOM     27  N   UNL     1      49.233   4.230  18.647  0.00  0.00    +0.000 N 
ATOM     28  C   UNL     1      49.083   5.197  17.680  0.00  0.00    +0.000 A 
ATOM     29  O   UNL     1      49.282   4.968  16.490  0.00  0.00    +0.000 OA
ATOM     30  C   UNL     1      48.662   6.480  18.188  0.00  0.00    +0.000 A 
ATOM     31  H   UNL     1      49.538   3.309  18.360  0.00  0.00    +0.000 HD
ENDBRANCH  18  21
ENDBRANCH   2  17
TORSDOF 6
ENDMDL
MODEL 4
REMARK VINA RESULT:    -7.851      2.780      3.609
REMARK INTER + INTRA:         -11.085
REMARK INTER:                  -9.850
REMARK INTRA:                  -1.235
REMARK UNBOUND:                -0.480
REMARK  Name = 
REMARK  7 active torsions:
REMARK  status: ('A' for Active; 'I' for Inactive)
REMARK    1  A    between atoms: C_1  and  C_2
REMARK    2  A    between atoms: C_2  and  N_3
REMARK    3  A    between atoms: C_2  and  C_16
REMARK    4  A    between atoms: C_4  and  C_6
REMARK    5  A    between atoms: C_19  and  O_20
REMARK    6  A    between atoms: O_20  and  C_21
REMARK    7  A    between atoms: C_21  and  C_22
REMARK                            x       y       z     vdW  Elec       q    Type
REMARK                         _______ _______ _______ _____ _____    ______ ____
ROOT
ATOM      1  C   UNL     1      47.517   4.016  16.178  0.00  0.00    +0.000 C 
ATOM      2  C   UNL     1      47.892   4.991  15.057  0.00  0.00    +0.000 C 
ENDROOT
BRANCH   2   3
ATOM      3  C   UNL     1      46.992   4.909  13.836  0.00  0.00    +0.000 A 
ATOM      4  C   UNL     1      46.842   6.033  13.008  0.00  0.00    +0.000 A 
ATOM      5  C   UNL     1      46.003   5.981  11.886  0.00  0.00    +0.000 A 
ATOM      6  C   UNL     1      45.314   4.814  11.581  0.00  0.00    +0.000 A 
ATOM      7  C   UNL     1      45.409   3.716  12.436  0.00  0.00    +0.000 A 
ATOM      8  C   UNL     1      46.246   3.761  13.548  0.00  0.00    +0.000 A 
BRANCH   6   9
ATOM      9  O   UNL     1      44.567   4.836  10.434  0.00  0.00    +0.000 OA
BRANCH   9  10
ATOM     10  C   UNL     1      44.184   3.541   9.946  0.00  0.00    +0.000 C 
BRANCH  10  11
ATOM     11  C   UNL     1      45.148   3.082   8.883  0.00  0.00    +0.000 A 
ATOM     12  C   UNL     1      45.678   4.007   7.983  0.00  0.00    +0.000 A 
ATOM     13  C   UNL     1      46.599   3.573   7.041  0.00  0.00    +0.000 A 
ATOM     14  C   UNL     1      46.972   2.234   7.019  0.00  0.00    +0.000 A 
ATOM     15  C   UNL     1      46.407   1.383   7.954  0.00  0.00    +0.000 A 
ATOM     16  N   UNL     1      45.514   1.775   8.887  0.00  0.00    +0.000 NA
ENDBRANCH  10  11
ENDBRANCH   9  10
ENDBRANCH   6   9
ENDBRANCH   2   3
BRANCH   2  17
ATOM     17  N   UNL     1      47.889   6.355  15.548  0.00  0.00    +0.000 N 
ATOM     18  C   UNL     1      49.048   7.051  15.760  0.00  0.00    +0.000 C 
ATOM     19  O   UNL     1      50.154   6.581  15.506  0.00  0.00    +0.000 OA
ATOM     20  H   UNL     1      47.012   6.710  15.915  0.00  0.00    +0.000 HD
BRANCH  18  21
ATOM     21  C   UNL     1      48.900   8.424  16.245  0.00  0.00    +0.000 A 
ATOM     22  C   UNL     1      49.387   9.479  15.485  0.00  0.00    +0.000 A 
ATOM     23  S   UNL     1      49.120  11.008  16.195  0.00  0.00    +0.000 S 
ATOM     24  C   UNL     1      48.393  10.303  17.560  0.00  0.00    +0.000 A 
ATOM     25  N   UNL     1      47.959  11.050  18.605  0.00  0.00    +0.000 NA
ATOM     26  N   UNL     1      47.469  10.477  19.610  0.00  0.00    +0.000 NA
ATOM     27  N   UNL     1      47.357   9.114  19.614  0.00  0.00    +0.000 N 
ATOM     28  C   UNL     1      47.719   8.268  18.591  0.00  0.00    +0.000 A 
ATOM     29  O   UNL     1      47.529   7.056  18.646  0.00  0.00    +0.000 OA
ATOM     30  C   UNL     1      48.321   8.933  17.460  0.00  0.00    +0.000 A 
ATOM     31  H   UNL     1      46.940   8.711  20.443  0.00  0.00    +0.000 HD
ENDBRANCH  18  21
ENDBRANCH   2  17
TORSDOF 6
ENDMDL
MODEL 5
REMARK VINA RESULT:    -7.416      2.743      3.745
REMARK INTER + INTRA:         -10.498
REMARK INTER:                  -9.255
REMARK INTRA:                  -1.243
REMARK UNBOUND:                -0.480
REMARK  Name = 
REMARK  7 active torsions:
REMARK  status: ('A' for Active; 'I' for Inactive)
REMARK    1  A    between atoms: C_1  and  C_2
REMARK    2  A    between atoms: C_2  and  N_3
REMARK    3  A    between atoms: C_2  and  C_16
REMARK    4  A    between atoms: C_4  and  C_6
REMARK    5  A    between atoms: C_19  and  O_20
REMARK    6  A    between atoms: O_20  and  C_21
REMARK    7  A    between atoms: C_21  and  C_22
REMARK                            x       y       z     vdW  Elec       q    Type
REMARK                         _______ _______ _______ _____ _____    ______ ____
ROOT
ATOM      1  C   UNL     1      47.469   9.460  12.743  0.00  0.00    +0.000 C 
ATOM      2  C   UNL     1      47.239   8.214  13.607  0.00  0.00    +0.000 C 
ENDROOT
BRANCH   2   3
ATOM      3  C   UNL     1      46.523   7.085  12.888  0.00  0.00    +0.000 A 
ATOM      4  C   UNL     1      46.577   5.783  13.413  0.00  0.00    +0.000 A 
ATOM      5  C   UNL     1      45.935   4.725  12.754  0.00  0.00    +0.000 A 
ATOM      6  C   UNL     1      45.237   4.955  11.576  0.00  0.00    +0.000 A 
ATOM      7  C   UNL     1      45.234   6.233  11.016  0.00  0.00    +0.000 A 
ATOM      8  C   UNL     1      45.865   7.288  11.670  0.00  0.00    +0.000 A 
BRANCH   6   9
ATOM      9  O   UNL     1      44.591   3.875  11.036  0.00  0.00    +0.000 OA
BRANCH   9  10
ATOM     10  C   UNL     1      44.207   4.035   9.662  0.00  0.00    +0.000 C 
BRANCH  10  11
ATOM     11  C   UNL     1      45.236   3.404   8.760  0.00  0.00    +0.000 A 
ATOM     12  C   UNL     1      45.467   2.031   8.827  0.00  0.00    +0.000 A 
ATOM     13  C   UNL     1      46.384   1.461   7.956  0.00  0.00    +0.000 A 
ATOM     14  C   UNL     1      47.045   2.270   7.039  0.00  0.00    +0.000 A 
ATOM     15  C   UNL     1      46.751   3.624   7.030  0.00  0.00    +0.000 A 
ATOM     16  N   UNL     1      45.859   4.206   7.859  0.00  0.00    +0.000 NA
ENDBRANCH  10  11
ENDBRANCH   9  10
ENDBRANCH   6   9
ENDBRANCH   2   3
BRANCH   2  17
ATOM     17  N   UNL     1      48.498   7.714  14.123  0.00  0.00    +0.000 N 
ATOM     18  C   UNL     1      48.921   7.992  15.394  0.00  0.00    +0.000 C 
ATOM     19  O   UNL     1      48.243   8.640  16.187  0.00  0.00    +0.000 OA
ATOM     20  H   UNL     1      49.147   7.317  13.450  0.00  0.00    +0.000 HD
BRANCH  18  21
ATOM     21  C   UNL     1      50.206   7.413  15.791  0.00  0.00    +0.000 A 
ATOM     22  C   UNL     1      50.273   6.579  16.898  0.00  0.00    +0.000 A 
ATOM     23  S   UNL     1      51.842   5.986  17.210  0.00  0.00    +0.000 S 
ATOM     24  C   UNL     1      52.488   6.867  15.907  0.00  0.00    +0.000 A 
ATOM     25  N   UNL     1      53.813   6.853  15.621  0.00  0.00    +0.000 NA
ATOM     26  N   UNL     1      54.245   7.558  14.674  0.00  0.00    +0.000 NA
ATOM     27  N   UNL     1      53.365   8.299  13.935  0.00  0.00    +0.000 N 
ATOM     28  C   UNL     1      52.001   8.347  14.109  0.00  0.00    +0.000 A 
ATOM     29  O   UNL     1      51.269   8.991  13.363  0.00  0.00    +0.000 OA
ATOM     30  C   UNL     1      51.520   7.569  15.225  0.00  0.00    +0.000 A 
ATOM     31  H   UNL     1      53.769   8.832  13.177  0.00  0.00    +0.000 HD
ENDBRANCH  18  21
ENDBRANCH   2  17
TORSDOF 6
ENDMDL
MODEL 6
REMARK VINA RESULT:    -7.403      2.388      3.984
REMARK INTER + INTRA:         -10.480
REMARK INTER:                  -9.448
REMARK INTRA:                  -1.032
REMARK UNBOUND:                -0.480
REMARK  Name = 
REMARK  7 active torsions:
REMARK  status: ('A' for Active; 'I' for Inactive)
REMARK    1  A    between atoms: C_1  and  C_2
REMARK    2  A    between atoms: C_2  and  N_3
REMARK    3  A    between atoms: C_2  and  C_16
REMARK    4  A    between atoms: C_4  and  C_6
REMARK    5  A    between atoms: C_19  and  O_20
REMARK    6  A    between atoms: O_20  and  C_21
REMARK    7  A    between atoms: C_21  and  C_22
REMARK                            x       y       z     vdW  Elec       q    Type
REMARK                         _______ _______ _______ _____ _____    ______ ____
ROOT
ATOM      1  C   UNL     1      47.255   3.281  16.042  0.00  0.00    +0.000 C 
ATOM      2  C   UNL     1      47.703   4.422  15.122  0.00  0.00    +0.000 C 
ENDROOT
BRANCH   2   3
ATOM      3  C   UNL     1      46.859   4.576  13.869  0.00  0.00    +0.000 A 
ATOM      4  C   UNL     1      46.825   5.812  13.202  0.00  0.00    +0.000 A 
ATOM      5  C   UNL     1      46.040   5.977  12.053  0.00  0.00    +0.000 A 
ATOM      6  C   UNL     1      45.288   4.918  11.561  0.00  0.00    +0.000 A 
ATOM      7  C   UNL     1      45.267   3.708  12.256  0.00  0.00    +0.000 A 
ATOM      8  C   UNL     1      46.050   3.537  13.394  0.00  0.00    +0.000 A 
BRANCH   6   9
ATOM      9  O   UNL     1      44.600   5.152  10.401  0.00  0.00    +0.000 OA
BRANCH   9  10
ATOM     10  C   UNL     1      44.103   3.972   9.753  0.00  0.00    +0.000 C 
BRANCH  10  11
ATOM     11  C   UNL     1      45.159   3.393   8.848  0.00  0.00    +0.000 A 
ATOM     12  C   UNL     1      45.408   2.021   8.865  0.00  0.00    +0.000 A 
ATOM     13  C   UNL     1      46.352   1.500   7.990  0.00  0.00    +0.000 A 
ATOM     14  C   UNL     1      47.021   2.355   7.122  0.00  0.00    +0.000 A 
ATOM     15  C   UNL     1      46.707   3.704   7.162  0.00  0.00    +0.000 A 
ATOM     16  N   UNL     1      45.790   4.239   7.995  0.00  0.00    +0.000 NA
ENDBRANCH  10  11
ENDBRANCH   9  10
ENDBRANCH   6   9
ENDBRANCH   2   3
BRANCH   2  17
ATOM     17  N   UNL     1      47.705   5.682  15.840  0.00  0.00    +0.000 N 
ATOM     18  C   UNL     1      48.813   6.134  16.504  0.00  0.00    +0.000 C 
ATOM     19  O   UNL     1      49.880   5.527  16.495  0.00  0.00    +0.000 OA
ATOM     20  H   UNL     1      46.805   6.123  16.001  0.00  0.00    +0.000 HD
BRANCH  18  21
ATOM     21  C   UNL     1      48.682   7.428  17.176  0.00  0.00    +0.000 A 
ATOM     22  C   UNL     1      48.255   7.478  18.496  0.00  0.00    +0.000 A 
ATOM     23  S   UNL     1      48.169   9.062  19.124  0.00  0.00    +0.000 S 
ATOM     24  C   UNL     1      48.648   9.731  17.636  0.00  0.00    +0.000 A 
ATOM     25  N   UNL     1      48.742  11.071  17.451  0.00  0.00    +0.000 NA
ATOM     26  N   UNL     1      49.057  11.516  16.319  0.00  0.00    +0.000 NA
ATOM     27  N   UNL     1      49.328  10.637  15.307  0.00  0.00    +0.000 N 
ATOM     28  C   UNL     1      49.311   9.264  15.400  0.00  0.00    +0.000 A 
ATOM     29  O   UNL     1      49.627   8.542  14.459  0.00  0.00    +0.000 OA
ATOM     30  C   UNL     1      48.905   8.765  16.691  0.00  0.00    +0.000 A 
ATOM     31  H   UNL     1      49.592  11.053  14.424  0.00  0.00    +0.000 HD
ENDBRANCH  18  21
ENDBRANCH   2  17
TORSDOF 6
ENDMDL
MODEL 7
REMARK VINA RESULT:    -7.146      4.038      8.329
REMARK INTER + INTRA:         -10.132
REMARK INTER:                  -9.048
REMARK INTRA:                  -1.084
REMARK UNBOUND:                -0.480
REMARK  Name = 
REMARK  7 active torsions:
REMARK  status: ('A' for Active; 'I' for Inactive)
REMARK    1  A    between atoms: C_1  and  C_2
REMARK    2  A    between atoms: C_2  and  N_3
REMARK    3  A    between atoms: C_2  and  C_16
REMARK    4  A    between atoms: C_4  and  C_6
REMARK    5  A    between atoms: C_19  and  O_20
REMARK    6  A    between atoms: O_20  and  C_21
REMARK    7  A    between atoms: C_21  and  C_22
REMARK                            x       y       z     vdW  Elec       q    Type
REMARK                         _______ _______ _______ _____ _____    ______ ____
ROOT
ATOM      1  C   UNL     1      43.625   3.269  12.821  0.00  0.00    +0.000 C 
ATOM      2  C   UNL     1      44.376   4.049  11.737  0.00  0.00    +0.000 C 
ENDROOT
BRANCH   2   3
ATOM      3  C   UNL     1      45.422   5.009  12.275  0.00  0.00    +0.000 A 
ATOM      4  C   UNL     1      45.718   6.184  11.564  0.00  0.00    +0.000 A 
ATOM      5  C   UNL     1      46.692   7.074  12.038  0.00  0.00    +0.000 A 
ATOM      6  C   UNL     1      47.372   6.803  13.219  0.00  0.00    +0.000 A 
ATOM      7  C   UNL     1      47.128   5.607  13.894  0.00  0.00    +0.000 A 
ATOM      8  C   UNL     1      46.158   4.723  13.431  0.00  0.00    +0.000 A 
BRANCH   6   9
ATOM      9  O   UNL     1      48.260   7.757  13.636  0.00  0.00    +0.000 OA
BRANCH   9  10
ATOM     10  C   UNL     1      48.453   8.838  12.711  0.00  0.00    +0.000 C 
BRANCH  10  11
ATOM     11  C   UNL     1      49.865   8.823  12.184  0.00  0.00    +0.000 A 
ATOM     12  C   UNL     1      50.280   7.788  11.347  0.00  0.00    +0.000 A 
ATOM     13  C   UNL     1      51.569   7.817  10.834  0.00  0.00    +0.000 A 
ATOM     14  C   UNL     1      52.409   8.874  11.163  0.00  0.00    +0.000 A 
ATOM     15  C   UNL     1      51.916   9.868  11.992  0.00  0.00    +0.000 A 
ATOM     16  N   UNL     1      50.666   9.872  12.501  0.00  0.00    +0.000 NA
ENDBRANCH  10  11
ENDBRANCH   9  10
ENDBRANCH   6   9
ENDBRANCH   2   3
BRANCH   2  17
ATOM     17  N   UNL     1      45.014   3.139  10.806  0.00  0.00    +0.000 N 
ATOM     18  C   UNL     1      44.812   3.226   9.455  0.00  0.00    +0.000 C 
ATOM     19  O   UNL     1      44.119   4.102   8.948  0.00  0.00    +0.000 OA
ATOM     20  H   UNL     1      45.458   2.314  11.199  0.00  0.00    +0.000 HD
BRANCH  18  21
ATOM     21  C   UNL     1      45.529   2.252   8.630  0.00  0.00    +0.000 A 
ATOM     22  C   UNL     1      45.263   0.897   8.775  0.00  0.00    +0.000 A 
ATOM     23  S   UNL     1      46.178  -0.092   7.729  0.00  0.00    +0.000 S 
ATOM     24  C   UNL     1      46.994   1.255   7.088  0.00  0.00    +0.000 A 
ATOM     25  N   UNL     1      47.968   1.123   6.155  0.00  0.00    +0.000 NA
ATOM     26  N   UNL     1      48.571   2.146   5.746  0.00  0.00    +0.000 NA
ATOM     27  N   UNL     1      48.210   3.373   6.230  0.00  0.00    +0.000 N 
ATOM     28  C   UNL     1      47.207   3.623   7.137  0.00  0.00    +0.000 A 
ATOM     29  O   UNL     1      46.901   4.763   7.477  0.00  0.00    +0.000 OA
ATOM     30  C   UNL     1      46.551   2.437   7.633  0.00  0.00    +0.000 A 
ATOM     31  H   UNL     1      48.720   4.161   5.851  0.00  0.00    +0.000 HD
ENDBRANCH  18  21
ENDBRANCH   2  17
TORSDOF 6
ENDMDL
MODEL 8
REMARK VINA RESULT:    -7.006      2.404      2.990
REMARK INTER + INTRA:          -9.944
REMARK INTER:                 -10.095
REMARK INTRA:                   0.151
REMARK UNBOUND:                -0.480
REMARK  Name = 
REMARK  7 active torsions:
REMARK  status: ('A' for Active; 'I' for Inactive)
REMARK    1  A    between atoms: C_1  and  C_2
REMARK    2  A    between atoms: C_2  and  N_3
REMARK    3  A    between atoms: C_2  and  C_16
REMARK    4  A    between atoms: C_4  and  C_6
REMARK    5  A    between atoms: C_19  and  O_20
REMARK    6  A    between atoms: O_20  and  C_21
REMARK    7  A    between atoms: C_21  and  C_22
REMARK                            x       y       z     vdW  Elec       q    Type
REMARK                         _______ _______ _______ _____ _____    ______ ____
ROOT
ATOM      1  C   UNL     1      49.558   7.726  13.409  0.00  0.00    +0.000 C 
ATOM      2  C   UNL     1      48.091   7.776  13.852  0.00  0.00    +0.000 C 
ENDROOT
BRANCH   2   3
ATOM      3  C   UNL     1      47.184   6.817  13.103  0.00  0.00    +0.000 A 
ATOM      4  C   UNL     1      46.931   5.541  13.634  0.00  0.00    +0.000 A 
ATOM      5  C   UNL     1      46.109   4.637  12.948  0.00  0.00    +0.000 A 
ATOM      6  C   UNL     1      45.532   4.996  11.736  0.00  0.00    +0.000 A 
ATOM      7  C   UNL     1      45.831   6.237  11.173  0.00  0.00    +0.000 A 
ATOM      8  C   UNL     1      46.642   7.141  11.854  0.00  0.00    +0.000 A 
BRANCH   6   9
ATOM      9  O   UNL     1      44.695   4.073  11.169  0.00  0.00    +0.000 OA
BRANCH   9  10
ATOM     10  C   UNL     1      44.343   4.346   9.804  0.00  0.00    +0.000 C 
BRANCH  10  11
ATOM     11  C   UNL     1      45.224   3.553   8.873  0.00  0.00    +0.000 A 
ATOM     12  C   UNL     1      45.973   4.213   7.899  0.00  0.00    +0.000 A 
ATOM     13  C   UNL     1      46.814   3.470   7.084  0.00  0.00    +0.000 A 
ATOM     14  C   UNL     1      46.892   2.094   7.258  0.00  0.00    +0.000 A 
ATOM     15  C   UNL     1      46.123   1.517   8.256  0.00  0.00    +0.000 A 
ATOM     16  N   UNL     1      45.301   2.213   9.070  0.00  0.00    +0.000 NA
ENDBRANCH  10  11
ENDBRANCH   9  10
ENDBRANCH   6   9
ENDBRANCH   2   3
BRANCH   2  17
ATOM     17  N   UNL     1      47.981   7.508  15.273  0.00  0.00    +0.000 N 
ATOM     18  C   UNL     1      48.897   6.740  15.939  0.00  0.00    +0.000 C 
ATOM     19  O   UNL     1      49.888   6.270  15.386  0.00  0.00    +0.000 OA
ATOM     20  H   UNL     1      47.099   7.744  15.719  0.00  0.00    +0.000 HD
BRANCH  18  21
ATOM     21  C   UNL     1      48.672   6.562  17.374  0.00  0.00    +0.000 A 
ATOM     22  C   UNL     1      48.879   5.317  17.954  0.00  0.00    +0.000 A 
ATOM     23  S   UNL     1      48.580   5.292  19.633  0.00  0.00    +0.000 S 
ATOM     24  C   UNL     1      48.115   6.927  19.626  0.00  0.00    +0.000 A 
ATOM     25  N   UNL     1      47.687   7.554  20.750  0.00  0.00    +0.000 NA
ATOM     26  N   UNL     1      47.313   8.751  20.682  0.00  0.00    +0.000 NA
ATOM     27  N   UNL     1      47.374   9.404  19.482  0.00  0.00    +0.000 N 
ATOM     28  C   UNL     1      47.836   8.880  18.297  0.00  0.00    +0.000 A 
ATOM     29  O   UNL     1      47.917   9.551  17.272  0.00  0.00    +0.000 OA
ATOM     30  C   UNL     1      48.222   7.492  18.377  0.00  0.00    +0.000 A 
ATOM     31  H   UNL     1      47.075  10.371  19.493  0.00  0.00    +0.000 HD
ENDBRANCH  18  21
ENDBRANCH   2  17
TORSDOF 6
ENDMDL
MODEL 9
REMARK VINA RESULT:    -6.935      2.467      3.134
REMARK INTER + INTRA:          -9.848
REMARK INTER:                  -8.878
REMARK INTRA:                  -0.970
REMARK UNBOUND:                -0.480
REMARK  Name = 
REMARK  7 active torsions:
REMARK  status: ('A' for Active; 'I' for Inactive)
REMARK    1  A    between atoms: C_1  and  C_2
REMARK    2  A    between atoms: C_2  and  N_3
REMARK    3  A    between atoms: C_2  and  C_16
REMARK    4  A    between atoms: C_4  and  C_6
REMARK    5  A    between atoms: C_19  and  O_20
REMARK    6  A    between atoms: O_20  and  C_21
REMARK    7  A    between atoms: C_21  and  C_22
REMARK                            x       y       z     vdW  Elec       q    Type
REMARK                         _______ _______ _______ _____ _____    ______ ____
ROOT
ATOM      1  C   UNL     1      48.240   7.718  14.685  0.00  0.00    +0.000 C 
ATOM      2  C   UNL     1      47.522   6.381  14.898  0.00  0.00    +0.000 C 
ENDROOT
BRANCH   2   3
ATOM      3  C   UNL     1      46.817   5.851  13.662  0.00  0.00    +0.000 A 
ATOM      4  C   UNL     1      46.644   6.690  12.549  0.00  0.00    +0.000 A 
ATOM      5  C   UNL     1      45.981   6.223  11.405  0.00  0.00    +0.000 A 
ATOM      6  C   UNL     1      45.491   4.924  11.361  0.00  0.00    +0.000 A 
ATOM      7  C   UNL     1      45.603   4.109  12.488  0.00  0.00    +0.000 A 
ATOM      8  C   UNL     1      46.266   4.565  13.623  0.00  0.00    +0.000 A 
BRANCH   6   9
ATOM      9  O   UNL     1      44.914   4.536  10.182  0.00  0.00    +0.000 OA
BRANCH   9  10
ATOM     10  C   UNL     1      44.858   3.115   9.985  0.00  0.00    +0.000 C 
BRANCH  10  11
ATOM     11  C   UNL     1      45.600   2.738   8.729  0.00  0.00    +0.000 A 
ATOM     12  C   UNL     1      45.864   3.708   7.762  0.00  0.00    +0.000 A 
ATOM     13  C   UNL     1      46.589   3.351   6.635  0.00  0.00    +0.000 A 
ATOM     14  C   UNL     1      47.035   2.042   6.498  0.00  0.00    +0.000 A 
ATOM     15  C   UNL     1      46.740   1.142   7.509  0.00  0.00    +0.000 A 
ATOM     16  N   UNL     1      46.043   1.460   8.620  0.00  0.00    +0.000 NA
ENDBRANCH  10  11
ENDBRANCH   9  10
ENDBRANCH   6   9
ENDBRANCH   2   3
BRANCH   2  17
ATOM     17  N   UNL     1      48.453   5.375  15.371  0.00  0.00    +0.000 N 
ATOM     18  C   UNL     1      48.635   5.126  16.704  0.00  0.00    +0.000 C 
ATOM     19  O   UNL     1      47.992   5.705  17.576  0.00  0.00    +0.000 OA
ATOM     20  H   UNL     1      49.108   4.998  14.693  0.00  0.00    +0.000 HD
BRANCH  18  21
ATOM     21  C   UNL     1      49.595   4.074  17.042  0.00  0.00    +0.000 A 
ATOM     22  C   UNL     1      49.196   2.745  17.022  0.00  0.00    +0.000 A 
ATOM     23  S   UNL     1      50.443   1.654  17.431  0.00  0.00    +0.000 S 
ATOM     24  C   UNL     1      51.538   2.927  17.697  0.00  0.00    +0.000 A 
ATOM     25  N   UNL     1      52.806   2.703  18.120  0.00  0.00    +0.000 NA
ATOM     26  N   UNL     1      53.562   3.681  18.345  0.00  0.00    +0.000 NA
ATOM     27  N   UNL     1      53.097   4.949  18.129  0.00  0.00    +0.000 N 
ATOM     28  C   UNL     1      51.849   5.285  17.656  0.00  0.00    +0.000 A 
ATOM     29  O   UNL     1      51.527   6.448  17.429  0.00  0.00    +0.000 OA
ATOM     30  C   UNL     1      50.975   4.157  17.443  0.00  0.00    +0.000 A 
ATOM     31  H   UNL     1      53.756   5.695  18.311  0.00  0.00    +0.000 HD
ENDBRANCH  18  21
ENDBRANCH   2  17
TORSDOF 6
ENDMDL
