MODEL 1
REMARK VINA RESULT:    -7.275      0.000      0.000
REMARK INTER + INTRA:         -12.753
REMARK INTER:                 -11.315
REMARK INTRA:                  -1.437
REMARK UNBOUND:                -1.437
REMARK  Name = 
REMARK  10 active torsions:
REMARK  status: ('A' for Active; 'I' for Inactive)
REMARK    1  A    between atoms: N_1  and  C_2
REMARK    2  A    between atoms: C_2  and  C_3
REMARK    3  A    between atoms: C_3  and  N_4
REMARK    4  A    between atoms: C_3  and  C_21
REMARK    5  A    between atoms: N_4  and  C_5
REMARK    6  A    between atoms: C_5  and  C_6
REMARK    7  A    between atoms: C_9  and  C_10
REMARK    8  A    between atoms: C_10  and  C_11
REMARK    9  A    between atoms: C_11  and  N_12
REMARK   10  A    between atoms: N_12  and  C_13
REMARK                            x       y       z     vdW  Elec       q    Type
REMARK                         _______ _______ _______ _____ _____    ______ ____
ROOT
ATOM      1  N   UNL     1      49.411   6.751  14.278  0.00  0.00    +0.000 NA
ATOM      2  H   UNL     1      50.340   7.132  14.115  0.00  0.00    +0.000 HD
ENDROOT
BRANCH   1   3
ATOM      3  C   UNL     1      48.990   7.104  15.649  0.00  0.00    +0.000 C 
BRANCH   3   4
ATOM      4  C   UNL     1      49.793   6.253  16.631  0.00  0.00    +0.000 A 
ATOM      5  C   UNL     1      50.934   6.720  17.271  0.00  0.00    +0.000 A 
ATOM      6  S   UNL     1      51.988   5.439  17.696  0.00  0.00    +0.000 S 
ATOM      7  C   UNL     1      50.797   4.280  17.331  0.00  0.00    +0.000 A 
ATOM      8  N   UNL     1      51.059   2.947  17.386  0.00  0.00    +0.000 NA
ATOM      9  C   UNL     1      50.004   2.205  17.299  0.00  0.00    +0.000 A 
ATOM     10  N   UNL     1      48.716   2.679  17.176  0.00  0.00    +0.000 N 
ATOM     11  C   UNL     1      48.426   4.003  17.011  0.00  0.00    +0.000 A 
ATOM     12  O   UNL     1      47.267   4.428  16.920  0.00  0.00    +0.000 OA
ATOM     13  C   UNL     1      49.588   4.878  17.022  0.00  0.00    +0.000 A 
ATOM     14  H   UNL     1      47.939   2.042  17.249  0.00  0.00    +0.000 HD
ENDBRANCH   3   4
BRANCH   3  15
ATOM     15  C   UNL     1      48.954   8.621  16.124  0.00  0.00    +0.000 C 
BRANCH  15  16
ATOM     16  N   UNL     1      47.636   9.276  16.047  0.00  0.00    +0.000 NA
ATOM     17  H   UNL     1      47.638  10.140  16.595  0.00  0.00    +0.000 HD
ATOM     18  H   UNL     1      46.927   8.679  16.469  0.00  0.00    +0.000 HD
ENDBRANCH  15  16
ENDBRANCH   3  15
ENDBRANCH   1   3
BRANCH   1  19
ATOM     19  C   UNL     1      48.467   7.169  13.238  0.00  0.00    +0.000 C 
BRANCH  19  20
ATOM     20  C   UNL     1      47.147   6.437  13.232  0.00  0.00    +0.000 A 
ATOM     21  C   UNL     1      45.957   6.953  12.804  0.00  0.00    +0.000 A 
ATOM     22  N   UNL     1      44.819   6.223  12.702  0.00  0.00    +0.000 NA
ATOM     23  C   UNL     1      44.877   4.923  13.072  0.00  0.00    +0.000 A 
ATOM     24  N   UNL     1      45.990   4.316  13.496  0.00  0.00    +0.000 NA
ATOM     25  C   UNL     1      47.096   5.093  13.562  0.00  0.00    +0.000 A 
BRANCH  23  26
ATOM     26  C   UNL     1      43.602   4.107  13.011  0.00  0.00    +0.000 C 
BRANCH  26  27
ATOM     27  C   UNL     1      43.794   2.764  12.284  0.00  0.00    +0.000 C 
BRANCH  27  28
ATOM     28  N   UNL     1      44.761   2.836  11.176  0.00  0.00    +0.000 NA
ATOM     29  H   UNL     1      45.407   2.042  11.287  0.00  0.00    +0.000 HD
BRANCH  28  30
ATOM     30  C   UNL     1      44.137   2.807   9.844  0.00  0.00    +0.000 C 
ATOM     31  C   UNL     1      44.661   1.739   8.862  0.00  0.00    +0.000 C 
ATOM     32  C   UNL     1      46.084   2.028   8.395  0.00  0.00    +0.000 C 
ATOM     33  N   UNL     1      46.175   3.337   7.741  0.00  0.00    +0.000 NA
ATOM     34  C   UNL     1      45.732   4.404   8.648  0.00  0.00    +0.000 C 
ATOM     35  C   UNL     1      44.308   4.177   9.164  0.00  0.00    +0.000 C 
ATOM     36  H   UNL     1      45.579   3.337   6.914  0.00  0.00    +0.000 HD
ENDBRANCH  28  30
ENDBRANCH  27  28
ENDBRANCH  26  27
ENDBRANCH  23  26
ENDBRANCH  19  20
ENDBRANCH   1  19
TORSDOF 10
ENDMDL
MODEL 2
REMARK VINA RESULT:    -6.950      2.828      7.678
REMARK INTER + INTRA:         -12.247
REMARK INTER:                 -10.282
REMARK INTRA:                  -1.964
REMARK UNBOUND:                -1.437
REMARK  Name = 
REMARK  10 active torsions:
REMARK  status: ('A' for Active; 'I' for Inactive)
REMARK    1  A    between atoms: N_1  and  C_2
REMARK    2  A    between atoms: C_2  and  C_3
REMARK    3  A    between atoms: C_3  and  N_4
REMARK    4  A    between atoms: C_3  and  C_21
REMARK    5  A    between atoms: N_4  and  C_5
REMARK    6  A    between atoms: C_5  and  C_6
REMARK    7  A    between atoms: C_9  and  C_10
REMARK    8  A    between atoms: C_10  and  C_11
REMARK    9  A    between atoms: C_11  and  N_12
REMARK   10  A    between atoms: N_12  and  C_13
REMARK                            x       y       z     vdW  Elec       q    Type
REMARK                         _______ _______ _______ _____ _____    ______ ____
ROOT
ATOM      1  N   UNL     1      47.161   6.950  12.403  0.00  0.00    +0.000 NA
ATOM      2  H   UNL     1      46.997   6.142  12.998  0.00  0.00    +0.000 HD
ENDROOT
BRANCH   1   3
ATOM      3  C   UNL     1      46.007   7.112  11.496  0.00  0.00    +0.000 C 
BRANCH   3   4
ATOM      4  C   UNL     1      45.704   5.756  10.861  0.00  0.00    +0.000 A 
ATOM      5  C   UNL     1      45.937   5.486   9.519  0.00  0.00    +0.000 A 
ATOM      6  S   UNL     1      44.900   4.256   8.933  0.00  0.00    +0.000 S 
ATOM      7  C   UNL     1      44.389   3.874  10.510  0.00  0.00    +0.000 A 
ATOM      8  N   UNL     1      43.418   2.951  10.742  0.00  0.00    +0.000 NA
ATOM      9  C   UNL     1      43.303   2.617  11.985  0.00  0.00    +0.000 A 
ATOM     10  N   UNL     1      44.081   3.114  13.009  0.00  0.00    +0.000 N 
ATOM     11  C   UNL     1      44.990   4.116  12.830  0.00  0.00    +0.000 A 
ATOM     12  O   UNL     1      45.700   4.547  13.748  0.00  0.00    +0.000 OA
ATOM     13  C   UNL     1      45.104   4.585  11.458  0.00  0.00    +0.000 A 
ATOM     14  H   UNL     1      44.018   2.705  13.928  0.00  0.00    +0.000 HD
ENDBRANCH   3   4
BRANCH   3  15
ATOM     15  C   UNL     1      44.667   7.805  12.000  0.00  0.00    +0.000 C 
BRANCH  15  16
ATOM     16  N   UNL     1      43.546   7.783  11.043  0.00  0.00    +0.000 NA
ATOM     17  H   UNL     1      43.822   8.231  10.166  0.00  0.00    +0.000 HD
ATOM     18  H   UNL     1      42.770   8.333  11.407  0.00  0.00    +0.000 HD
ENDBRANCH  15  16
ENDBRANCH   3  15
ENDBRANCH   1   3
BRANCH   1  19
ATOM     19  C   UNL     1      47.470   8.146  13.193  0.00  0.00    +0.000 C 
BRANCH  19  20
ATOM     20  C   UNL     1      48.467   7.943  14.308  0.00  0.00    +0.000 A 
ATOM     21  C   UNL     1      48.229   8.170  15.634  0.00  0.00    +0.000 A 
ATOM     22  N   UNL     1      49.111   7.861  16.616  0.00  0.00    +0.000 NA
ATOM     23  C   UNL     1      50.296   7.324  16.242  0.00  0.00    +0.000 A 
ATOM     24  N   UNL     1      50.627   7.053  14.977  0.00  0.00    +0.000 NA
ATOM     25  C   UNL     1      49.699   7.371  14.044  0.00  0.00    +0.000 A 
BRANCH  23  26
ATOM     26  C   UNL     1      51.312   7.019  17.323  0.00  0.00    +0.000 C 
BRANCH  26  27
ATOM     27  C   UNL     1      51.330   5.531  17.717  0.00  0.00    +0.000 C 
BRANCH  27  28
ATOM     28  N   UNL     1      50.309   4.734  17.016  0.00  0.00    +0.000 NA
ATOM     29  H   UNL     1      50.784   4.252  16.239  0.00  0.00    +0.000 HD
BRANCH  28  30
ATOM     30  C   UNL     1      49.624   3.759  17.881  0.00  0.00    +0.000 C 
ATOM     31  C   UNL     1      48.484   2.947  17.234  0.00  0.00    +0.000 C 
ATOM     32  C   UNL     1      47.264   3.808  16.920  0.00  0.00    +0.000 C 
ATOM     33  N   UNL     1      46.740   4.452  18.128  0.00  0.00    +0.000 NA
ATOM     34  C   UNL     1      47.773   5.280  18.765  0.00  0.00    +0.000 C 
ATOM     35  C   UNL     1      49.034   4.482  19.105  0.00  0.00    +0.000 C 
ATOM     36  H   UNL     1      46.442   3.732  18.786  0.00  0.00    +0.000 HD
ENDBRANCH  28  30
ENDBRANCH  27  28
ENDBRANCH  26  27
ENDBRANCH  23  26
ENDBRANCH  19  20
ENDBRANCH   1  19
TORSDOF 10
ENDMDL
MODEL 3
REMARK VINA RESULT:    -6.913      1.817      2.394
REMARK INTER + INTRA:         -12.189
REMARK INTER:                 -10.312
REMARK INTRA:                  -1.876
REMARK UNBOUND:                -1.437
REMARK  Name = 
REMARK  10 active torsions:
REMARK  status: ('A' for Active; 'I' for Inactive)
REMARK    1  A    between atoms: N_1  and  C_2
REMARK    2  A    between atoms: C_2  and  C_3
REMARK    3  A    between atoms: C_3  and  N_4
REMARK    4  A    between atoms: C_3  and  C_21
REMARK    5  A    between atoms: N_4  and  C_5
REMARK    6  A    between atoms: C_5  and  C_6
REMARK    7  A    between atoms: C_9  and  C_10
REMARK    8  A    between atoms: C_10  and  C_11
REMARK    9  A    between atoms: C_11  and  N_12
REMARK   10  A    between atoms: N_12  and  C_13
REMARK                            x       y       z     vdW  Elec       q    Type
REMARK                         _______ _______ _______ _____ _____    ______ ____
ROOT
ATOM      1  N   UNL     1      49.451   6.667  14.178  0.00  0.00    +0.000 NA
ATOM      2  H   UNL     1      50.252   6.155  13.818  0.00  0.00    +0.000 HD
ENDROOT
BRANCH   1   3
ATOM      3  C   UNL     1      49.939   7.783  15.014  0.00  0.00    +0.000 C 
BRANCH   3   4
ATOM      4  C   UNL     1      49.024   7.905  16.231  0.00  0.00    +0.000 A 
ATOM      5  C   UNL     1      48.277   9.045  16.498  0.00  0.00    +0.000 A 
ATOM      6  S   UNL     1      47.952   9.208  18.172  0.00  0.00    +0.000 S 
ATOM      7  C   UNL     1      48.511   7.631  18.479  0.00  0.00    +0.000 A 
ATOM      8  N   UNL     1      48.599   7.139  19.744  0.00  0.00    +0.000 NA
ATOM      9  C   UNL     1      48.826   5.868  19.794  0.00  0.00    +0.000 A 
ATOM     10  N   UNL     1      48.957   5.048  18.694  0.00  0.00    +0.000 N 
ATOM     11  C   UNL     1      48.980   5.522  17.414  0.00  0.00    +0.000 A 
ATOM     12  O   UNL     1      49.079   4.782  16.427  0.00  0.00    +0.000 OA
ATOM     13  C   UNL     1      48.808   6.963  17.305  0.00  0.00    +0.000 A 
ATOM     14  H   UNL     1      48.999   4.049  18.817  0.00  0.00    +0.000 HD
ENDBRANCH   3   4
BRANCH   3  15
ATOM     15  C   UNL     1      51.466   7.863  15.452  0.00  0.00    +0.000 C 
BRANCH  15  16
ATOM     16  N   UNL     1      52.073   6.585  15.864  0.00  0.00    +0.000 NA
ATOM     17  H   UNL     1      51.345   5.916  16.126  0.00  0.00    +0.000 HD
ATOM     18  H   UNL     1      52.640   6.724  16.699  0.00  0.00    +0.000 HD
ENDBRANCH  15  16
ENDBRANCH   3  15
ENDBRANCH   1   3
BRANCH   1  19
ATOM     19  C   UNL     1      48.547   7.080  13.101  0.00  0.00    +0.000 C 
BRANCH  19  20
ATOM     20  C   UNL     1      47.199   6.400  13.092  0.00  0.00    +0.000 A 
ATOM     21  C   UNL     1      46.130   6.772  12.329  0.00  0.00    +0.000 A 
ATOM     22  N   UNL     1      44.977   6.062  12.260  0.00  0.00    +0.000 NA
ATOM     23  C   UNL     1      44.889   4.942  13.014  0.00  0.00    +0.000 A 
ATOM     24  N   UNL     1      45.877   4.483  13.788  0.00  0.00    +0.000 NA
ATOM     25  C   UNL     1      47.007   5.227  13.803  0.00  0.00    +0.000 A 
BRANCH  23  26
ATOM     26  C   UNL     1      43.589   4.164  12.987  0.00  0.00    +0.000 C 
BRANCH  26  27
ATOM     27  C   UNL     1      43.679   2.890  12.128  0.00  0.00    +0.000 C 
BRANCH  27  28
ATOM     28  N   UNL     1      44.690   2.980  11.062  0.00  0.00    +0.000 NA
ATOM     29  H   UNL     1      45.374   2.227  11.230  0.00  0.00    +0.000 HD
BRANCH  28  30
ATOM     30  C   UNL     1      44.130   2.870   9.705  0.00  0.00    +0.000 C 
ATOM     31  C   UNL     1      44.650   1.705   8.839  0.00  0.00    +0.000 C 
ATOM     32  C   UNL     1      46.106   1.894   8.424  0.00  0.00    +0.000 C 
ATOM     33  N   UNL     1      46.289   3.141   7.675  0.00  0.00    +0.000 NA
ATOM     34  C   UNL     1      45.853   4.296   8.472  0.00  0.00    +0.000 C 
ATOM     35  C   UNL     1      44.397   4.173   8.930  0.00  0.00    +0.000 C 
ATOM     36  H   UNL     1      45.734   3.101   6.821  0.00  0.00    +0.000 HD
ENDBRANCH  28  30
ENDBRANCH  27  28
ENDBRANCH  26  27
ENDBRANCH  23  26
ENDBRANCH  19  20
ENDBRANCH   1  19
TORSDOF 10
ENDMDL
MODEL 4
REMARK VINA RESULT:    -6.767      3.007      7.712
REMARK INTER + INTRA:         -11.962
REMARK INTER:                 -10.636
REMARK INTRA:                  -1.326
REMARK UNBOUND:                -1.437
REMARK  Name = 
REMARK  10 active torsions:
REMARK  status: ('A' for Active; 'I' for Inactive)
REMARK    1  A    between atoms: N_1  and  C_2
REMARK    2  A    between atoms: C_2  and  C_3
REMARK    3  A    between atoms: C_3  and  N_4
REMARK    4  A    between atoms: C_3  and  C_21
REMARK    5  A    between atoms: N_4  and  C_5
REMARK    6  A    between atoms: C_5  and  C_6
REMARK    7  A    between atoms: C_9  and  C_10
REMARK    8  A    between atoms: C_10  and  C_11
REMARK    9  A    between atoms: C_11  and  N_12
REMARK   10  A    between atoms: N_12  and  C_13
REMARK                            x       y       z     vdW  Elec       q    Type
REMARK                         _______ _______ _______ _____ _____    ______ ____
ROOT
ATOM      1  N   UNL     1      47.074   6.468  11.729  0.00  0.00    +0.000 NA
ATOM      2  H   UNL     1      47.030   5.800  12.494  0.00  0.00    +0.000 HD
ENDROOT
BRANCH   1   3
ATOM      3  C   UNL     1      45.812   7.235  11.697  0.00  0.00    +0.000 C 
BRANCH   3   4
ATOM      4  C   UNL     1      44.671   6.267  11.387  0.00  0.00    +0.000 A 
ATOM      5  C   UNL     1      43.427   6.351  11.998  0.00  0.00    +0.000 A 
ATOM      6  S   UNL     1      42.642   4.830  12.042  0.00  0.00    +0.000 S 
ATOM      7  C   UNL     1      43.790   4.158  10.982  0.00  0.00    +0.000 A 
ATOM      8  N   UNL     1      43.772   2.838  10.655  0.00  0.00    +0.000 NA
ATOM      9  C   UNL     1      44.562   2.532   9.679  0.00  0.00    +0.000 A 
ATOM     10  N   UNL     1      45.353   3.430   8.996  0.00  0.00    +0.000 N 
ATOM     11  C   UNL     1      45.476   4.739   9.363  0.00  0.00    +0.000 A 
ATOM     12  O   UNL     1      46.172   5.548   8.736  0.00  0.00    +0.000 OA
ATOM     13  C   UNL     1      44.665   5.119  10.510  0.00  0.00    +0.000 A 
ATOM     14  H   UNL     1      45.838   3.137   8.163  0.00  0.00    +0.000 HD
ENDBRANCH   3   4
BRANCH   3  15
ATOM     15  C   UNL     1      45.415   8.198  12.899  0.00  0.00    +0.000 C 
BRANCH  15  16
ATOM     16  N   UNL     1      44.918   9.529  12.505  0.00  0.00    +0.000 NA
ATOM     17  H   UNL     1      44.017   9.715  12.950  0.00  0.00    +0.000 HD
ATOM     18  H   UNL     1      44.745   9.550  11.501  0.00  0.00    +0.000 HD
ENDBRANCH  15  16
ENDBRANCH   3  15
ENDBRANCH   1   3
BRANCH   1  19
ATOM     19  C   UNL     1      48.275   7.303  11.812  0.00  0.00    +0.000 C 
BRANCH  19  20
ATOM     20  C   UNL     1      49.036   7.213  13.114  0.00  0.00    +0.000 A 
ATOM     21  C   UNL     1      50.252   7.783  13.361  0.00  0.00    +0.000 A 
ATOM     22  N   UNL     1      50.844   7.780  14.581  0.00  0.00    +0.000 NA
ATOM     23  C   UNL     1      50.194   7.154  15.588  0.00  0.00    +0.000 A 
ATOM     24  N   UNL     1      48.997   6.573  15.458  0.00  0.00    +0.000 NA
ATOM     25  C   UNL     1      48.451   6.621  14.221  0.00  0.00    +0.000 A 
BRANCH  23  26
ATOM     26  C   UNL     1      50.865   7.099  16.945  0.00  0.00    +0.000 C 
BRANCH  26  27
ATOM     27  C   UNL     1      50.392   5.905  17.793  0.00  0.00    +0.000 C 
BRANCH  27  28
ATOM     28  N   UNL     1      50.396   4.632  17.054  0.00  0.00    +0.000 NA
ATOM     29  H   UNL     1      51.382   4.385  16.883  0.00  0.00    +0.000 HD
BRANCH  28  30
ATOM     30  C   UNL     1      49.709   3.537  17.759  0.00  0.00    +0.000 C 
ATOM     31  C   UNL     1      49.044   2.461  16.877  0.00  0.00    +0.000 C 
ATOM     32  C   UNL     1      47.826   2.994  16.130  0.00  0.00    +0.000 C 
ATOM     33  N   UNL     1      46.817   3.516  17.057  0.00  0.00    +0.000 NA
ATOM     34  C   UNL     1      47.383   4.581  17.895  0.00  0.00    +0.000 C 
ATOM     35  C   UNL     1      48.617   4.119  18.674  0.00  0.00    +0.000 C 
ATOM     36  H   UNL     1      46.496   2.758  17.659  0.00  0.00    +0.000 HD
ENDBRANCH  28  30
ENDBRANCH  27  28
ENDBRANCH  26  27
ENDBRANCH  23  26
ENDBRANCH  19  20
ENDBRANCH   1  19
TORSDOF 10
ENDMDL
MODEL 5
REMARK VINA RESULT:    -6.724      2.024      3.398
REMARK INTER + INTRA:         -11.895
REMARK INTER:                 -10.443
REMARK INTRA:                  -1.452
REMARK UNBOUND:                -1.437
REMARK  Name = 
REMARK  10 active torsions:
REMARK  status: ('A' for Active; 'I' for Inactive)
REMARK    1  A    between atoms: N_1  and  C_2
REMARK    2  A    between atoms: C_2  and  C_3
REMARK    3  A    between atoms: C_3  and  N_4
REMARK    4  A    between atoms: C_3  and  C_21
REMARK    5  A    between atoms: N_4  and  C_5
REMARK    6  A    between atoms: C_5  and  C_6
REMARK    7  A    between atoms: C_9  and  C_10
REMARK    8  A    between atoms: C_10  and  C_11
REMARK    9  A    between atoms: C_11  and  N_12
REMARK   10  A    between atoms: N_12  and  C_13
REMARK                            x       y       z     vdW  Elec       q    Type
REMARK                         _______ _______ _______ _____ _____    ______ ____
ROOT
ATOM      1  N   UNL     1      48.997   6.502  16.679  0.00  0.00    +0.000 NA
ATOM      2  H   UNL     1      48.237   7.116  16.964  0.00  0.00    +0.000 HD
ENDROOT
BRANCH   1   3
ATOM      3  C   UNL     1      48.618   5.107  16.984  0.00  0.00    +0.000 C 
BRANCH   3   4
ATOM      4  C   UNL     1      49.655   4.529  17.945  0.00  0.00    +0.000 A 
ATOM      5  C   UNL     1      50.052   5.183  19.104  0.00  0.00    +0.000 A 
ATOM      6  S   UNL     1      51.636   4.730  19.572  0.00  0.00    +0.000 S 
ATOM      7  C   UNL     1      51.652   3.456  18.445  0.00  0.00    +0.000 A 
ATOM      8  N   UNL     1      52.760   2.694  18.246  0.00  0.00    +0.000 NA
ATOM      9  C   UNL     1      52.547   1.641  17.528  0.00  0.00    +0.000 A 
ATOM     10  N   UNL     1      51.323   1.278  17.008  0.00  0.00    +0.000 N 
ATOM     11  C   UNL     1      50.215   2.070  17.098  0.00  0.00    +0.000 A 
ATOM     12  O   UNL     1      49.113   1.733  16.646  0.00  0.00    +0.000 OA
ATOM     13  C   UNL     1      50.422   3.310  17.830  0.00  0.00    +0.000 A 
ATOM     14  H   UNL     1      51.211   0.375  16.574  0.00  0.00    +0.000 HD
ENDBRANCH   3   4
BRANCH   3  15
ATOM     15  C   UNL     1      47.146   4.753  17.471  0.00  0.00    +0.000 C 
BRANCH  15  16
ATOM     16  N   UNL     1      46.791   3.323  17.421  0.00  0.00    +0.000 NA
ATOM     17  H   UNL     1      46.811   2.988  16.455  0.00  0.00    +0.000 HD
ATOM     18  H   UNL     1      45.835   3.192  17.745  0.00  0.00    +0.000 HD
ENDBRANCH  15  16
ENDBRANCH   3  15
ENDBRANCH   1   3
BRANCH   1  19
ATOM     19  C   UNL     1      49.373   6.725  15.281  0.00  0.00    +0.000 C 
BRANCH  19  20
ATOM     20  C   UNL     1      48.256   7.190  14.377  0.00  0.00    +0.000 A 
ATOM     21  C   UNL     1      47.771   8.464  14.310  0.00  0.00    +0.000 A 
ATOM     22  N   UNL     1      46.850   8.866  13.399  0.00  0.00    +0.000 NA
ATOM     23  C   UNL     1      46.379   7.937  12.536  0.00  0.00    +0.000 A 
ATOM     24  N   UNL     1      46.792   6.666  12.509  0.00  0.00    +0.000 NA
ATOM     25  C   UNL     1      47.722   6.329  13.432  0.00  0.00    +0.000 A 
BRANCH  23  26
ATOM     26  C   UNL     1      45.314   8.359  11.545  0.00  0.00    +0.000 C 
BRANCH  26  27
ATOM     27  C   UNL     1      44.171   7.334  11.433  0.00  0.00    +0.000 C 
BRANCH  27  28
ATOM     28  N   UNL     1      44.540   6.134  10.665  0.00  0.00    +0.000 NA
ATOM     29  H   UNL     1      45.403   5.760  11.087  0.00  0.00    +0.000 HD
BRANCH  28  30
ATOM     30  C   UNL     1      43.492   5.101  10.641  0.00  0.00    +0.000 C 
ATOM     31  C   UNL     1      42.565   5.034  11.871  0.00  0.00    +0.000 C 
ATOM     32  C   UNL     1      43.289   4.535  13.118  0.00  0.00    +0.000 C 
ATOM     33  N   UNL     1      43.865   3.204  12.903  0.00  0.00    +0.000 NA
ATOM     34  C   UNL     1      44.797   3.217  11.768  0.00  0.00    +0.000 C 
ATOM     35  C   UNL     1      44.139   3.714  10.478  0.00  0.00    +0.000 C 
ATOM     36  H   UNL     1      43.113   2.544  12.705  0.00  0.00    +0.000 HD
ENDBRANCH  28  30
ENDBRANCH  27  28
ENDBRANCH  26  27
ENDBRANCH  23  26
ENDBRANCH  19  20
ENDBRANCH   1  19
TORSDOF 10
ENDMDL
MODEL 6
REMARK VINA RESULT:    -6.172      1.776      2.911
REMARK INTER + INTRA:         -11.037
REMARK INTER:                  -9.520
REMARK INTRA:                  -1.517
REMARK UNBOUND:                -1.437
REMARK  Name = 
REMARK  10 active torsions:
REMARK  status: ('A' for Active; 'I' for Inactive)
REMARK    1  A    between atoms: N_1  and  C_2
REMARK    2  A    between atoms: C_2  and  C_3
REMARK    3  A    between atoms: C_3  and  N_4
REMARK    4  A    between atoms: C_3  and  C_21
REMARK    5  A    between atoms: N_4  and  C_5
REMARK    6  A    between atoms: C_5  and  C_6
REMARK    7  A    between atoms: C_9  and  C_10
REMARK    8  A    between atoms: C_10  and  C_11
REMARK    9  A    between atoms: C_11  and  N_12
REMARK   10  A    between atoms: N_12  and  C_13
REMARK                            x       y       z     vdW  Elec       q    Type
REMARK                         _______ _______ _______ _____ _____    ______ ____
ROOT
ATOM      1  N   UNL     1      49.974   7.796  16.934  0.00  0.00    +0.000 NA
ATOM      2  H   UNL     1      49.618   8.738  16.793  0.00  0.00    +0.000 HD
ENDROOT
BRANCH   1   3
ATOM      3  C   UNL     1      49.147   7.126  17.958  0.00  0.00    +0.000 C 
BRANCH   3   4
ATOM      4  C   UNL     1      49.664   5.698  18.131  0.00  0.00    +0.000 A 
ATOM      5  C   UNL     1      50.909   5.411  18.675  0.00  0.00    +0.000 A 
ATOM      6  S   UNL     1      51.513   3.911  18.110  0.00  0.00    +0.000 S 
ATOM      7  C   UNL     1      50.008   3.514  17.424  0.00  0.00    +0.000 A 
ATOM      8  N   UNL     1      49.835   2.382  16.690  0.00  0.00    +0.000 NA
ATOM      9  C   UNL     1      48.598   2.114  16.429  0.00  0.00    +0.000 A 
ATOM     10  N   UNL     1      47.524   2.869  16.849  0.00  0.00    +0.000 N 
ATOM     11  C   UNL     1      47.664   4.063  17.494  0.00  0.00    +0.000 A 
ATOM     12  O   UNL     1      46.698   4.730  17.886  0.00  0.00    +0.000 OA
ATOM     13  C   UNL     1      49.044   4.453  17.743  0.00  0.00    +0.000 A 
ATOM     14  H   UNL     1      46.587   2.521  16.720  0.00  0.00    +0.000 HD
ENDBRANCH   3   4
BRANCH   3  15
ATOM     15  C   UNL     1      48.897   7.805  19.374  0.00  0.00    +0.000 C 
BRANCH  15  16
ATOM     16  N   UNL     1      47.817   7.208  20.179  0.00  0.00    +0.000 NA
ATOM     17  H   UNL     1      47.843   6.188  20.105  0.00  0.00    +0.000 HD
ATOM     18  H   UNL     1      46.911   7.492  19.809  0.00  0.00    +0.000 HD
ENDBRANCH  15  16
ENDBRANCH   3  15
ENDBRANCH   1   3
BRANCH   1  19
ATOM     19  C   UNL     1      50.069   7.062  15.670  0.00  0.00    +0.000 C 
BRANCH  19  20
ATOM     20  C   UNL     1      48.873   7.193  14.756  0.00  0.00    +0.000 A 
ATOM     21  C   UNL     1      48.157   6.153  14.235  0.00  0.00    +0.000 A 
ATOM     22  N   UNL     1      47.019   6.315  13.517  0.00  0.00    +0.000 NA
ATOM     23  C   UNL     1      46.598   7.581  13.292  0.00  0.00    +0.000 A 
ATOM     24  N   UNL     1      47.217   8.668  13.763  0.00  0.00    +0.000 NA
ATOM     25  C   UNL     1      48.340   8.441  14.484  0.00  0.00    +0.000 A 
BRANCH  23  26
ATOM     26  C   UNL     1      45.355   7.781  12.450  0.00  0.00    +0.000 C 
BRANCH  26  27
ATOM     27  C   UNL     1      45.410   7.009  11.120  0.00  0.00    +0.000 C 
BRANCH  27  28
ATOM     28  N   UNL     1      45.172   5.564  11.278  0.00  0.00    +0.000 NA
ATOM     29  H   UNL     1      45.215   5.360  12.287  0.00  0.00    +0.000 HD
BRANCH  28  30
ATOM     30  C   UNL     1      43.888   5.112  10.718  0.00  0.00    +0.000 C 
ATOM     31  C   UNL     1      42.930   4.393  11.689  0.00  0.00    +0.000 C 
ATOM     32  C   UNL     1      43.446   3.019  12.103  0.00  0.00    +0.000 C 
ATOM     33  N   UNL     1      43.655   2.153  10.939  0.00  0.00    +0.000 NA
ATOM     34  C   UNL     1      44.600   2.768   9.997  0.00  0.00    +0.000 C 
ATOM     35  C   UNL     1      44.148   4.157   9.539  0.00  0.00    +0.000 C 
ATOM     36  H   UNL     1      42.763   2.012  10.466  0.00  0.00    +0.000 HD
ENDBRANCH  28  30
ENDBRANCH  27  28
ENDBRANCH  26  27
ENDBRANCH  23  26
ENDBRANCH  19  20
ENDBRANCH   1  19
TORSDOF 10
ENDMDL
MODEL 7
REMARK VINA RESULT:    -6.097      3.310      7.260
REMARK INTER + INTRA:         -10.921
REMARK INTER:                  -9.105
REMARK INTRA:                  -1.816
REMARK UNBOUND:                -1.437
REMARK  Name = 
REMARK  10 active torsions:
REMARK  status: ('A' for Active; 'I' for Inactive)
REMARK    1  A    between atoms: N_1  and  C_2
REMARK    2  A    between atoms: C_2  and  C_3
REMARK    3  A    between atoms: C_3  and  N_4
REMARK    4  A    between atoms: C_3  and  C_21
REMARK    5  A    between atoms: N_4  and  C_5
REMARK    6  A    between atoms: C_5  and  C_6
REMARK    7  A    between atoms: C_9  and  C_10
REMARK    8  A    between atoms: C_10  and  C_11
REMARK    9  A    between atoms: C_11  and  N_12
REMARK   10  A    between atoms: N_12  and  C_13
REMARK                            x       y       z     vdW  Elec       q    Type
REMARK                         _______ _______ _______ _____ _____    ______ ____
ROOT
ATOM      1  N   UNL     1      46.545   8.838  13.722  0.00  0.00    +0.000 NA
ATOM      2  H   UNL     1      45.892   9.191  14.416  0.00  0.00    +0.000 HD
ENDROOT
BRANCH   1   3
ATOM      3  C   UNL     1      45.902   8.896  12.394  0.00  0.00    +0.000 C 
BRANCH   3   4
ATOM      4  C   UNL     1      45.331   7.515  12.077  0.00  0.00    +0.000 A 
ATOM      5  C   UNL     1      44.149   7.335  11.371  0.00  0.00    +0.000 A 
ATOM      6  S   UNL     1      43.396   5.849  11.770  0.00  0.00    +0.000 S 
ATOM      7  C   UNL     1      44.779   5.324  12.610  0.00  0.00    +0.000 A 
ATOM      8  N   UNL     1      44.796   4.147  13.292  0.00  0.00    +0.000 NA
ATOM      9  C   UNL     1      45.974   3.789  13.685  0.00  0.00    +0.000 A 
ATOM     10  N   UNL     1      47.132   4.495  13.442  0.00  0.00    +0.000 N 
ATOM     11  C   UNL     1      47.141   5.727  12.856  0.00  0.00    +0.000 A 
ATOM     12  O   UNL     1      48.185   6.351  12.623  0.00  0.00    +0.000 OA
ATOM     13  C   UNL     1      45.827   6.215  12.464  0.00  0.00    +0.000 A 
ATOM     14  H   UNL     1      48.025   4.083  13.664  0.00  0.00    +0.000 HD
ENDBRANCH   3   4
BRANCH   3  15
ATOM     15  C   UNL     1      44.841  10.031  12.054  0.00  0.00    +0.000 C 
BRANCH  15  16
ATOM     16  N   UNL     1      45.346  11.413  12.130  0.00  0.00    +0.000 NA
ATOM     17  H   UNL     1      46.250  11.485  11.656  0.00  0.00    +0.000 HD
ATOM     18  H   UNL     1      45.519  11.665  13.102  0.00  0.00    +0.000 HD
ENDBRANCH  15  16
ENDBRANCH   3  15
ENDBRANCH   1   3
BRANCH   1  19
ATOM     19  C   UNL     1      47.833   9.533  13.791  0.00  0.00    +0.000 C 
BRANCH  19  20
ATOM     20  C   UNL     1      48.831   8.949  14.763  0.00  0.00    +0.000 A 
ATOM     21  C   UNL     1      48.605   8.723  16.091  0.00  0.00    +0.000 A 
ATOM     22  N   UNL     1      49.485   8.086  16.902  0.00  0.00    +0.000 NA
ATOM     23  C   UNL     1      50.655   7.682  16.356  0.00  0.00    +0.000 A 
ATOM     24  N   UNL     1      50.974   7.843  15.069  0.00  0.00    +0.000 NA
ATOM     25  C   UNL     1      50.049   8.473  14.308  0.00  0.00    +0.000 A 
BRANCH  23  26
ATOM     26  C   UNL     1      51.669   7.013  17.261  0.00  0.00    +0.000 C 
BRANCH  26  27
ATOM     27  C   UNL     1      51.584   5.477  17.212  0.00  0.00    +0.000 C 
BRANCH  27  28
ATOM     28  N   UNL     1      50.226   4.980  16.933  0.00  0.00    +0.000 NA
ATOM     29  H   UNL     1      50.254   4.526  16.009  0.00  0.00    +0.000 HD
BRANCH  28  30
ATOM     30  C   UNL     1      49.719   4.043  17.949  0.00  0.00    +0.000 C 
ATOM     31  C   UNL     1      49.234   2.671  17.437  0.00  0.00    +0.000 C 
ATOM     32  C   UNL     1      47.948   2.777  16.623  0.00  0.00    +0.000 C 
ATOM     33  N   UNL     1      46.868   3.383  17.408  0.00  0.00    +0.000 NA
ATOM     34  C   UNL     1      47.257   4.717  17.884  0.00  0.00    +0.000 C 
ATOM     35  C   UNL     1      48.547   4.690  18.708  0.00  0.00    +0.000 C 
ATOM     36  H   UNL     1      46.669   2.790  18.213  0.00  0.00    +0.000 HD
ENDBRANCH  28  30
ENDBRANCH  27  28
ENDBRANCH  26  27
ENDBRANCH  23  26
ENDBRANCH  19  20
ENDBRANCH   1  19
TORSDOF 10
ENDMDL
MODEL 8
REMARK VINA RESULT:    -5.960      2.226      3.874
REMARK INTER + INTRA:         -10.707
REMARK INTER:                  -8.932
REMARK INTRA:                  -1.775
REMARK UNBOUND:                -1.437
REMARK  Name = 
REMARK  10 active torsions:
REMARK  status: ('A' for Active; 'I' for Inactive)
REMARK    1  A    between atoms: N_1  and  C_2
REMARK    2  A    between atoms: C_2  and  C_3
REMARK    3  A    between atoms: C_3  and  N_4
REMARK    4  A    between atoms: C_3  and  C_21
REMARK    5  A    between atoms: N_4  and  C_5
REMARK    6  A    between atoms: C_5  and  C_6
REMARK    7  A    between atoms: C_9  and  C_10
REMARK    8  A    between atoms: C_10  and  C_11
REMARK    9  A    between atoms: C_11  and  N_12
REMARK   10  A    between atoms: N_12  and  C_13
REMARK                            x       y       z     vdW  Elec       q    Type
REMARK                         _______ _______ _______ _____ _____    ______ ____
ROOT
ATOM      1  N   UNL     1      50.644   7.093  17.587  0.00  0.00    +0.000 NA
ATOM      2  H   UNL     1      49.673   6.798  17.649  0.00  0.00    +0.000 HD
ENDROOT
BRANCH   1   3
ATOM      3  C   UNL     1      51.469   6.181  18.407  0.00  0.00    +0.000 C 
BRANCH   3   4
ATOM      4  C   UNL     1      50.888   4.773  18.288  0.00  0.00    +0.000 A 
ATOM      5  C   UNL     1      51.682   3.641  18.162  0.00  0.00    +0.000 A 
ATOM      6  S   UNL     1      50.856   2.378  17.353  0.00  0.00    +0.000 S 
ATOM      7  C   UNL     1      49.378   3.212  17.467  0.00  0.00    +0.000 A 
ATOM      8  N   UNL     1      48.243   2.736  16.889  0.00  0.00    +0.000 NA
ATOM      9  C   UNL     1      47.172   3.361  17.250  0.00  0.00    +0.000 A 
ATOM     10  N   UNL     1      47.136   4.408  18.146  0.00  0.00    +0.000 N 
ATOM     11  C   UNL     1      48.262   4.980  18.664  0.00  0.00    +0.000 A 
ATOM     12  O   UNL     1      48.226   5.907  19.482  0.00  0.00    +0.000 OA
ATOM     13  C   UNL     1      49.504   4.362  18.226  0.00  0.00    +0.000 A 
ATOM     14  H   UNL     1      46.249   4.753  18.477  0.00  0.00    +0.000 HD
ENDBRANCH   3   4
BRANCH   3  15
ATOM     15  C   UNL     1      53.050   6.148  18.246  0.00  0.00    +0.000 C 
BRANCH  15  16
ATOM     16  N   UNL     1      53.817   6.364  19.486  0.00  0.00    +0.000 NA
ATOM     17  H   UNL     1      53.476   5.743  20.224  0.00  0.00    +0.000 HD
ATOM     18  H   UNL     1      53.667   7.312  19.825  0.00  0.00    +0.000 HD
ENDBRANCH  15  16
ENDBRANCH   3  15
ENDBRANCH   1   3
BRANCH   1  19
ATOM     19  C   UNL     1      51.086   7.205  16.195  0.00  0.00    +0.000 C 
BRANCH  19  20
ATOM     20  C   UNL     1      49.981   7.365  15.178  0.00  0.00    +0.000 A 
ATOM     21  C   UNL     1      49.969   8.272  14.158  0.00  0.00    +0.000 A 
ATOM     22  N   UNL     1      49.016   8.303  13.194  0.00  0.00    +0.000 NA
ATOM     23  C   UNL     1      48.016   7.395  13.278  0.00  0.00    +0.000 A 
ATOM     24  N   UNL     1      47.936   6.458  14.228  0.00  0.00    +0.000 NA
ATOM     25  C   UNL     1      48.925   6.470  15.152  0.00  0.00    +0.000 A 
BRANCH  23  26
ATOM     26  C   UNL     1      46.916   7.447  12.238  0.00  0.00    +0.000 C 
BRANCH  26  27
ATOM     27  C   UNL     1      45.519   7.214  12.841  0.00  0.00    +0.000 C 
BRANCH  27  28
ATOM     28  N   UNL     1      45.228   5.793  13.097  0.00  0.00    +0.000 NA
ATOM     29  H   UNL     1      44.257   5.741  13.438  0.00  0.00    +0.000 HD
BRANCH  28  30
ATOM     30  C   UNL     1      45.404   4.931  11.918  0.00  0.00    +0.000 C 
ATOM     31  C   UNL     1      44.479   5.212  10.716  0.00  0.00    +0.000 C 
ATOM     32  C   UNL     1      43.027   4.841  11.003  0.00  0.00    +0.000 C 
ATOM     33  N   UNL     1      42.898   3.425  11.361  0.00  0.00    +0.000 NA
ATOM     34  C   UNL     1      43.725   3.108  12.533  0.00  0.00    +0.000 C 
ATOM     35  C   UNL     1      45.200   3.459  12.320  0.00  0.00    +0.000 C 
ATOM     36  H   UNL     1      43.207   2.855  10.575  0.00  0.00    +0.000 HD
ENDBRANCH  28  30
ENDBRANCH  27  28
ENDBRANCH  26  27
ENDBRANCH  23  26
ENDBRANCH  19  20
ENDBRANCH   1  19
TORSDOF 10
ENDMDL
MODEL 9
REMARK VINA RESULT:    -5.791      3.289      8.546
REMARK INTER + INTRA:         -10.444
REMARK INTER:                  -8.958
REMARK INTRA:                  -1.486
REMARK UNBOUND:                -1.437
REMARK  Name = 
REMARK  10 active torsions:
REMARK  status: ('A' for Active; 'I' for Inactive)
REMARK    1  A    between atoms: N_1  and  C_2
REMARK    2  A    between atoms: C_2  and  C_3
REMARK    3  A    between atoms: C_3  and  N_4
REMARK    4  A    between atoms: C_3  and  C_21
REMARK    5  A    between atoms: N_4  and  C_5
REMARK    6  A    between atoms: C_5  and  C_6
REMARK    7  A    between atoms: C_9  and  C_10
REMARK    8  A    between atoms: C_10  and  C_11
REMARK    9  A    between atoms: C_11  and  N_12
REMARK   10  A    between atoms: N_12  and  C_13
REMARK                            x       y       z     vdW  Elec       q    Type
REMARK                         _______ _______ _______ _____ _____    ______ ____
ROOT
ATOM      1  N   UNL     1      47.422   6.748  11.972  0.00  0.00    +0.000 NA
ATOM      2  H   UNL     1      47.446   5.874  12.491  0.00  0.00    +0.000 HD
ENDROOT
BRANCH   1   3
ATOM      3  C   UNL     1      46.092   6.888  11.344  0.00  0.00    +0.000 C 
BRANCH   3   4
ATOM      4  C   UNL     1      45.731   5.558  10.685  0.00  0.00    +0.000 A 
ATOM      5  C   UNL     1      45.876   5.331   9.322  0.00  0.00    +0.000 A 
ATOM      6  S   UNL     1      44.787   4.134   8.762  0.00  0.00    +0.000 S 
ATOM      7  C   UNL     1      44.371   3.705  10.356  0.00  0.00    +0.000 A 
ATOM      8  N   UNL     1      43.404   2.786  10.618  0.00  0.00    +0.000 NA
ATOM      9  C   UNL     1      43.362   2.412  11.854  0.00  0.00    +0.000 A 
ATOM     10  N   UNL     1      44.209   2.864  12.842  0.00  0.00    +0.000 N 
ATOM     11  C   UNL     1      45.119   3.860  12.640  0.00  0.00    +0.000 A 
ATOM     12  O   UNL     1      45.892   4.252  13.524  0.00  0.00    +0.000 OA
ATOM     13  C   UNL     1      45.153   4.375  11.279  0.00  0.00    +0.000 A 
ATOM     14  H   UNL     1      44.199   2.425  13.749  0.00  0.00    +0.000 HD
ENDBRANCH   3   4
BRANCH   3  15
ATOM     15  C   UNL     1      44.858   7.455  12.172  0.00  0.00    +0.000 C 
BRANCH  15  16
ATOM     16  N   UNL     1      44.309   8.735  11.691  0.00  0.00    +0.000 NA
ATOM     17  H   UNL     1      43.721   9.160  12.412  0.00  0.00    +0.000 HD
ATOM     18  H   UNL     1      43.701   8.573  10.891  0.00  0.00    +0.000 HD
ENDBRANCH  15  16
ENDBRANCH   3  15
ENDBRANCH   1   3
BRANCH   1  19
ATOM     19  C   UNL     1      47.807   7.885  12.812  0.00  0.00    +0.000 C 
BRANCH  19  20
ATOM     20  C   UNL     1      48.266   7.531  14.206  0.00  0.00    +0.000 A 
ATOM     21  C   UNL     1      48.571   8.427  15.191  0.00  0.00    +0.000 A 
ATOM     22  N   UNL     1      48.863   8.068  16.465  0.00  0.00    +0.000 NA
ATOM     23  C   UNL     1      48.874   6.746  16.753  0.00  0.00    +0.000 A 
ATOM     24  N   UNL     1      48.583   5.787  15.869  0.00  0.00    +0.000 NA
ATOM     25  C   UNL     1      48.286   6.210  14.618  0.00  0.00    +0.000 A 
BRANCH  23  26
ATOM     26  C   UNL     1      49.247   6.326  18.159  0.00  0.00    +0.000 C 
BRANCH  26  27
ATOM     27  C   UNL     1      48.101   6.538  19.164  0.00  0.00    +0.000 C 
BRANCH  27  28
ATOM     28  N   UNL     1      47.333   7.769  18.917  0.00  0.00    +0.000 NA
ATOM     29  H   UNL     1      46.370   7.484  18.686  0.00  0.00    +0.000 HD
BRANCH  28  30
ATOM     30  C   UNL     1      47.331   8.703  20.055  0.00  0.00    +0.000 C 
ATOM     31  C   UNL     1      46.646  10.066  19.826  0.00  0.00    +0.000 C 
ATOM     32  C   UNL     1      47.426  10.952  18.859  0.00  0.00    +0.000 C 
ATOM     33  N   UNL     1      48.788  11.198  19.342  0.00  0.00    +0.000 NA
ATOM     34  C   UNL     1      49.508   9.932  19.535  0.00  0.00    +0.000 C 
ATOM     35  C   UNL     1      48.779   8.985  20.492  0.00  0.00    +0.000 C 
ATOM     36  H   UNL     1      48.741  11.690  20.233  0.00  0.00    +0.000 HD
ENDBRANCH  28  30
ENDBRANCH  27  28
ENDBRANCH  26  27
ENDBRANCH  23  26
ENDBRANCH  19  20
ENDBRANCH   1  19
TORSDOF 10
ENDMDL
