MODEL 1
REMARK VINA RESULT:    -7.841      0.000      0.000
REMARK INTER + INTRA:          -9.513
REMARK INTER:                  -9.217
REMARK INTRA:                  -0.296
REMARK UNBOUND:                -0.296
REMARK  Name = 
REMARK  3 active torsions:
REMARK  status: ('A' for Active; 'I' for Inactive)
REMARK    1  A    between atoms: C_2  and  C_4
REMARK    2  A    between atoms: N_8  and  C_9
REMARK    3  A    between atoms: C_9  and  C_10
REMARK                            x       y       z     vdW  Elec       q    Type
REMARK                         _______ _______ _______ _____ _____    ______ ____
ROOT
ATOM      1  C   UNL     1      46.524   4.669  13.378  0.00  0.00    +0.000 A 
ATOM      2  C   UNL     1      46.784   5.737  12.561  0.00  0.00    +0.000 A 
ATOM      3  N   UNL     1      46.185   5.925  11.365  0.00  0.00    +0.000 NA
ATOM      4  C   UNL     1      45.369   4.955  10.929  0.00  0.00    +0.000 A 
ATOM      5  N   UNL     1      44.891   5.112   9.655  0.00  0.00    +0.000 N 
ATOM      6  N   UNL     1      45.064   3.862  11.647  0.00  0.00    +0.000 NA
ATOM      7  C   UNL     1      45.640   3.749  12.870  0.00  0.00    +0.000 A 
ATOM      8  H   UNL     1      44.442   6.008   9.538  0.00  0.00    +0.000 HD
ENDROOT
BRANCH   1  10
ATOM      9  N   UNL     1      47.446   5.567  15.439  0.00  0.00    +0.000 N 
ATOM     10  C   UNL     1      47.148   4.465  14.693  0.00  0.00    +0.000 C 
ATOM     11  O   UNL     1      47.368   3.336  15.118  0.00  0.00    +0.000 OA
ATOM     12  H   UNL     1      47.797   5.393  16.374  0.00  0.00    +0.000 HD
ATOM     13  H   UNL     1      47.089   6.494  15.248  0.00  0.00    +0.000 HD
ENDBRANCH   1  10
BRANCH   5  14
ATOM     14  C   UNL     1      44.295   3.981   8.992  0.00  0.00    +0.000 C 
BRANCH  14  15
ATOM     15  C   UNL     1      45.400   3.177   8.338  0.00  0.00    +0.000 A 
ATOM     16  C   UNL     1      45.514   1.799   8.596  0.00  0.00    +0.000 A 
ATOM     17  C   UNL     1      46.516   1.037   7.993  0.00  0.00    +0.000 A 
ATOM     18  C   UNL     1      47.411   1.645   7.117  0.00  0.00    +0.000 A 
ATOM     19  C   UNL     1      47.306   3.011   6.847  0.00  0.00    +0.000 A 
ATOM     20  C   UNL     1      46.304   3.774   7.453  0.00  0.00    +0.000 A 
ENDBRANCH  14  15
ENDBRANCH   5  14
TORSDOF 3
ENDMDL
MODEL 2
REMARK VINA RESULT:    -7.540      2.922      6.040
REMARK INTER + INTRA:          -9.158
REMARK INTER:                  -8.899
REMARK INTRA:                  -0.259
REMARK UNBOUND:                -0.296
REMARK  Name = 
REMARK  3 active torsions:
REMARK  status: ('A' for Active; 'I' for Inactive)
REMARK    1  A    between atoms: C_2  and  C_4
REMARK    2  A    between atoms: N_8  and  C_9
REMARK    3  A    between atoms: C_9  and  C_10
REMARK                            x       y       z     vdW  Elec       q    Type
REMARK                         _______ _______ _______ _____ _____    ______ ____
ROOT
ATOM      1  C   UNL     1      46.477   2.648   7.469  0.00  0.00    +0.000 A 
ATOM      2  C   UNL     1      45.909   1.756   8.340  0.00  0.00    +0.000 A 
ATOM      3  N   UNL     1      44.968   2.097   9.248  0.00  0.00    +0.000 NA
ATOM      4  C   UNL     1      44.658   3.396   9.351  0.00  0.00    +0.000 A 
ATOM      5  N   UNL     1      43.807   3.721  10.374  0.00  0.00    +0.000 N 
ATOM      6  N   UNL     1      45.171   4.348   8.556  0.00  0.00    +0.000 NA
ATOM      7  C   UNL     1      46.064   3.950   7.616  0.00  0.00    +0.000 A 
ATOM      8  H   UNL     1      42.960   3.174  10.337  0.00  0.00    +0.000 HD
ENDROOT
BRANCH   1  10
ATOM      9  N   UNL     1      47.480   2.974   5.280  0.00  0.00    +0.000 N 
ATOM     10  C   UNL     1      47.482   2.288   6.459  0.00  0.00    +0.000 C 
ATOM     11  O   UNL     1      48.316   1.417   6.681  0.00  0.00    +0.000 OA
ATOM     12  H   UNL     1      48.236   2.763   4.638  0.00  0.00    +0.000 HD
ATOM     13  H   UNL     1      46.977   3.839   5.128  0.00  0.00    +0.000 HD
ENDBRANCH   1  10
BRANCH   5  14
ATOM     14  C   UNL     1      43.687   5.102  10.767  0.00  0.00    +0.000 C 
BRANCH  14  15
ATOM     15  C   UNL     1      44.844   5.438  11.685  0.00  0.00    +0.000 A 
ATOM     16  C   UNL     1      45.087   4.652  12.826  0.00  0.00    +0.000 A 
ATOM     17  C   UNL     1      46.155   4.936  13.677  0.00  0.00    +0.000 A 
ATOM     18  C   UNL     1      46.999   6.006  13.392  0.00  0.00    +0.000 A 
ATOM     19  C   UNL     1      46.773   6.792  12.260  0.00  0.00    +0.000 A 
ATOM     20  C   UNL     1      45.701   6.509  11.409  0.00  0.00    +0.000 A 
ENDBRANCH  14  15
ENDBRANCH   5  14
TORSDOF 3
ENDMDL
MODEL 3
REMARK VINA RESULT:    -7.395      1.932      2.603
REMARK INTER + INTRA:          -8.988
REMARK INTER:                  -8.784
REMARK INTRA:                  -0.204
REMARK UNBOUND:                -0.296
REMARK  Name = 
REMARK  3 active torsions:
REMARK  status: ('A' for Active; 'I' for Inactive)
REMARK    1  A    between atoms: C_2  and  C_4
REMARK    2  A    between atoms: N_8  and  C_9
REMARK    3  A    between atoms: C_9  and  C_10
REMARK                            x       y       z     vdW  Elec       q    Type
REMARK                         _______ _______ _______ _____ _____    ______ ____
ROOT
ATOM      1  C   UNL     1      45.819   6.412  12.530  0.00  0.00    +0.000 A 
ATOM      2  C   UNL     1      45.773   5.221  13.206  0.00  0.00    +0.000 A 
ATOM      3  N   UNL     1      45.562   4.030  12.605  0.00  0.00    +0.000 NA
ATOM      4  C   UNL     1      45.290   4.045  11.293  0.00  0.00    +0.000 A 
ATOM      5  N   UNL     1      44.943   2.838  10.746  0.00  0.00    +0.000 N 
ATOM      6  N   UNL     1      45.295   5.161  10.546  0.00  0.00    +0.000 NA
ATOM      7  C   UNL     1      45.576   6.326  11.181  0.00  0.00    +0.000 A 
ATOM      8  H   UNL     1      45.639   2.133  10.939  0.00  0.00    +0.000 HD
ENDROOT
BRANCH   1  10
ATOM      9  N   UNL     1      47.146   7.817  14.003  0.00  0.00    +0.000 N 
ATOM     10  C   UNL     1      46.074   7.712  13.166  0.00  0.00    +0.000 C 
ATOM     11  O   UNL     1      45.361   8.681  12.929  0.00  0.00    +0.000 OA
ATOM     12  H   UNL     1      47.345   8.745  14.360  0.00  0.00    +0.000 HD
ATOM     13  H   UNL     1      47.889   7.133  14.061  0.00  0.00    +0.000 HD
ENDBRANCH   1  10
BRANCH   5  14
ATOM     14  C   UNL     1      44.319   2.816   9.448  0.00  0.00    +0.000 C 
BRANCH  14  15
ATOM     15  C   UNL     1      45.388   2.540   8.411  0.00  0.00    +0.000 A 
ATOM     16  C   UNL     1      45.749   3.540   7.490  0.00  0.00    +0.000 A 
ATOM     17  C   UNL     1      46.740   3.310   6.536  0.00  0.00    +0.000 A 
ATOM     18  C   UNL     1      47.389   2.079   6.498  0.00  0.00    +0.000 A 
ATOM     19  C   UNL     1      47.045   1.079   7.410  0.00  0.00    +0.000 A 
ATOM     20  C   UNL     1      46.050   1.308   8.364  0.00  0.00    +0.000 A 
ENDBRANCH  14  15
ENDBRANCH   5  14
TORSDOF 3
ENDMDL
MODEL 4
REMARK VINA RESULT:    -6.539      1.649      2.246
REMARK INTER + INTRA:          -7.982
REMARK INTER:                  -7.823
REMARK INTRA:                  -0.159
REMARK UNBOUND:                -0.296
REMARK  Name = 
REMARK  3 active torsions:
REMARK  status: ('A' for Active; 'I' for Inactive)
REMARK    1  A    between atoms: C_2  and  C_4
REMARK    2  A    between atoms: N_8  and  C_9
REMARK    3  A    between atoms: C_9  and  C_10
REMARK                            x       y       z     vdW  Elec       q    Type
REMARK                         _______ _______ _______ _____ _____    ______ ____
ROOT
ATOM      1  C   UNL     1      47.539   5.798  14.060  0.00  0.00    +0.000 A 
ATOM      2  C   UNL     1      46.844   4.754  14.613  0.00  0.00    +0.000 A 
ATOM      3  N   UNL     1      45.963   3.997  13.924  0.00  0.00    +0.000 NA
ATOM      4  C   UNL     1      45.696   4.362  12.663  0.00  0.00    +0.000 A 
ATOM      5  N   UNL     1      44.697   3.659  12.042  0.00  0.00    +0.000 N 
ATOM      6  N   UNL     1      46.310   5.379  12.037  0.00  0.00    +0.000 NA
ATOM      7  C   UNL     1      47.235   6.070  12.748  0.00  0.00    +0.000 A 
ATOM      8  H   UNL     1      44.869   2.665  12.077  0.00  0.00    +0.000 HD
ENDROOT
BRANCH   1  10
ATOM      9  N   UNL     1      48.248   6.935  16.087  0.00  0.00    +0.000 N 
ATOM     10  C   UNL     1      48.519   6.614  14.789  0.00  0.00    +0.000 C 
ATOM     11  O   UNL     1      49.564   6.972  14.255  0.00  0.00    +0.000 OA
ATOM     12  H   UNL     1      48.980   7.425  16.589  0.00  0.00    +0.000 HD
ATOM     13  H   UNL     1      47.530   6.490  16.643  0.00  0.00    +0.000 HD
ENDBRANCH   1  10
BRANCH   5  14
ATOM     14  C   UNL     1      44.120   4.190  10.834  0.00  0.00    +0.000 C 
BRANCH  14  15
ATOM     15  C   UNL     1      44.903   3.649   9.656  0.00  0.00    +0.000 A 
ATOM     16  C   UNL     1      45.042   2.260   9.482  0.00  0.00    +0.000 A 
ATOM     17  C   UNL     1      45.748   1.741   8.396  0.00  0.00    +0.000 A 
ATOM     18  C   UNL     1      46.316   2.607   7.465  0.00  0.00    +0.000 A 
ATOM     19  C   UNL     1      46.181   3.988   7.622  0.00  0.00    +0.000 A 
ATOM     20  C   UNL     1      45.477   4.507   8.711  0.00  0.00    +0.000 A 
ENDBRANCH  14  15
ENDBRANCH   5  14
TORSDOF 3
ENDMDL
MODEL 5
REMARK VINA RESULT:    -6.284      3.023      7.070
REMARK INTER + INTRA:          -7.682
REMARK INTER:                  -7.425
REMARK INTRA:                  -0.257
REMARK UNBOUND:                -0.296
REMARK  Name = 
REMARK  3 active torsions:
REMARK  status: ('A' for Active; 'I' for Inactive)
REMARK    1  A    between atoms: C_2  and  C_4
REMARK    2  A    between atoms: N_8  and  C_9
REMARK    3  A    between atoms: C_9  and  C_10
REMARK                            x       y       z     vdW  Elec       q    Type
REMARK                         _______ _______ _______ _____ _____    ______ ____
ROOT
ATOM      1  C   UNL     1      45.248   4.587  11.692  0.00  0.00    +0.000 A 
ATOM      2  C   UNL     1      45.720   5.792  12.142  0.00  0.00    +0.000 A 
ATOM      3  N   UNL     1      46.433   5.934  13.281  0.00  0.00    +0.000 NA
ATOM      4  C   UNL     1      46.592   4.846  14.045  0.00  0.00    +0.000 A 
ATOM      5  N   UNL     1      47.196   5.056  15.257  0.00  0.00    +0.000 N 
ATOM      6  N   UNL     1      46.153   3.625  13.700  0.00  0.00    +0.000 NA
ATOM      7  C   UNL     1      45.499   3.518  12.517  0.00  0.00    +0.000 A 
ATOM      8  H   UNL     1      48.083   5.526  15.149  0.00  0.00    +0.000 HD
ENDROOT
BRANCH   1  10
ATOM      9  N   UNL     1      45.007   4.956   9.303  0.00  0.00    +0.000 N 
ATOM     10  C   UNL     1      44.494   4.412  10.443  0.00  0.00    +0.000 C 
ATOM     11  O   UNL     1      43.449   3.770  10.421  0.00  0.00    +0.000 OA
ATOM     12  H   UNL     1      44.510   4.747   8.444  0.00  0.00    +0.000 HD
ATOM     13  H   UNL     1      45.957   5.293   9.213  0.00  0.00    +0.000 HD
ENDBRANCH   1  10
BRANCH   5  14
ATOM     14  C   UNL     1      47.107   4.032  16.266  0.00  0.00    +0.000 C 
BRANCH  14  15
ATOM     15  C   UNL     1      48.507   3.720  16.751  0.00  0.00    +0.000 A 
ATOM     16  C   UNL     1      48.981   2.396  16.726  0.00  0.00    +0.000 A 
ATOM     17  C   UNL     1      50.273   2.089  17.155  0.00  0.00    +0.000 A 
ATOM     18  C   UNL     1      51.109   3.106  17.608  0.00  0.00    +0.000 A 
ATOM     19  C   UNL     1      50.654   4.426  17.633  0.00  0.00    +0.000 A 
ATOM     20  C   UNL     1      49.359   4.733  17.205  0.00  0.00    +0.000 A 
ENDBRANCH  14  15
ENDBRANCH   5  14
TORSDOF 3
ENDMDL
MODEL 6
REMARK VINA RESULT:    -6.015      3.171      5.042
REMARK INTER + INTRA:          -7.366
REMARK INTER:                  -7.137
REMARK INTRA:                  -0.229
REMARK UNBOUND:                -0.296
REMARK  Name = 
REMARK  3 active torsions:
REMARK  status: ('A' for Active; 'I' for Inactive)
REMARK    1  A    between atoms: C_2  and  C_4
REMARK    2  A    between atoms: N_8  and  C_9
REMARK    3  A    between atoms: C_9  and  C_10
REMARK                            x       y       z     vdW  Elec       q    Type
REMARK                         _______ _______ _______ _____ _____    ______ ____
ROOT
ATOM      1  C   UNL     1      48.529   4.326  18.008  0.00  0.00    +0.000 A 
ATOM      2  C   UNL     1      47.554   3.396  17.760  0.00  0.00    +0.000 A 
ATOM      3  N   UNL     1      46.925   3.275  16.570  0.00  0.00    +0.000 NA
ATOM      4  C   UNL     1      47.215   4.182  15.628  0.00  0.00    +0.000 A 
ATOM      5  N   UNL     1      46.458   4.114  14.488  0.00  0.00    +0.000 N 
ATOM      6  N   UNL     1      48.142   5.141  15.780  0.00  0.00    +0.000 NA
ATOM      7  C   UNL     1      48.794   5.184  16.969  0.00  0.00    +0.000 A 
ATOM      8  H   UNL     1      46.482   3.189  14.085  0.00  0.00    +0.000 HD
ENDROOT
BRANCH   1  10
ATOM      9  N   UNL     1      48.670   3.901  20.396  0.00  0.00    +0.000 N 
ATOM     10  C   UNL     1      49.240   4.453  19.288  0.00  0.00    +0.000 C 
ATOM     11  O   UNL     1      50.329   5.014  19.351  0.00  0.00    +0.000 OA
ATOM     12  H   UNL     1      49.222   3.930  21.246  0.00  0.00    +0.000 HD
ATOM     13  H   UNL     1      47.902   3.241  20.370  0.00  0.00    +0.000 HD
ENDBRANCH   1  10
BRANCH   5  14
ATOM     14  C   UNL     1      46.465   5.233  13.581  0.00  0.00    +0.000 C 
BRANCH  14  15
ATOM     15  C   UNL     1      45.726   4.829  12.322  0.00  0.00    +0.000 A 
ATOM     16  C   UNL     1      44.933   3.667  12.314  0.00  0.00    +0.000 A 
ATOM     17  C   UNL     1      44.234   3.285  11.169  0.00  0.00    +0.000 A 
ATOM     18  C   UNL     1      44.313   4.067  10.020  0.00  0.00    +0.000 A 
ATOM     19  C   UNL     1      45.091   5.226  10.015  0.00  0.00    +0.000 A 
ATOM     20  C   UNL     1      45.794   5.607  11.161  0.00  0.00    +0.000 A 
ENDBRANCH  14  15
ENDBRANCH   5  14
TORSDOF 3
ENDMDL
MODEL 7
REMARK VINA RESULT:    -5.751      3.323      6.027
REMARK INTER + INTRA:          -7.056
REMARK INTER:                  -6.854
REMARK INTRA:                  -0.201
REMARK UNBOUND:                -0.296
REMARK  Name = 
REMARK  3 active torsions:
REMARK  status: ('A' for Active; 'I' for Inactive)
REMARK    1  A    between atoms: C_2  and  C_4
REMARK    2  A    between atoms: N_8  and  C_9
REMARK    3  A    between atoms: C_9  and  C_10
REMARK                            x       y       z     vdW  Elec       q    Type
REMARK                         _______ _______ _______ _____ _____    ______ ____
ROOT
ATOM      1  C   UNL     1      44.508   4.041  11.661  0.00  0.00    +0.000 A 
ATOM      2  C   UNL     1      45.274   4.011  12.797  0.00  0.00    +0.000 A 
ATOM      3  N   UNL     1      45.788   5.117  13.378  0.00  0.00    +0.000 NA
ATOM      4  C   UNL     1      45.611   6.283  12.742  0.00  0.00    +0.000 A 
ATOM      5  N   UNL     1      46.264   7.358  13.284  0.00  0.00    +0.000 N 
ATOM      6  N   UNL     1      44.892   6.413  11.616  0.00  0.00    +0.000 NA
ATOM      7  C   UNL     1      44.340   5.285  11.104  0.00  0.00    +0.000 A 
ATOM      8  H   UNL     1      46.041   7.469  14.262  0.00  0.00    +0.000 HD
ENDROOT
BRANCH   1  10
ATOM      9  N   UNL     1      44.535   2.338   9.927  0.00  0.00    +0.000 N 
ATOM     10  C   UNL     1      43.920   2.850  11.032  0.00  0.00    +0.000 C 
ATOM     11  O   UNL     1      42.922   2.316  11.503  0.00  0.00    +0.000 OA
ATOM     12  H   UNL     1      44.157   1.470   9.566  0.00  0.00    +0.000 HD
ATOM     13  H   UNL     1      45.469   2.590   9.631  0.00  0.00    +0.000 HD
ENDBRANCH   1  10
BRANCH   5  14
ATOM     14  C   UNL     1      46.407   8.555  12.496  0.00  0.00    +0.000 C 
BRANCH  14  15
ATOM     15  C   UNL     1      47.858   8.682  12.081  0.00  0.00    +0.000 A 
ATOM     16  C   UNL     1      48.391   9.944  11.763  0.00  0.00    +0.000 A 
ATOM     17  C   UNL     1      49.728  10.084  11.392  0.00  0.00    +0.000 A 
ATOM     18  C   UNL     1      50.552   8.962  11.344  0.00  0.00    +0.000 A 
ATOM     19  C   UNL     1      50.038   7.704  11.663  0.00  0.00    +0.000 A 
ATOM     20  C   UNL     1      48.698   7.563  12.032  0.00  0.00    +0.000 A 
ENDBRANCH  14  15
ENDBRANCH   5  14
TORSDOF 3
ENDMDL
MODEL 8
REMARK VINA RESULT:    -5.231      4.241      8.033
REMARK INTER + INTRA:          -6.445
REMARK INTER:                  -6.151
REMARK INTRA:                  -0.294
REMARK UNBOUND:                -0.296
REMARK  Name = 
REMARK  3 active torsions:
REMARK  status: ('A' for Active; 'I' for Inactive)
REMARK    1  A    between atoms: C_2  and  C_4
REMARK    2  A    between atoms: N_8  and  C_9
REMARK    3  A    between atoms: C_9  and  C_10
REMARK                            x       y       z     vdW  Elec       q    Type
REMARK                         _______ _______ _______ _____ _____    ______ ____
ROOT
ATOM      1  C   UNL     1      47.196   5.633  13.414  0.00  0.00    +0.000 A 
ATOM      2  C   UNL     1      46.818   4.373  13.796  0.00  0.00    +0.000 A 
ATOM      3  N   UNL     1      47.104   3.843  15.005  0.00  0.00    +0.000 NA
ATOM      4  C   UNL     1      47.881   4.565  15.823  0.00  0.00    +0.000 A 
ATOM      5  N   UNL     1      48.266   3.939  16.979  0.00  0.00    +0.000 N 
ATOM      6  N   UNL     1      48.316   5.801  15.534  0.00  0.00    +0.000 NA
ATOM      7  C   UNL     1      47.950   6.319  14.335  0.00  0.00    +0.000 A 
ATOM      8  H   UNL     1      47.470   3.590  17.491  0.00  0.00    +0.000 HD
ENDROOT
BRANCH   1  10
ATOM      9  N   UNL     1      47.704   7.195  11.624  0.00  0.00    +0.000 N 
ATOM     10  C   UNL     1      46.870   6.233  12.113  0.00  0.00    +0.000 C 
ATOM     11  O   UNL     1      45.893   5.859  11.473  0.00  0.00    +0.000 OA
ATOM     12  H   UNL     1      47.501   7.530  10.689  0.00  0.00    +0.000 HD
ATOM     13  H   UNL     1      48.630   7.382  11.988  0.00  0.00    +0.000 HD
ENDBRANCH   1  10
BRANCH   5  14
ATOM     14  C   UNL     1      49.353   4.496  17.743  0.00  0.00    +0.000 C 
BRANCH  14  15
ATOM     15  C   UNL     1      50.502   3.509  17.724  0.00  0.00    +0.000 A 
ATOM     16  C   UNL     1      51.788   3.920  18.118  0.00  0.00    +0.000 A 
ATOM     17  C   UNL     1      52.857   3.023  18.121  0.00  0.00    +0.000 A 
ATOM     18  C   UNL     1      52.648   1.700  17.739  0.00  0.00    +0.000 A 
ATOM     19  C   UNL     1      51.376   1.277  17.351  0.00  0.00    +0.000 A 
ATOM     20  C   UNL     1      50.306   2.176  17.346  0.00  0.00    +0.000 A 
ENDBRANCH  14  15
ENDBRANCH   5  14
TORSDOF 3
ENDMDL
MODEL 9
REMARK VINA RESULT:    -5.197      3.521      8.280
REMARK INTER + INTRA:          -6.405
REMARK INTER:                  -6.160
REMARK INTRA:                  -0.245
REMARK UNBOUND:                -0.296
REMARK  Name = 
REMARK  3 active torsions:
REMARK  status: ('A' for Active; 'I' for Inactive)
REMARK    1  A    between atoms: C_2  and  C_4
REMARK    2  A    between atoms: N_8  and  C_9
REMARK    3  A    between atoms: C_9  and  C_10
REMARK                            x       y       z     vdW  Elec       q    Type
REMARK                         _______ _______ _______ _____ _____    ______ ____
ROOT
ATOM      1  C   UNL     1      45.700   4.275  12.429  0.00  0.00    +0.000 A 
ATOM      2  C   UNL     1      45.833   5.534  12.952  0.00  0.00    +0.000 A 
ATOM      3  N   UNL     1      46.568   5.811  14.050  0.00  0.00    +0.000 NA
ATOM      4  C   UNL     1      47.108   4.775  14.705  0.00  0.00    +0.000 A 
ATOM      5  N   UNL     1      47.726   5.079  15.889  0.00  0.00    +0.000 N 
ATOM      6  N   UNL     1      47.020   3.503  14.283  0.00  0.00    +0.000 NA
ATOM      7  C   UNL     1      46.327   3.280  13.139  0.00  0.00    +0.000 A 
ATOM      8  H   UNL     1      48.421   5.800  15.767  0.00  0.00    +0.000 HD
ENDROOT
BRANCH   1  10
ATOM      9  N   UNL     1      44.684   2.649  10.935  0.00  0.00    +0.000 N 
ATOM     10  C   UNL     1      44.926   3.961  11.220  0.00  0.00    +0.000 C 
ATOM     11  O   UNL     1      44.486   4.854  10.503  0.00  0.00    +0.000 OA
ATOM     12  H   UNL     1      44.077   2.467  10.144  0.00  0.00    +0.000 HD
ATOM     13  H   UNL     1      44.820   1.892  11.593  0.00  0.00    +0.000 HD
ENDBRANCH   1  10
BRANCH   5  14
ATOM     14  C   UNL     1      48.031   4.012  16.808  0.00  0.00    +0.000 C 
BRANCH  14  15
ATOM     15  C   UNL     1      48.001   4.574  18.215  0.00  0.00    +0.000 A 
ATOM     16  C   UNL     1      48.773   3.976  19.227  0.00  0.00    +0.000 A 
ATOM     17  C   UNL     1      48.770   4.486  20.526  0.00  0.00    +0.000 A 
ATOM     18  C   UNL     1      48.000   5.607  20.824  0.00  0.00    +0.000 A 
ATOM     19  C   UNL     1      47.233   6.214  19.828  0.00  0.00    +0.000 A 
ATOM     20  C   UNL     1      47.234   5.702  18.528  0.00  0.00    +0.000 A 
ENDBRANCH  14  15
ENDBRANCH   5  14
TORSDOF 3
ENDMDL
