MODEL 1
REMARK VINA RESULT:    -8.997      0.000      0.000
REMARK INTER + INTRA:         -12.257
REMARK INTER:                 -11.626
REMARK INTRA:                  -0.631
REMARK UNBOUND:                -0.631
REMARK  Name = 
REMARK  5 active torsions:
REMARK  status: ('A' for Active; 'I' for Inactive)
REMARK    1  A    between atoms: C_2  and  C_4
REMARK    2  A    between atoms: C_7  and  O_8
REMARK    3  A    between atoms: O_8  and  C_9
REMARK    4  A    between atoms: C_9  and  C_10
REMARK    5  A    between atoms: C_14  and  C_15
REMARK                            x       y       z     vdW  Elec       q    Type
REMARK                         _______ _______ _______ _____ _____    ______ ____
ROOT
ATOM      1  C   UNL     1      43.924   4.939  11.411  0.00  0.00    +0.000 C 
ATOM      2  C   UNL     1      42.656   5.258  12.190  0.00  0.00    +0.000 C 
ATOM      3  C   UNL     1      43.034   6.097  11.013  0.00  0.00    +0.000 C 
ENDROOT
BRANCH   1   4
ATOM      4  C   UNL     1      45.271   5.196  12.071  0.00  0.00    +0.000 A 
ATOM      5  C   UNL     1      46.126   6.211  11.616  0.00  0.00    +0.000 A 
ATOM      6  C   UNL     1      47.306   6.522  12.295  0.00  0.00    +0.000 A 
ATOM      7  C   UNL     1      47.650   5.823  13.452  0.00  0.00    +0.000 A 
ATOM      8  C   UNL     1      46.840   4.789  13.945  0.00  0.00    +0.000 A 
ATOM      9  C   UNL     1      45.667   4.488  13.225  0.00  0.00    +0.000 A 
BRANCH   8  10
ATOM     10  C   UNL     1      47.163   4.108  15.210  0.00  0.00    +0.000 A 
ATOM     11  C   UNL     1      46.793   4.589  16.467  0.00  0.00    +0.000 A 
ATOM     12  N   UNL     1      47.156   4.000  17.635  0.00  0.00    +0.000 NA
ATOM     13  C   UNL     1      47.923   2.897  17.504  0.00  0.00    +0.000 A 
ATOM     14  C   UNL     1      48.285   2.393  16.268  0.00  0.00    +0.000 A 
ATOM     15  N   UNL     1      47.908   2.973  15.106  0.00  0.00    +0.000 NA
ENDBRANCH   8  10
ENDBRANCH   1   4
BRANCH   1  16
ATOM     16  O   UNL     1      43.769   3.691  10.693  0.00  0.00    +0.000 OA
BRANCH  16  20
ATOM     17  C   UNL     1      46.378   2.723   7.659  0.00  0.00    +0.000 A 
ATOM     18  C   UNL     1      45.864   1.728   8.488  0.00  0.00    +0.000 A 
ATOM     19  C   UNL     1      44.988   2.086   9.509  0.00  0.00    +0.000 A 
ATOM     20  C   UNL     1      44.654   3.426   9.664  0.00  0.00    +0.000 A 
ATOM     21  N   UNL     1      45.120   4.413   8.872  0.00  0.00    +0.000 NA
ATOM     22  C   UNL     1      45.993   4.040   7.900  0.00  0.00    +0.000 A 
BRANCH  17  24
ATOM     23  N   UNL     1      47.192   3.151   5.405  0.00  0.00    +0.000 N 
ATOM     24  C   UNL     1      47.330   2.438   6.564  0.00  0.00    +0.000 C 
ATOM     25  O   UNL     1      48.228   1.621   6.698  0.00  0.00    +0.000 OA
ATOM     26  H   UNL     1      47.899   3.000   4.698  0.00  0.00    +0.000 HD
ATOM     27  H   UNL     1      46.635   3.990   5.337  0.00  0.00    +0.000 HD
ENDBRANCH  17  24
ENDBRANCH  16  20
ENDBRANCH   1  16
TORSDOF 5
ENDMDL
MODEL 2
REMARK VINA RESULT:    -8.604      1.924      3.199
REMARK INTER + INTRA:         -11.750
REMARK INTER:                 -10.790
REMARK INTRA:                  -0.960
REMARK UNBOUND:                -0.631
REMARK  Name = 
REMARK  5 active torsions:
REMARK  status: ('A' for Active; 'I' for Inactive)
REMARK    1  A    between atoms: C_2  and  C_4
REMARK    2  A    between atoms: C_7  and  O_8
REMARK    3  A    between atoms: O_8  and  C_9
REMARK    4  A    between atoms: C_9  and  C_10
REMARK    5  A    between atoms: C_14  and  C_15
REMARK                            x       y       z     vdW  Elec       q    Type
REMARK                         _______ _______ _______ _____ _____    ______ ____
ROOT
ATOM      1  C   UNL     1      43.716   4.825  11.266  0.00  0.00    +0.000 C 
ATOM      2  C   UNL     1      42.417   5.275  11.919  0.00  0.00    +0.000 C 
ATOM      3  C   UNL     1      43.101   6.168  10.936  0.00  0.00    +0.000 C 
ENDROOT
BRANCH   1   4
ATOM      4  C   UNL     1      44.973   4.744  12.121  0.00  0.00    +0.000 A 
ATOM      5  C   UNL     1      45.321   3.565  12.796  0.00  0.00    +0.000 A 
ATOM      6  C   UNL     1      46.531   3.455  13.483  0.00  0.00    +0.000 A 
ATOM      7  C   UNL     1      47.424   4.528  13.500  0.00  0.00    +0.000 A 
ATOM      8  C   UNL     1      47.121   5.736  12.854  0.00  0.00    +0.000 A 
ATOM      9  C   UNL     1      45.883   5.819  12.187  0.00  0.00    +0.000 A 
BRANCH   8  10
ATOM     10  C   UNL     1      48.099   6.836  12.804  0.00  0.00    +0.000 A 
ATOM     11  C   UNL     1      48.070   7.857  11.853  0.00  0.00    +0.000 A 
ATOM     12  N   UNL     1      49.016   8.828  11.763  0.00  0.00    +0.000 NA
ATOM     13  C   UNL     1      50.013   8.739  12.669  0.00  0.00    +0.000 A 
ATOM     14  C   UNL     1      50.049   7.748  13.631  0.00  0.00    +0.000 A 
ATOM     15  N   UNL     1      49.098   6.791  13.729  0.00  0.00    +0.000 NA
ENDBRANCH   8  10
ENDBRANCH   1   4
BRANCH   1  16
ATOM     16  O   UNL     1      43.464   3.726  10.357  0.00  0.00    +0.000 OA
BRANCH  16  20
ATOM     17  C   UNL     1      46.343   2.645   7.619  0.00  0.00    +0.000 A 
ATOM     18  C   UNL     1      45.723   1.676   8.408  0.00  0.00    +0.000 A 
ATOM     19  C   UNL     1      44.757   2.073   9.328  0.00  0.00    +0.000 A 
ATOM     20  C   UNL     1      44.442   3.422   9.427  0.00  0.00    +0.000 A 
ATOM     21  N   UNL     1      45.010   4.384   8.673  0.00  0.00    +0.000 NA
ATOM     22  C   UNL     1      45.968   3.974   7.800  0.00  0.00    +0.000 A 
BRANCH  17  24
ATOM     23  N   UNL     1      47.366   2.983   5.437  0.00  0.00    +0.000 N 
ATOM     24  C   UNL     1      47.394   2.318   6.632  0.00  0.00    +0.000 C 
ATOM     25  O   UNL     1      48.275   1.510   6.883  0.00  0.00    +0.000 OA
ATOM     26  H   UNL     1      48.137   2.806   4.807  0.00  0.00    +0.000 HD
ATOM     27  H   UNL     1      46.819   3.817   5.283  0.00  0.00    +0.000 HD
ENDBRANCH  17  24
ENDBRANCH  16  20
ENDBRANCH   1  16
TORSDOF 5
ENDMDL
MODEL 3
REMARK VINA RESULT:    -7.634      1.911      2.615
REMARK INTER + INTRA:         -10.496
REMARK INTER:                 -10.883
REMARK INTRA:                   0.387
REMARK UNBOUND:                -0.631
REMARK  Name = 
REMARK  5 active torsions:
REMARK  status: ('A' for Active; 'I' for Inactive)
REMARK    1  A    between atoms: C_2  and  C_4
REMARK    2  A    between atoms: C_7  and  O_8
REMARK    3  A    between atoms: O_8  and  C_9
REMARK    4  A    between atoms: C_9  and  C_10
REMARK    5  A    between atoms: C_14  and  C_15
REMARK                            x       y       z     vdW  Elec       q    Type
REMARK                         _______ _______ _______ _____ _____    ______ ____
ROOT
ATOM      1  C   UNL     1      44.242   4.577  11.621  0.00  0.00    +0.000 C 
ATOM      2  C   UNL     1      44.720   3.293  12.282  0.00  0.00    +0.000 C 
ATOM      3  C   UNL     1      43.471   3.955  12.766  0.00  0.00    +0.000 C 
ENDROOT
BRANCH   1   4
ATOM      4  C   UNL     1      45.044   5.852  11.837  0.00  0.00    +0.000 A 
ATOM      5  C   UNL     1      44.569   7.097  11.399  0.00  0.00    +0.000 A 
ATOM      6  C   UNL     1      45.250   8.278  11.700  0.00  0.00    +0.000 A 
ATOM      7  C   UNL     1      46.421   8.235  12.456  0.00  0.00    +0.000 A 
ATOM      8  C   UNL     1      46.950   7.017  12.909  0.00  0.00    +0.000 A 
ATOM      9  C   UNL     1      46.249   5.842  12.570  0.00  0.00    +0.000 A 
BRANCH   8  10
ATOM     10  C   UNL     1      48.140   6.980  13.775  0.00  0.00    +0.000 A 
ATOM     11  C   UNL     1      48.254   6.167  14.904  0.00  0.00    +0.000 A 
ATOM     12  N   UNL     1      49.322   6.191  15.743  0.00  0.00    +0.000 NA
ATOM     13  C   UNL     1      50.287   7.075  15.415  0.00  0.00    +0.000 A 
ATOM     14  C   UNL     1      50.202   7.876  14.291  0.00  0.00    +0.000 A 
ATOM     15  N   UNL     1      49.145   7.839  13.447  0.00  0.00    +0.000 NA
ENDBRANCH   8  10
ENDBRANCH   1   4
BRANCH   1  16
ATOM     16  O   UNL     1      43.785   4.306  10.274  0.00  0.00    +0.000 OA
BRANCH  16  20
ATOM     17  C   UNL     1      46.507   2.826   7.562  0.00  0.00    +0.000 A 
ATOM     18  C   UNL     1      45.740   1.956   8.335  0.00  0.00    +0.000 A 
ATOM     19  C   UNL     1      44.831   2.485   9.246  0.00  0.00    +0.000 A 
ATOM     20  C   UNL     1      44.718   3.866   9.353  0.00  0.00    +0.000 A 
ATOM     21  N   UNL     1      45.433   4.738   8.613  0.00  0.00    +0.000 NA
ATOM     22  C   UNL     1      46.330   4.196   7.748  0.00  0.00    +0.000 A 
BRANCH  17  24
ATOM     23  N   UNL     1      47.545   2.972   5.365  0.00  0.00    +0.000 N 
ATOM     24  C   UNL     1      47.510   2.354   6.585  0.00  0.00    +0.000 C 
ATOM     25  O   UNL     1      48.303   1.466   6.864  0.00  0.00    +0.000 OA
ATOM     26  H   UNL     1      48.288   2.691   4.740  0.00  0.00    +0.000 HD
ATOM     27  H   UNL     1      47.088   3.853   5.181  0.00  0.00    +0.000 HD
ENDBRANCH  17  24
ENDBRANCH  16  20
ENDBRANCH   1  16
TORSDOF 5
ENDMDL
MODEL 4
REMARK VINA RESULT:    -7.468      2.644      7.472
REMARK INTER + INTRA:         -10.281
REMARK INTER:                  -9.603
REMARK INTRA:                  -0.678
REMARK UNBOUND:                -0.631
REMARK  Name = 
REMARK  5 active torsions:
REMARK  status: ('A' for Active; 'I' for Inactive)
REMARK    1  A    between atoms: C_2  and  C_4
REMARK    2  A    between atoms: C_7  and  O_8
REMARK    3  A    between atoms: O_8  and  C_9
REMARK    4  A    between atoms: C_9  and  C_10
REMARK    5  A    between atoms: C_14  and  C_15
REMARK                            x       y       z     vdW  Elec       q    Type
REMARK                         _______ _______ _______ _____ _____    ______ ____
ROOT
ATOM      1  C   UNL     1      46.449   7.291  12.475  0.00  0.00    +0.000 C 
ATOM      2  C   UNL     1      46.626   8.702  11.934  0.00  0.00    +0.000 C 
ATOM      3  C   UNL     1      45.948   8.492  13.248  0.00  0.00    +0.000 C 
ENDROOT
BRANCH   1   4
ATOM      4  C   UNL     1      45.467   6.360  11.779  0.00  0.00    +0.000 A 
ATOM      5  C   UNL     1      44.083   6.478  11.976  0.00  0.00    +0.000 A 
ATOM      6  C   UNL     1      43.179   5.701  11.249  0.00  0.00    +0.000 A 
ATOM      7  C   UNL     1      43.647   4.792  10.299  0.00  0.00    +0.000 A 
ATOM      8  C   UNL     1      45.021   4.622  10.070  0.00  0.00    +0.000 A 
ATOM      9  C   UNL     1      45.905   5.408  10.835  0.00  0.00    +0.000 A 
BRANCH   8  10
ATOM     10  C   UNL     1      45.508   3.723   9.010  0.00  0.00    +0.000 A 
ATOM     11  C   UNL     1      45.491   2.331   9.106  0.00  0.00    +0.000 A 
ATOM     12  N   UNL     1      46.010   1.505   8.160  0.00  0.00    +0.000 NA
ATOM     13  C   UNL     1      46.563   2.129   7.099  0.00  0.00    +0.000 A 
ATOM     14  C   UNL     1      46.572   3.507   6.976  0.00  0.00    +0.000 A 
ATOM     15  N   UNL     1      46.040   4.326   7.912  0.00  0.00    +0.000 NA
ENDBRANCH   8  10
ENDBRANCH   1   4
BRANCH   1  16
ATOM     16  O   UNL     1      47.732   6.734  12.850  0.00  0.00    +0.000 OA
BRANCH  16  20
ATOM     17  C   UNL     1      47.886   4.644  16.394  0.00  0.00    +0.000 A 
ATOM     18  C   UNL     1      47.051   4.219  15.362  0.00  0.00    +0.000 A 
ATOM     19  C   UNL     1      47.017   4.948  14.178  0.00  0.00    +0.000 A 
ATOM     20  C   UNL     1      47.820   6.076  14.063  0.00  0.00    +0.000 A 
ATOM     21  N   UNL     1      48.650   6.509  15.034  0.00  0.00    +0.000 NA
ATOM     22  C   UNL     1      48.646   5.794  16.189  0.00  0.00    +0.000 A 
BRANCH  17  24
ATOM     23  N   UNL     1      47.146   2.871  17.888  0.00  0.00    +0.000 N 
ATOM     24  C   UNL     1      47.972   3.944  17.693  0.00  0.00    +0.000 C 
ATOM     25  O   UNL     1      48.771   4.288  18.551  0.00  0.00    +0.000 OA
ATOM     26  H   UNL     1      47.274   2.357  18.749  0.00  0.00    +0.000 HD
ATOM     27  H   UNL     1      46.657   2.408  17.136  0.00  0.00    +0.000 HD
ENDBRANCH  17  24
ENDBRANCH  16  20
ENDBRANCH   1  16
TORSDOF 5
ENDMDL
MODEL 5
REMARK VINA RESULT:    -6.703      3.028      4.590
REMARK INTER + INTRA:          -9.292
REMARK INTER:                  -8.902
REMARK INTRA:                  -0.390
REMARK UNBOUND:                -0.631
REMARK  Name = 
REMARK  5 active torsions:
REMARK  status: ('A' for Active; 'I' for Inactive)
REMARK    1  A    between atoms: C_2  and  C_4
REMARK    2  A    between atoms: C_7  and  O_8
REMARK    3  A    between atoms: O_8  and  C_9
REMARK    4  A    between atoms: C_9  and  C_10
REMARK    5  A    between atoms: C_14  and  C_15
REMARK                            x       y       z     vdW  Elec       q    Type
REMARK                         _______ _______ _______ _____ _____    ______ ____
ROOT
ATOM      1  C   UNL     1      47.945   8.073  12.580  0.00  0.00    +0.000 C 
ATOM      2  C   UNL     1      48.662   9.164  11.799  0.00  0.00    +0.000 C 
ATOM      3  C   UNL     1      48.906   7.730  11.462  0.00  0.00    +0.000 C 
ENDROOT
BRANCH   1   4
ATOM      4  C   UNL     1      48.338   7.835  14.031  0.00  0.00    +0.000 A 
ATOM      5  C   UNL     1      48.670   8.899  14.882  0.00  0.00    +0.000 A 
ATOM      6  C   UNL     1      48.916   8.691  16.240  0.00  0.00    +0.000 A 
ATOM      7  C   UNL     1      48.826   7.406  16.776  0.00  0.00    +0.000 A 
ATOM      8  C   UNL     1      48.511   6.302  15.970  0.00  0.00    +0.000 A 
ATOM      9  C   UNL     1      48.288   6.545  14.600  0.00  0.00    +0.000 A 
BRANCH   8  10
ATOM     10  C   UNL     1      48.336   4.961  16.553  0.00  0.00    +0.000 A 
ATOM     11  C   UNL     1      47.098   4.333  16.698  0.00  0.00    +0.000 A 
ATOM     12  N   UNL     1      46.931   3.129  17.304  0.00  0.00    +0.000 NA
ATOM     13  C   UNL     1      48.063   2.566  17.775  0.00  0.00    +0.000 A 
ATOM     14  C   UNL     1      49.302   3.162  17.624  0.00  0.00    +0.000 A 
ATOM     15  N   UNL     1      49.467   4.354  17.006  0.00  0.00    +0.000 NA
ENDBRANCH   8  10
ENDBRANCH   1   4
BRANCH   1  16
ATOM     16  O   UNL     1      46.530   8.087  12.274  0.00  0.00    +0.000 OA
BRANCH  16  20
ATOM     17  C   UNL     1      44.707   4.456  11.605  0.00  0.00    +0.000 A 
ATOM     18  C   UNL     1      45.356   5.119  10.565  0.00  0.00    +0.000 A 
ATOM     19  C   UNL     1      45.959   6.347  10.820  0.00  0.00    +0.000 A 
ATOM     20  C   UNL     1      45.895   6.869  12.106  0.00  0.00    +0.000 A 
ATOM     21  N   UNL     1      45.289   6.250  13.140  0.00  0.00    +0.000 NA
ATOM     22  C   UNL     1      44.687   5.065  12.858  0.00  0.00    +0.000 A 
BRANCH  17  24
ATOM     23  N   UNL     1      43.710   2.444  12.545  0.00  0.00    +0.000 N 
ATOM     24  C   UNL     1      44.022   3.159  11.422  0.00  0.00    +0.000 C 
ATOM     25  O   UNL     1      43.714   2.753  10.311  0.00  0.00    +0.000 OA
ATOM     26  H   UNL     1      43.172   1.599  12.405  0.00  0.00    +0.000 HD
ATOM     27  H   UNL     1      43.721   2.842  13.473  0.00  0.00    +0.000 HD
ENDBRANCH  17  24
ENDBRANCH  16  20
ENDBRANCH   1  16
TORSDOF 5
ENDMDL
MODEL 6
REMARK VINA RESULT:    -6.702      3.221      8.020
REMARK INTER + INTRA:          -9.292
REMARK INTER:                  -8.445
REMARK INTRA:                  -0.847
REMARK UNBOUND:                -0.631
REMARK  Name = 
REMARK  5 active torsions:
REMARK  status: ('A' for Active; 'I' for Inactive)
REMARK    1  A    between atoms: C_2  and  C_4
REMARK    2  A    between atoms: C_7  and  O_8
REMARK    3  A    between atoms: O_8  and  C_9
REMARK    4  A    between atoms: C_9  and  C_10
REMARK    5  A    between atoms: C_14  and  C_15
REMARK                            x       y       z     vdW  Elec       q    Type
REMARK                         _______ _______ _______ _____ _____    ______ ____
ROOT
ATOM      1  C   UNL     1      48.691   7.749  12.576  0.00  0.00    +0.000 C 
ATOM      2  C   UNL     1      49.589   8.304  11.480  0.00  0.00    +0.000 C 
ATOM      3  C   UNL     1      49.226   9.164  12.646  0.00  0.00    +0.000 C 
ENDROOT
BRANCH   1   4
ATOM      4  C   UNL     1      47.224   7.496  12.260  0.00  0.00    +0.000 A 
ATOM      5  C   UNL     1      46.235   8.436  12.583  0.00  0.00    +0.000 A 
ATOM      6  C   UNL     1      44.908   8.254  12.189  0.00  0.00    +0.000 A 
ATOM      7  C   UNL     1      44.547   7.125  11.453  0.00  0.00    +0.000 A 
ATOM      8  C   UNL     1      45.492   6.145  11.114  0.00  0.00    +0.000 A 
ATOM      9  C   UNL     1      46.818   6.350  11.545  0.00  0.00    +0.000 A 
BRANCH   8  10
ATOM     10  C   UNL     1      45.125   4.996  10.269  0.00  0.00    +0.000 A 
ATOM     11  C   UNL     1      44.351   3.923  10.711  0.00  0.00    +0.000 A 
ATOM     12  N   UNL     1      44.077   2.830   9.953  0.00  0.00    +0.000 NA
ATOM     13  C   UNL     1      44.619   2.842   8.717  0.00  0.00    +0.000 A 
ATOM     14  C   UNL     1      45.372   3.905   8.252  0.00  0.00    +0.000 A 
ATOM     15  N   UNL     1      45.630   5.000   9.004  0.00  0.00    +0.000 NA
ENDBRANCH   8  10
ENDBRANCH   1   4
BRANCH   1  16
ATOM     16  O   UNL     1      49.391   6.725  13.324  0.00  0.00    +0.000 OA
BRANCH  16  20
ATOM     17  C   UNL     1      48.283   6.210  17.256  0.00  0.00    +0.000 A 
ATOM     18  C   UNL     1      49.057   7.308  16.881  0.00  0.00    +0.000 A 
ATOM     19  C   UNL     1      49.420   7.453  15.546  0.00  0.00    +0.000 A 
ATOM     20  C   UNL     1      48.996   6.498  14.630  0.00  0.00    +0.000 A 
ATOM     21  N   UNL     1      48.235   5.432  14.953  0.00  0.00    +0.000 NA
ATOM     22  C   UNL     1      47.915   5.300  16.267  0.00  0.00    +0.000 A 
BRANCH  17  24
ATOM     23  N   UNL     1      46.604   5.488  18.864  0.00  0.00    +0.000 N 
ATOM     24  C   UNL     1      47.869   5.965  18.654  0.00  0.00    +0.000 C 
ATOM     25  O   UNL     1      48.635   6.149  19.587  0.00  0.00    +0.000 OA
ATOM     26  H   UNL     1      46.366   5.250  19.817  0.00  0.00    +0.000 HD
ATOM     27  H   UNL     1      46.034   5.095  18.128  0.00  0.00    +0.000 HD
ENDBRANCH  17  24
ENDBRANCH  16  20
ENDBRANCH   1  16
TORSDOF 5
ENDMDL
MODEL 7
REMARK VINA RESULT:    -6.192      4.069      8.306
REMARK INTER + INTRA:          -8.633
REMARK INTER:                  -8.527
REMARK INTRA:                  -0.105
REMARK UNBOUND:                -0.631
REMARK  Name = 
REMARK  5 active torsions:
REMARK  status: ('A' for Active; 'I' for Inactive)
REMARK    1  A    between atoms: C_2  and  C_4
REMARK    2  A    between atoms: C_7  and  O_8
REMARK    3  A    between atoms: O_8  and  C_9
REMARK    4  A    between atoms: C_9  and  C_10
REMARK    5  A    between atoms: C_14  and  C_15
REMARK                            x       y       z     vdW  Elec       q    Type
REMARK                         _______ _______ _______ _____ _____    ______ ____
ROOT
ATOM      1  C   UNL     1      48.232   4.848  17.047  0.00  0.00    +0.000 C 
ATOM      2  C   UNL     1      47.135   5.026  18.088  0.00  0.00    +0.000 C 
ATOM      3  C   UNL     1      47.351   3.688  17.459  0.00  0.00    +0.000 C 
ENDROOT
BRANCH   1   4
ATOM      4  C   UNL     1      48.058   5.500  15.684  0.00  0.00    +0.000 A 
ATOM      5  C   UNL     1      48.912   6.525  15.249  0.00  0.00    +0.000 A 
ATOM      6  C   UNL     1      48.824   7.040  13.955  0.00  0.00    +0.000 A 
ATOM      7  C   UNL     1      47.879   6.531  13.064  0.00  0.00    +0.000 A 
ATOM      8  C   UNL     1      46.990   5.516  13.448  0.00  0.00    +0.000 A 
ATOM      9  C   UNL     1      47.093   5.033  14.768  0.00  0.00    +0.000 A 
BRANCH   8  10
ATOM     10  C   UNL     1      46.049   4.925  12.482  0.00  0.00    +0.000 A 
ATOM     11  C   UNL     1      45.459   3.670  12.641  0.00  0.00    +0.000 A 
ATOM     12  N   UNL     1      44.651   3.095  11.713  0.00  0.00    +0.000 NA
ATOM     13  C   UNL     1      44.454   3.827  10.596  0.00  0.00    +0.000 A 
ATOM     14  C   UNL     1      45.013   5.080  10.427  0.00  0.00    +0.000 A 
ATOM     15  N   UNL     1      45.804   5.657  11.360  0.00  0.00    +0.000 NA
ENDBRANCH   8  10
ENDBRANCH   1   4
BRANCH   1  16
ATOM     16  O   UNL     1      49.534   4.961  17.671  0.00  0.00    +0.000 OA
BRANCH  16  20
ATOM     17  C   UNL     1      52.125   1.761  17.659  0.00  0.00    +0.000 A 
ATOM     18  C   UNL     1      52.481   2.952  18.290  0.00  0.00    +0.000 A 
ATOM     19  C   UNL     1      51.587   4.018  18.273  0.00  0.00    +0.000 A 
ATOM     20  C   UNL     1      50.366   3.857  17.629  0.00  0.00    +0.000 A 
ATOM     21  N   UNL     1      49.982   2.716  17.022  0.00  0.00    +0.000 NA
ATOM     22  C   UNL     1      50.883   1.699  17.031  0.00  0.00    +0.000 A 
BRANCH  17  24
ATOM     23  N   UNL     1      52.723  -0.471  18.427  0.00  0.00    +0.000 N 
ATOM     24  C   UNL     1      53.019   0.585  17.609  0.00  0.00    +0.000 C 
ATOM     25  O   UNL     1      53.970   0.540  16.843  0.00  0.00    +0.000 OA
ATOM     26  H   UNL     1      53.297  -1.296  18.321  0.00  0.00    +0.000 HD
ATOM     27  H   UNL     1      51.829  -0.579  18.884  0.00  0.00    +0.000 HD
ENDBRANCH  17  24
ENDBRANCH  16  20
ENDBRANCH   1  16
TORSDOF 5
ENDMDL
MODEL 8
REMARK VINA RESULT:    -6.076      3.897      6.553
REMARK INTER + INTRA:          -8.483
REMARK INTER:                  -8.104
REMARK INTRA:                  -0.379
REMARK UNBOUND:                -0.631
REMARK  Name = 
REMARK  5 active torsions:
REMARK  status: ('A' for Active; 'I' for Inactive)
REMARK    1  A    between atoms: C_2  and  C_4
REMARK    2  A    between atoms: C_7  and  O_8
REMARK    3  A    between atoms: O_8  and  C_9
REMARK    4  A    between atoms: C_9  and  C_10
REMARK    5  A    between atoms: C_14  and  C_15
REMARK                            x       y       z     vdW  Elec       q    Type
REMARK                         _______ _______ _______ _____ _____    ______ ____
ROOT
ATOM      1  C   UNL     1      48.047   3.618  16.606  0.00  0.00    +0.000 C 
ATOM      2  C   UNL     1      47.189   2.870  17.616  0.00  0.00    +0.000 C 
ATOM      3  C   UNL     1      46.855   4.282  17.262  0.00  0.00    +0.000 C 
ENDROOT
BRANCH   1   4
ATOM      4  C   UNL     1      49.462   4.014  17.000  0.00  0.00    +0.000 A 
ATOM      5  C   UNL     1      49.817   5.357  17.198  0.00  0.00    +0.000 A 
ATOM      6  C   UNL     1      51.081   5.709  17.673  0.00  0.00    +0.000 A 
ATOM      7  C   UNL     1      52.017   4.717  17.967  0.00  0.00    +0.000 A 
ATOM      8  C   UNL     1      51.723   3.359  17.775  0.00  0.00    +0.000 A 
ATOM      9  C   UNL     1      50.444   3.040  17.276  0.00  0.00    +0.000 A 
BRANCH   8  10
ATOM     10  C   UNL     1      52.682   2.311  18.163  0.00  0.00    +0.000 A 
ATOM     11  C   UNL     1      53.661   2.480  19.142  0.00  0.00    +0.000 A 
ATOM     12  N   UNL     1      54.593   1.539  19.445  0.00  0.00    +0.000 NA
ATOM     13  C   UNL     1      54.515   0.404  18.719  0.00  0.00    +0.000 A 
ATOM     14  C   UNL     1      53.540   0.209  17.758  0.00  0.00    +0.000 A 
ATOM     15  N   UNL     1      52.604   1.143  17.469  0.00  0.00    +0.000 NA
ENDBRANCH   8  10
ENDBRANCH   1   4
BRANCH   1  16
ATOM     16  O   UNL     1      47.863   3.058  15.283  0.00  0.00    +0.000 OA
BRANCH  16  20
ATOM     17  C   UNL     1      45.997   5.481  12.526  0.00  0.00    +0.000 A 
ATOM     18  C   UNL     1      46.991   5.996  13.356  0.00  0.00    +0.000 A 
ATOM     19  C   UNL     1      47.601   5.154  14.281  0.00  0.00    +0.000 A 
ATOM     20  C   UNL     1      47.198   3.826  14.344  0.00  0.00    +0.000 A 
ATOM     21  N   UNL     1      46.250   3.290  13.549  0.00  0.00    +0.000 NA
ATOM     22  C   UNL     1      45.653   4.138  12.672  0.00  0.00    +0.000 A 
BRANCH  17  24
ATOM     23  N   UNL     1      45.349   5.916  10.221  0.00  0.00    +0.000 N 
ATOM     24  C   UNL     1      45.281   6.306  11.530  0.00  0.00    +0.000 C 
ATOM     25  O   UNL     1      44.625   7.281  11.864  0.00  0.00    +0.000 OA
ATOM     26  H   UNL     1      44.789   6.445   9.565  0.00  0.00    +0.000 HD
ATOM     27  H   UNL     1      45.665   5.001   9.934  0.00  0.00    +0.000 HD
ENDBRANCH  17  24
ENDBRANCH  16  20
ENDBRANCH   1  16
TORSDOF 5
ENDMDL
