MODEL 1
REMARK VINA RESULT:    -7.065      0.000      0.000
REMARK INTER + INTRA:          -9.987
REMARK INTER:                  -9.131
REMARK INTRA:                  -0.856
REMARK UNBOUND:                -0.856
REMARK  Name = 
REMARK  5 active torsions:
REMARK  status: ('A' for Active; 'I' for Inactive)
REMARK    1  A    between atoms: C_2  and  C_3
REMARK    2  A    between atoms: C_5  and  C_6
REMARK    3  A    between atoms: C_12  and  N_13
REMARK    4  A    between atoms: N_13  and  C_14
REMARK    5  A    between atoms: C_14  and  C_15
REMARK                            x       y       z     vdW  Elec       q    Type
REMARK                         _______ _______ _______ _____ _____    ______ ____
ROOT
ATOM      1  C   UNL     1      44.649   3.073   9.825  0.00  0.00    +0.000 A 
ATOM      2  C   UNL     1      45.335   2.141   9.037  0.00  0.00    +0.000 A 
ATOM      3  C   UNL     1      46.176   2.579   8.013  0.00  0.00    +0.000 A 
ATOM      4  C   UNL     1      46.271   3.947   7.820  0.00  0.00    +0.000 A 
ATOM      5  N   UNL     1      45.600   4.863   8.555  0.00  0.00    +0.000 NA
ATOM      6  C   UNL     1      44.795   4.442   9.558  0.00  0.00    +0.000 A 
ENDROOT
BRANCH   3   7
ATOM      7  C   UNL     1      46.968   1.641   7.155  0.00  0.00    +0.000 C 
ATOM      8  F   UNL     1      46.773   0.331   7.468  0.00  0.00    +0.000 F 
ATOM      9  F   UNL     1      46.666   1.759   5.834  0.00  0.00    +0.000 F 
ATOM     10  F   UNL     1      48.307   1.855   7.256  0.00  0.00    +0.000 F 
ENDBRANCH   3   7
BRANCH   1  12
ATOM     11  N   UNL     1      43.088   2.252  11.728  0.00  0.00    +0.000 NA
ATOM     12  C   UNL     1      43.792   2.594  10.873  0.00  0.00    +0.000 C 
ENDBRANCH   1  12
BRANCH   6  13
ATOM     13  N   UNL     1      44.043   5.382  10.288  0.00  0.00    +0.000 N 
ATOM     14  H   UNL     1      43.227   4.952  10.724  0.00  0.00    +0.000 HD
BRANCH  13  15
ATOM     15  C   UNL     1      44.696   6.389  11.179  0.00  0.00    +0.000 C 
ATOM     16  C   UNL     1      43.751   7.528  11.566  0.00  0.00    +0.000 C 
ATOM     17  C   UNL     1      44.966   7.826  10.756  0.00  0.00    +0.000 C 
BRANCH  15  18
ATOM     18  C   UNL     1      45.617   5.793  12.274  0.00  0.00    +0.000 A 
ATOM     19  N   UNL     1      45.123   4.858  13.119  0.00  0.00    +0.000 NA
ATOM     20  C   UNL     1      45.948   4.357  14.054  0.00  0.00    +0.000 A 
ATOM     21  C   UNL     1      47.257   4.742  14.191  0.00  0.00    +0.000 A 
ATOM     22  C   UNL     1      47.683   5.692  13.299  0.00  0.00    +0.000 A 
ATOM     23  N   UNL     1      46.897   6.236  12.347  0.00  0.00    +0.000 NA
ENDBRANCH  15  18
ENDBRANCH  13  15
ENDBRANCH   6  13
TORSDOF 5
ENDMDL
MODEL 2
REMARK VINA RESULT:    -6.782      1.267      2.724
REMARK INTER + INTRA:          -9.621
REMARK INTER:                 -10.025
REMARK INTRA:                   0.404
REMARK UNBOUND:                -0.856
REMARK  Name = 
REMARK  5 active torsions:
REMARK  status: ('A' for Active; 'I' for Inactive)
REMARK    1  A    between atoms: C_2  and  C_3
REMARK    2  A    between atoms: C_5  and  C_6
REMARK    3  A    between atoms: C_12  and  N_13
REMARK    4  A    between atoms: N_13  and  C_14
REMARK    5  A    between atoms: C_14  and  C_15
REMARK                            x       y       z     vdW  Elec       q    Type
REMARK                         _______ _______ _______ _____ _____    ______ ____
ROOT
ATOM      1  C   UNL     1      44.659   3.165   9.805  0.00  0.00    +0.000 A 
ATOM      2  C   UNL     1      45.297   2.266   8.942  0.00  0.00    +0.000 A 
ATOM      3  C   UNL     1      46.161   2.740   7.955  0.00  0.00    +0.000 A 
ATOM      4  C   UNL     1      46.328   4.112   7.872  0.00  0.00    +0.000 A 
ATOM      5  N   UNL     1      45.705   5.000   8.681  0.00  0.00    +0.000 NA
ATOM      6  C   UNL     1      44.877   4.542   9.649  0.00  0.00    +0.000 A 
ENDROOT
BRANCH   3   7
ATOM      7  C   UNL     1      46.903   1.835   7.021  0.00  0.00    +0.000 C 
ATOM      8  F   UNL     1      46.650   0.515   7.236  0.00  0.00    +0.000 F 
ATOM      9  F   UNL     1      46.600   2.065   5.716  0.00  0.00    +0.000 F 
ATOM     10  F   UNL     1      48.252   1.978   7.126  0.00  0.00    +0.000 F 
ENDBRANCH   3   7
BRANCH   1  12
ATOM     11  N   UNL     1      43.088   2.259  11.659  0.00  0.00    +0.000 NA
ATOM     12  C   UNL     1      43.777   2.649  10.813  0.00  0.00    +0.000 C 
ENDBRANCH   1  12
BRANCH   6  13
ATOM     13  N   UNL     1      44.175   5.458  10.456  0.00  0.00    +0.000 N 
ATOM     14  H   UNL     1      43.218   5.149  10.627  0.00  0.00    +0.000 HD
BRANCH  13  15
ATOM     15  C   UNL     1      44.797   6.077  11.666  0.00  0.00    +0.000 C 
ATOM     16  C   UNL     1      46.025   5.306  12.153  0.00  0.00    +0.000 C 
ATOM     17  C   UNL     1      44.823   5.401  13.028  0.00  0.00    +0.000 C 
BRANCH  15  18
ATOM     18  C   UNL     1      44.862   7.626  11.647  0.00  0.00    +0.000 A 
ATOM     19  N   UNL     1      45.834   8.257  12.345  0.00  0.00    +0.000 NA
ATOM     20  C   UNL     1      45.866   9.601  12.304  0.00  0.00    +0.000 A 
ATOM     21  C   UNL     1      44.971  10.356  11.591  0.00  0.00    +0.000 A 
ATOM     22  C   UNL     1      44.017   9.644  10.910  0.00  0.00    +0.000 A 
ATOM     23  N   UNL     1      43.932   8.298  10.923  0.00  0.00    +0.000 NA
ENDBRANCH  15  18
ENDBRANCH  13  15
ENDBRANCH   6  13
TORSDOF 5
ENDMDL
MODEL 3
REMARK VINA RESULT:    -6.046      4.071      6.579
REMARK INTER + INTRA:          -8.669
REMARK INTER:                  -8.094
REMARK INTRA:                  -0.576
REMARK UNBOUND:                -0.856
REMARK  Name = 
REMARK  5 active torsions:
REMARK  status: ('A' for Active; 'I' for Inactive)
REMARK    1  A    between atoms: C_2  and  C_3
REMARK    2  A    between atoms: C_5  and  C_6
REMARK    3  A    between atoms: C_12  and  N_13
REMARK    4  A    between atoms: N_13  and  C_14
REMARK    5  A    between atoms: C_14  and  C_15
REMARK                            x       y       z     vdW  Elec       q    Type
REMARK                         _______ _______ _______ _____ _____    ______ ____
ROOT
ATOM      1  C   UNL     1      46.116   8.179  12.699  0.00  0.00    +0.000 A 
ATOM      2  C   UNL     1      47.165   8.358  13.609  0.00  0.00    +0.000 A 
ATOM      3  C   UNL     1      48.045   7.308  13.875  0.00  0.00    +0.000 A 
ATOM      4  C   UNL     1      47.811   6.111  13.217  0.00  0.00    +0.000 A 
ATOM      5  N   UNL     1      46.791   5.911  12.351  0.00  0.00    +0.000 NA
ATOM      6  C   UNL     1      45.945   6.933  12.081  0.00  0.00    +0.000 A 
ENDROOT
BRANCH   3   7
ATOM      7  C   UNL     1      49.208   7.437  14.808  0.00  0.00    +0.000 C 
ATOM      8  F   UNL     1      50.410   7.473  14.169  0.00  0.00    +0.000 F 
ATOM      9  F   UNL     1      49.152   8.569  15.561  0.00  0.00    +0.000 F 
ATOM     10  F   UNL     1      49.283   6.402  15.687  0.00  0.00    +0.000 F 
ENDBRANCH   3   7
BRANCH   1  12
ATOM     11  N   UNL     1      44.550  10.194  12.231  0.00  0.00    +0.000 NA
ATOM     12  C   UNL     1      45.229   9.278  12.444  0.00  0.00    +0.000 C 
ENDBRANCH   1  12
BRANCH   6  13
ATOM     13  N   UNL     1      44.843   6.718  11.231  0.00  0.00    +0.000 N 
ATOM     14  H   UNL     1      45.020   7.075  10.292  0.00  0.00    +0.000 HD
BRANCH  13  15
ATOM     15  C   UNL     1      44.106   5.418  11.214  0.00  0.00    +0.000 C 
ATOM     16  C   UNL     1      42.603   5.594  11.442  0.00  0.00    +0.000 C 
ATOM     17  C   UNL     1      43.413   4.836  12.438  0.00  0.00    +0.000 C 
BRANCH  15  18
ATOM     18  C   UNL     1      44.572   4.416  10.127  0.00  0.00    +0.000 A 
ATOM     19  N   UNL     1      44.286   3.101  10.271  0.00  0.00    +0.000 NA
ATOM     20  C   UNL     1      44.699   2.259   9.307  0.00  0.00    +0.000 A 
ATOM     21  C   UNL     1      45.387   2.665   8.194  0.00  0.00    +0.000 A 
ATOM     22  C   UNL     1      45.638   4.011   8.120  0.00  0.00    +0.000 A 
ATOM     23  N   UNL     1      45.256   4.900   9.060  0.00  0.00    +0.000 NA
ENDBRANCH  15  18
ENDBRANCH  13  15
ENDBRANCH   6  13
TORSDOF 5
ENDMDL
MODEL 4
REMARK VINA RESULT:    -6.040      2.358      4.050
REMARK INTER + INTRA:          -8.662
REMARK INTER:                  -8.124
REMARK INTRA:                  -0.537
REMARK UNBOUND:                -0.856
REMARK  Name = 
REMARK  5 active torsions:
REMARK  status: ('A' for Active; 'I' for Inactive)
REMARK    1  A    between atoms: C_2  and  C_3
REMARK    2  A    between atoms: C_5  and  C_6
REMARK    3  A    between atoms: C_12  and  N_13
REMARK    4  A    between atoms: N_13  and  C_14
REMARK    5  A    between atoms: C_14  and  C_15
REMARK                            x       y       z     vdW  Elec       q    Type
REMARK                         _______ _______ _______ _____ _____    ______ ____
ROOT
ATOM      1  C   UNL     1      45.139   5.537  11.397  0.00  0.00    +0.000 A 
ATOM      2  C   UNL     1      44.919   4.817  10.216  0.00  0.00    +0.000 A 
ATOM      3  C   UNL     1      45.013   3.425  10.220  0.00  0.00    +0.000 A 
ATOM      4  C   UNL     1      45.346   2.822  11.422  0.00  0.00    +0.000 A 
ATOM      5  N   UNL     1      45.585   3.500  12.568  0.00  0.00    +0.000 NA
ATOM      6  C   UNL     1      45.480   4.849  12.570  0.00  0.00    +0.000 A 
ENDROOT
BRANCH   3   7
ATOM      7  C   UNL     1      44.755   2.589   9.005  0.00  0.00    +0.000 C 
ATOM      8  F   UNL     1      44.113   3.265   8.013  0.00  0.00    +0.000 F 
ATOM      9  F   UNL     1      45.899   2.107   8.449  0.00  0.00    +0.000 F 
ATOM     10  F   UNL     1      43.982   1.505   9.279  0.00  0.00    +0.000 F 
ENDBRANCH   3   7
BRANCH   1  12
ATOM     11  N   UNL     1      44.975   8.126  11.375  0.00  0.00    +0.000 NA
ATOM     12  C   UNL     1      45.033   6.969  11.363  0.00  0.00    +0.000 C 
ENDBRANCH   1  12
BRANCH   6  13
ATOM     13  N   UNL     1      45.788   5.569  13.740  0.00  0.00    +0.000 N 
ATOM     14  H   UNL     1      45.201   5.280  14.523  0.00  0.00    +0.000 HD
BRANCH  13  15
ATOM     15  C   UNL     1      47.201   5.827  14.155  0.00  0.00    +0.000 C 
ATOM     16  C   UNL     1      47.601   7.294  13.988  0.00  0.00    +0.000 C 
ATOM     17  C   UNL     1      48.292   6.248  13.182  0.00  0.00    +0.000 C 
BRANCH  15  18
ATOM     18  C   UNL     1      47.650   5.085  15.439  0.00  0.00    +0.000 A 
ATOM     19  N   UNL     1      48.779   5.480  16.072  0.00  0.00    +0.000 NA
ATOM     20  C   UNL     1      49.139   4.818  17.186  0.00  0.00    +0.000 A 
ATOM     21  C   UNL     1      48.422   3.774  17.709  0.00  0.00    +0.000 A 
ATOM     22  C   UNL     1      47.291   3.434  17.012  0.00  0.00    +0.000 A 
ATOM     23  N   UNL     1      46.887   4.055  15.885  0.00  0.00    +0.000 NA
ENDBRANCH  15  18
ENDBRANCH  13  15
ENDBRANCH   6  13
TORSDOF 5
ENDMDL
MODEL 5
REMARK VINA RESULT:    -6.016      3.876      6.479
REMARK INTER + INTRA:          -8.630
REMARK INTER:                  -8.182
REMARK INTRA:                  -0.448
REMARK UNBOUND:                -0.856
REMARK  Name = 
REMARK  5 active torsions:
REMARK  status: ('A' for Active; 'I' for Inactive)
REMARK    1  A    between atoms: C_2  and  C_3
REMARK    2  A    between atoms: C_5  and  C_6
REMARK    3  A    between atoms: C_12  and  N_13
REMARK    4  A    between atoms: N_13  and  C_14
REMARK    5  A    between atoms: C_14  and  C_15
REMARK                            x       y       z     vdW  Elec       q    Type
REMARK                         _______ _______ _______ _____ _____    ______ ____
ROOT
ATOM      1  C   UNL     1      46.787   5.959  13.567  0.00  0.00    +0.000 A 
ATOM      2  C   UNL     1      47.330   5.534  14.786  0.00  0.00    +0.000 A 
ATOM      3  C   UNL     1      47.328   4.178  15.114  0.00  0.00    +0.000 A 
ATOM      4  C   UNL     1      46.757   3.310  14.198  0.00  0.00    +0.000 A 
ATOM      5  N   UNL     1      46.208   3.702  13.026  0.00  0.00    +0.000 NA
ATOM      6  C   UNL     1      46.221   5.016  12.698  0.00  0.00    +0.000 A 
ENDROOT
BRANCH   3   7
ATOM      7  C   UNL     1      47.922   3.648  16.382  0.00  0.00    +0.000 C 
ATOM      8  F   UNL     1      48.872   4.465  16.914  0.00  0.00    +0.000 F 
ATOM      9  F   UNL     1      46.995   3.467  17.361  0.00  0.00    +0.000 F 
ATOM     10  F   UNL     1      48.524   2.441  16.205  0.00  0.00    +0.000 F 
ENDBRANCH   3   7
BRANCH   1  12
ATOM     11  N   UNL     1      46.850   8.483  12.968  0.00  0.00    +0.000 NA
ATOM     12  C   UNL     1      46.804   7.360  13.255  0.00  0.00    +0.000 C 
ENDBRANCH   1  12
BRANCH   6  13
ATOM     13  N   UNL     1      45.596   5.443  11.511  0.00  0.00    +0.000 N 
ATOM     14  H   UNL     1      46.256   5.906  10.886  0.00  0.00    +0.000 HD
BRANCH  13  15
ATOM     15  C   UNL     1      44.632   4.571  10.773  0.00  0.00    +0.000 C 
ATOM     16  C   UNL     1      43.252   5.216  10.628  0.00  0.00    +0.000 C 
ATOM     17  C   UNL     1      43.396   3.961  11.418  0.00  0.00    +0.000 C 
BRANCH  15  18
ATOM     18  C   UNL     1      45.227   3.827   9.550  0.00  0.00    +0.000 A 
ATOM     19  N   UNL     1      45.231   2.474   9.535  0.00  0.00    +0.000 NA
ATOM     20  C   UNL     1      45.750   1.859   8.458  0.00  0.00    +0.000 A 
ATOM     21  C   UNL     1      46.268   2.530   7.382  0.00  0.00    +0.000 A 
ATOM     22  C   UNL     1      46.228   3.898   7.472  0.00  0.00    +0.000 A 
ATOM     23  N   UNL     1      45.729   4.568   8.531  0.00  0.00    +0.000 NA
ENDBRANCH  15  18
ENDBRANCH  13  15
ENDBRANCH   6  13
TORSDOF 5
ENDMDL
MODEL 6
REMARK VINA RESULT:    -5.854      3.501      5.775
REMARK INTER + INTRA:          -8.421
REMARK INTER:                  -8.328
REMARK INTRA:                  -0.092
REMARK UNBOUND:                -0.856
REMARK  Name = 
REMARK  5 active torsions:
REMARK  status: ('A' for Active; 'I' for Inactive)
REMARK    1  A    between atoms: C_2  and  C_3
REMARK    2  A    between atoms: C_5  and  C_6
REMARK    3  A    between atoms: C_12  and  N_13
REMARK    4  A    between atoms: N_13  and  C_14
REMARK    5  A    between atoms: C_14  and  C_15
REMARK                            x       y       z     vdW  Elec       q    Type
REMARK                         _______ _______ _______ _____ _____    ______ ____
ROOT
ATOM      1  C   UNL     1      47.118   5.635  13.078  0.00  0.00    +0.000 A 
ATOM      2  C   UNL     1      48.339   6.275  12.833  0.00  0.00    +0.000 A 
ATOM      3  C   UNL     1      48.358   7.542  12.250  0.00  0.00    +0.000 A 
ATOM      4  C   UNL     1      47.133   8.101  11.921  0.00  0.00    +0.000 A 
ATOM      5  N   UNL     1      45.944   7.491  12.129  0.00  0.00    +0.000 NA
ATOM      6  C   UNL     1      45.922   6.267  12.708  0.00  0.00    +0.000 A 
ENDROOT
BRANCH   3   7
ATOM      7  C   UNL     1      49.623   8.300  11.992  0.00  0.00    +0.000 C 
ATOM      8  F   UNL     1      50.288   8.641  13.130  0.00  0.00    +0.000 F 
ATOM      9  F   UNL     1      50.510   7.598  11.237  0.00  0.00    +0.000 F 
ATOM     10  F   UNL     1      49.401   9.465  11.326  0.00  0.00    +0.000 F 
ENDBRANCH   3   7
BRANCH   1  12
ATOM     11  N   UNL     1      47.171   3.267  14.136  0.00  0.00    +0.000 NA
ATOM     12  C   UNL     1      47.129   4.332  13.681  0.00  0.00    +0.000 C 
ENDBRANCH   1  12
BRANCH   6  13
ATOM     13  N   UNL     1      44.696   5.596  12.871  0.00  0.00    +0.000 N 
ATOM     14  H   UNL     1      44.204   5.912  13.707  0.00  0.00    +0.000 HD
BRANCH  13  15
ATOM     15  C   UNL     1      43.768   5.364  11.722  0.00  0.00    +0.000 C 
ATOM     16  C   UNL     1      42.969   6.615  11.353  0.00  0.00    +0.000 C 
ATOM     17  C   UNL     1      42.253   5.407  11.851  0.00  0.00    +0.000 C 
BRANCH  15  18
ATOM     18  C   UNL     1      44.352   4.500  10.575  0.00  0.00    +0.000 A 
ATOM     19  N   UNL     1      45.164   5.076   9.658  0.00  0.00    +0.000 NA
ATOM     20  C   UNL     1      45.659   4.299   8.679  0.00  0.00    +0.000 A 
ATOM     21  C   UNL     1      45.385   2.961   8.568  0.00  0.00    +0.000 A 
ATOM     22  C   UNL     1      44.556   2.450   9.534  0.00  0.00    +0.000 A 
ATOM     23  N   UNL     1      44.024   3.185  10.532  0.00  0.00    +0.000 NA
ENDBRANCH  15  18
ENDBRANCH  13  15
ENDBRANCH   6  13
TORSDOF 5
ENDMDL
MODEL 7
REMARK VINA RESULT:    -5.826      3.133      4.650
REMARK INTER + INTRA:          -8.385
REMARK INTER:                  -7.804
REMARK INTRA:                  -0.582
REMARK UNBOUND:                -0.856
REMARK  Name = 
REMARK  5 active torsions:
REMARK  status: ('A' for Active; 'I' for Inactive)
REMARK    1  A    between atoms: C_2  and  C_3
REMARK    2  A    between atoms: C_5  and  C_6
REMARK    3  A    between atoms: C_12  and  N_13
REMARK    4  A    between atoms: N_13  and  C_14
REMARK    5  A    between atoms: C_14  and  C_15
REMARK                            x       y       z     vdW  Elec       q    Type
REMARK                         _______ _______ _______ _____ _____    ______ ____
ROOT
ATOM      1  C   UNL     1      46.181   4.749  13.294  0.00  0.00    +0.000 A 
ATOM      2  C   UNL     1      45.588   3.759  12.501  0.00  0.00    +0.000 A 
ATOM      3  C   UNL     1      45.102   4.079  11.233  0.00  0.00    +0.000 A 
ATOM      4  C   UNL     1      45.221   5.399  10.829  0.00  0.00    +0.000 A 
ATOM      5  N   UNL     1      45.771   6.375  11.588  0.00  0.00    +0.000 NA
ATOM      6  C   UNL     1      46.256   6.064  12.813  0.00  0.00    +0.000 A 
ENDROOT
BRANCH   3   7
ATOM      7  C   UNL     1      44.489   3.066  10.317  0.00  0.00    +0.000 C 
ATOM      8  F   UNL     1      45.383   2.154   9.848  0.00  0.00    +0.000 F 
ATOM      9  F   UNL     1      43.502   2.347  10.916  0.00  0.00    +0.000 F 
ATOM     10  F   UNL     1      43.926   3.636   9.218  0.00  0.00    +0.000 F 
ENDBRANCH   3   7
BRANCH   1  12
ATOM     11  N   UNL     1      47.046   4.061  15.641  0.00  0.00    +0.000 NA
ATOM     12  C   UNL     1      46.674   4.390  14.593  0.00  0.00    +0.000 C 
ENDBRANCH   1  12
BRANCH   6  13
ATOM     13  N   UNL     1      46.771   7.083  13.636  0.00  0.00    +0.000 N 
ATOM     14  H   UNL     1      46.348   7.065  14.564  0.00  0.00    +0.000 HD
BRANCH  13  15
ATOM     15  C   UNL     1      48.234   7.388  13.686  0.00  0.00    +0.000 C 
ATOM     16  C   UNL     1      48.636   8.489  12.703  0.00  0.00    +0.000 C 
ATOM     17  C   UNL     1      49.183   7.114  12.529  0.00  0.00    +0.000 C 
BRANCH  15  18
ATOM     18  C   UNL     1      48.848   7.414  15.109  0.00  0.00    +0.000 A 
ATOM     19  N   UNL     1      48.467   8.379  15.978  0.00  0.00    +0.000 NA
ATOM     20  C   UNL     1      49.014   8.371  17.206  0.00  0.00    +0.000 A 
ATOM     21  C   UNL     1      49.929   7.437  17.619  0.00  0.00    +0.000 A 
ATOM     22  C   UNL     1      50.263   6.492  16.683  0.00  0.00    +0.000 A 
ATOM     23  N   UNL     1      49.753   6.457  15.434  0.00  0.00    +0.000 NA
ENDBRANCH  15  18
ENDBRANCH  13  15
ENDBRANCH   6  13
TORSDOF 5
ENDMDL
MODEL 8
REMARK VINA RESULT:    -5.481      3.202      5.114
REMARK INTER + INTRA:          -7.940
REMARK INTER:                  -7.405
REMARK INTRA:                  -0.535
REMARK UNBOUND:                -0.856
REMARK  Name = 
REMARK  5 active torsions:
REMARK  status: ('A' for Active; 'I' for Inactive)
REMARK    1  A    between atoms: C_2  and  C_3
REMARK    2  A    between atoms: C_5  and  C_6
REMARK    3  A    between atoms: C_12  and  N_13
REMARK    4  A    between atoms: N_13  and  C_14
REMARK    5  A    between atoms: C_14  and  C_15
REMARK                            x       y       z     vdW  Elec       q    Type
REMARK                         _______ _______ _______ _____ _____    ______ ____
ROOT
ATOM      1  C   UNL     1      45.462   6.816  12.134  0.00  0.00    +0.000 A 
ATOM      2  C   UNL     1      44.801   5.957  11.248  0.00  0.00    +0.000 A 
ATOM      3  C   UNL     1      44.894   4.575  11.416  0.00  0.00    +0.000 A 
ATOM      4  C   UNL     1      45.671   4.122  12.468  0.00  0.00    +0.000 A 
ATOM      5  N   UNL     1      46.336   4.933  13.323  0.00  0.00    +0.000 NA
ATOM      6  C   UNL     1      46.235   6.275  13.170  0.00  0.00    +0.000 A 
ENDROOT
BRANCH   3   7
ATOM      7  C   UNL     1      44.186   3.599  10.529  0.00  0.00    +0.000 C 
ATOM      8  F   UNL     1      44.960   2.539  10.169  0.00  0.00    +0.000 F 
ATOM      9  F   UNL     1      43.076   3.070  11.112  0.00  0.00    +0.000 F 
ATOM     10  F   UNL     1      43.766   4.167   9.366  0.00  0.00    +0.000 F 
ENDBRANCH   3   7
BRANCH   1  12
ATOM     11  N   UNL     1      45.293   9.384  11.804  0.00  0.00    +0.000 NA
ATOM     12  C   UNL     1      45.346   8.234  11.938  0.00  0.00    +0.000 C 
ENDBRANCH   1  12
BRANCH   6  13
ATOM     13  N   UNL     1      46.973   7.128  14.014  0.00  0.00    +0.000 N 
ATOM     14  H   UNL     1      46.654   7.066  14.981  0.00  0.00    +0.000 HD
BRANCH  13  15
ATOM     15  C   UNL     1      48.460   7.239  13.913  0.00  0.00    +0.000 C 
ATOM     16  C   UNL     1      48.908   8.582  13.333  0.00  0.00    +0.000 C 
ATOM     17  C   UNL     1      49.201   7.326  12.587  0.00  0.00    +0.000 C 
BRANCH  15  18
ATOM     18  C   UNL     1      49.242   6.662  15.120  0.00  0.00    +0.000 A 
ATOM     19  N   UNL     1      50.540   7.005  15.294  0.00  0.00    +0.000 NA
ATOM     20  C   UNL     1      51.188   6.492  16.354  0.00  0.00    +0.000 A 
ATOM     21  C   UNL     1      50.602   5.648  17.262  0.00  0.00    +0.000 A 
ATOM     22  C   UNL     1      49.286   5.349  17.018  0.00  0.00    +0.000 A 
ATOM     23  N   UNL     1      48.589   5.827  15.967  0.00  0.00    +0.000 NA
ENDBRANCH  15  18
ENDBRANCH  13  15
ENDBRANCH   6  13
TORSDOF 5
ENDMDL
MODEL 9
REMARK VINA RESULT:    -5.447      4.450      7.113
REMARK INTER + INTRA:          -7.896
REMARK INTER:                  -7.302
REMARK INTRA:                  -0.594
REMARK UNBOUND:                -0.856
REMARK  Name = 
REMARK  5 active torsions:
REMARK  status: ('A' for Active; 'I' for Inactive)
REMARK    1  A    between atoms: C_2  and  C_3
REMARK    2  A    between atoms: C_5  and  C_6
REMARK    3  A    between atoms: C_12  and  N_13
REMARK    4  A    between atoms: N_13  and  C_14
REMARK    5  A    between atoms: C_14  and  C_15
REMARK                            x       y       z     vdW  Elec       q    Type
REMARK                         _______ _______ _______ _____ _____    ______ ____
ROOT
ATOM      1  C   UNL     1      48.104   6.453  14.385  0.00  0.00    +0.000 A 
ATOM      2  C   UNL     1      48.381   6.114  15.715  0.00  0.00    +0.000 A 
ATOM      3  C   UNL     1      48.023   4.857  16.204  0.00  0.00    +0.000 A 
ATOM      4  C   UNL     1      47.381   4.001  15.325  0.00  0.00    +0.000 A 
ATOM      5  N   UNL     1      47.084   4.317  14.043  0.00  0.00    +0.000 NA
ATOM      6  C   UNL     1      47.443   5.530  13.562  0.00  0.00    +0.000 A 
ENDROOT
BRANCH   3   7
ATOM      7  C   UNL     1      48.320   4.414  17.603  0.00  0.00    +0.000 C 
ATOM      8  F   UNL     1      49.620   4.598  17.962  0.00  0.00    +0.000 F 
ATOM      9  F   UNL     1      47.579   5.078  18.531  0.00  0.00    +0.000 F 
ATOM     10  F   UNL     1      48.063   3.092  17.791  0.00  0.00    +0.000 F 
ENDBRANCH   3   7
BRANCH   1  12
ATOM     11  N   UNL     1      48.827   8.804  13.560  0.00  0.00    +0.000 NA
ATOM     12  C   UNL     1      48.486   7.752  13.909  0.00  0.00    +0.000 C 
ENDBRANCH   1  12
BRANCH   6  13
ATOM     13  N   UNL     1      47.084   5.893  12.250  0.00  0.00    +0.000 N 
ATOM     14  H   UNL     1      47.700   5.462  11.560  0.00  0.00    +0.000 HD
BRANCH  13  15
ATOM     15  C   UNL     1      45.658   5.913  11.803  0.00  0.00    +0.000 C 
ATOM     16  C   UNL     1      45.126   7.334  11.605  0.00  0.00    +0.000 C 
ATOM     17  C   UNL     1      44.524   6.465  12.655  0.00  0.00    +0.000 C 
BRANCH  15  18
ATOM     18  C   UNL     1      45.287   4.836  10.752  0.00  0.00    +0.000 A 
ATOM     19  N   UNL     1      44.602   3.736  11.142  0.00  0.00    +0.000 NA
ATOM     20  C   UNL     1      44.291   2.824  10.205  0.00  0.00    +0.000 A 
ATOM     21  C   UNL     1      44.630   2.953   8.884  0.00  0.00    +0.000 A 
ATOM     22  C   UNL     1      45.323   4.094   8.566  0.00  0.00    +0.000 A 
ATOM     23  N   UNL     1      45.669   5.038   9.466  0.00  0.00    +0.000 NA
ENDBRANCH  15  18
ENDBRANCH  13  15
ENDBRANCH   6  13
TORSDOF 5
ENDMDL
