MODEL 1
REMARK VINA RESULT:    -7.845      0.000      0.000
REMARK INTER + INTRA:         -11.456
REMARK INTER:                 -10.825
REMARK INTRA:                  -0.631
REMARK UNBOUND:                -0.631
REMARK  Name = 
REMARK  7 active torsions:
REMARK  status: ('A' for Active; 'I' for Inactive)
REMARK    1  A    between atoms: C_2  and  C_22
REMARK    2  A    between atoms: N_3  and  C_4
REMARK    3  A    between atoms: C_4  and  C_5
REMARK    4  A    between atoms: C_8  and  C_9
REMARK    5  A    between atoms: C_9  and  C_10
REMARK    6  A    between atoms: C_10  and  O_11
REMARK    7  A    between atoms: C_10  and  C_12
REMARK                            x       y       z     vdW  Elec       q    Type
REMARK                         _______ _______ _______ _____ _____    ______ ____
ROOT
ATOM      1  C   UNL     1      46.727   7.466  13.115  0.00  0.00    +0.000 A 
ATOM      2  C   UNL     1      45.658   8.068  12.443  0.00  0.00    +0.000 A 
ATOM      3  C   UNL     1      44.768   7.303  11.680  0.00  0.00    +0.000 A 
ATOM      4  C   UNL     1      44.923   5.914  11.578  0.00  0.00    +0.000 A 
ATOM      5  C   UNL     1      45.979   5.309  12.274  0.00  0.00    +0.000 A 
ATOM      6  C   UNL     1      46.869   6.077  13.039  0.00  0.00    +0.000 A 
ENDROOT
BRANCH   1   7
ATOM      7  C   UNL     1      47.681   8.317  13.914  0.00  0.00    +0.000 C 
BRANCH   7  10
ATOM      8  O   UNL     1      50.145   7.101  14.524  0.00  0.00    +0.000 OA
ATOM      9  C   UNL     1      49.274   7.186  15.395  0.00  0.00    +0.000 C 
ATOM     10  N   UNL     1      48.036   7.716  15.165  0.00  0.00    +0.000 N 
ATOM     11  H   UNL     1      47.459   7.990  15.951  0.00  0.00    +0.000 HD
BRANCH   9  12
ATOM     12  C   UNL     1      49.504   6.676  16.745  0.00  0.00    +0.000 A 
ATOM     13  C   UNL     1      50.256   7.377  17.686  0.00  0.00    +0.000 A 
ATOM     14  S   UNL     1      50.365   6.571  19.184  0.00  0.00    +0.000 S 
ATOM     15  C   UNL     1      49.392   5.287  18.631  0.00  0.00    +0.000 A 
ATOM     16  N   UNL     1      49.065   4.241  19.437  0.00  0.00    +0.000 NA
ATOM     17  C   UNL     1      48.298   3.362  18.886  0.00  0.00    +0.000 A 
ATOM     18  N   UNL     1      47.825   3.425  17.599  0.00  0.00    +0.000 N 
ATOM     19  C   UNL     1      48.188   4.411  16.732  0.00  0.00    +0.000 A 
ATOM     20  O   UNL     1      47.860   4.348  15.544  0.00  0.00    +0.000 OA
ATOM     21  C   UNL     1      49.009   5.451  17.315  0.00  0.00    +0.000 A 
ATOM     22  H   UNL     1      47.263   2.683  17.205  0.00  0.00    +0.000 HD
ENDBRANCH   9  12
ENDBRANCH   7  10
ENDBRANCH   1   7
BRANCH   4  23
ATOM     23  C   UNL     1      43.958   5.069  10.763  0.00  0.00    +0.000 C 
BRANCH  23  24
ATOM     24  C   UNL     1      44.531   4.594   9.415  0.00  0.00    +0.000 C 
BRANCH  24  25
ATOM     25  C   UNL     1      45.041   3.126   9.478  0.00  0.00    +0.000 C 
ATOM     26  O   UNL     1      45.102   2.519  10.547  0.00  0.00    +0.000 OA
ATOM     27  N   UNL     1      45.344   2.514   8.261  0.00  0.00    +0.000 N 
ATOM     28  C   UNL     1      45.635   1.084   8.222  0.00  0.00    +0.000 C 
ATOM     29  C   UNL     1      47.079   0.834   7.798  0.00  0.00    +0.000 C 
ATOM     30  C   UNL     1      47.403   1.553   6.487  0.00  0.00    +0.000 C 
ATOM     31  C   UNL     1      47.036   3.034   6.565  0.00  0.00    +0.000 C 
ATOM     32  C   UNL     1      45.579   3.214   6.994  0.00  0.00    +0.000 C 
ENDBRANCH  24  25
BRANCH  24  33
ATOM     33  O   UNL     1      45.530   5.518   8.983  0.00  0.00    +0.000 OA
ATOM     34  H   UNL     1      45.079   6.334   8.712  0.00  0.00    +0.000 HD
ENDBRANCH  24  33
ENDBRANCH  23  24
ENDBRANCH   4  23
TORSDOF 7
ENDMDL
MODEL 2
REMARK VINA RESULT:    -7.663      2.136      2.459
REMARK INTER + INTRA:         -11.206
REMARK INTER:                 -10.738
REMARK INTRA:                  -0.467
REMARK UNBOUND:                -0.631
REMARK  Name = 
REMARK  7 active torsions:
REMARK  status: ('A' for Active; 'I' for Inactive)
REMARK    1  A    between atoms: C_2  and  C_22
REMARK    2  A    between atoms: N_3  and  C_4
REMARK    3  A    between atoms: C_4  and  C_5
REMARK    4  A    between atoms: C_8  and  C_9
REMARK    5  A    between atoms: C_9  and  C_10
REMARK    6  A    between atoms: C_10  and  O_11
REMARK    7  A    between atoms: C_10  and  C_12
REMARK                            x       y       z     vdW  Elec       q    Type
REMARK                         _______ _______ _______ _____ _____    ______ ____
ROOT
ATOM      1  C   UNL     1      48.151   7.349  14.540  0.00  0.00    +0.000 A 
ATOM      2  C   UNL     1      47.743   8.275  13.572  0.00  0.00    +0.000 A 
ATOM      3  C   UNL     1      47.079   7.855  12.413  0.00  0.00    +0.000 A 
ATOM      4  C   UNL     1      46.800   6.499  12.199  0.00  0.00    +0.000 A 
ATOM      5  C   UNL     1      47.186   5.576  13.181  0.00  0.00    +0.000 A 
ATOM      6  C   UNL     1      47.850   5.999  14.343  0.00  0.00    +0.000 A 
ENDROOT
BRANCH   1   7
ATOM      7  C   UNL     1      48.881   7.828  15.768  0.00  0.00    +0.000 C 
BRANCH   7  10
ATOM      8  O   UNL     1      49.002   6.454  18.221  0.00  0.00    +0.000 OA
ATOM      9  C   UNL     1      49.876   6.262  17.370  0.00  0.00    +0.000 C 
ATOM     10  N   UNL     1      49.916   6.925  16.177  0.00  0.00    +0.000 N 
ATOM     11  H   UNL     1      50.490   6.562  15.425  0.00  0.00    +0.000 HD
BRANCH   9  12
ATOM     12  C   UNL     1      50.970   5.322  17.609  0.00  0.00    +0.000 A 
ATOM     13  C   UNL     1      52.223   5.739  18.052  0.00  0.00    +0.000 A 
ATOM     14  S   UNL     1      53.317   4.448  18.261  0.00  0.00    +0.000 S 
ATOM     15  C   UNL     1      52.146   3.302  17.798  0.00  0.00    +0.000 A 
ATOM     16  N   UNL     1      52.421   1.970  17.775  0.00  0.00    +0.000 NA
ATOM     17  C   UNL     1      51.424   1.225  17.432  0.00  0.00    +0.000 A 
ATOM     18  N   UNL     1      50.174   1.685  17.104  0.00  0.00    +0.000 N 
ATOM     19  C   UNL     1      49.874   3.012  17.037  0.00  0.00    +0.000 A 
ATOM     20  O   UNL     1      48.784   3.383  16.594  0.00  0.00    +0.000 OA
ATOM     21  C   UNL     1      50.944   3.891  17.460  0.00  0.00    +0.000 A 
ATOM     22  H   UNL     1      49.443   1.057  16.799  0.00  0.00    +0.000 HD
ENDBRANCH   9  12
ENDBRANCH   7  10
ENDBRANCH   1   7
BRANCH   4  23
ATOM     23  C   UNL     1      46.070   6.029  10.952  0.00  0.00    +0.000 C 
BRANCH  23  24
ATOM     24  C   UNL     1      44.772   5.254  11.244  0.00  0.00    +0.000 C 
BRANCH  24  25
ATOM     25  C   UNL     1      44.896   3.745  10.892  0.00  0.00    +0.000 C 
ATOM     26  O   UNL     1      44.952   2.889  11.775  0.00  0.00    +0.000 OA
ATOM     27  N   UNL     1      44.856   3.410   9.538  0.00  0.00    +0.000 N 
ATOM     28  C   UNL     1      44.765   2.008   9.141  0.00  0.00    +0.000 C 
ATOM     29  C   UNL     1      46.022   1.571   8.395  0.00  0.00    +0.000 C 
ATOM     30  C   UNL     1      46.328   2.511   7.228  0.00  0.00    +0.000 C 
ATOM     31  C   UNL     1      46.365   3.968   7.688  0.00  0.00    +0.000 C 
ATOM     32  C   UNL     1      45.078   4.340   8.427  0.00  0.00    +0.000 C 
ENDBRANCH  24  25
BRANCH  24  33
ATOM     33  O   UNL     1      43.685   5.899  10.577  0.00  0.00    +0.000 OA
ATOM     34  H   UNL     1      42.901   5.813  11.143  0.00  0.00    +0.000 HD
ENDBRANCH  24  33
ENDBRANCH  23  24
ENDBRANCH   4  23
TORSDOF 7
ENDMDL
MODEL 3
REMARK VINA RESULT:    -7.393      1.960      2.808
REMARK INTER + INTRA:         -10.834
REMARK INTER:                  -9.861
REMARK INTRA:                  -0.973
REMARK UNBOUND:                -0.631
REMARK  Name = 
REMARK  7 active torsions:
REMARK  status: ('A' for Active; 'I' for Inactive)
REMARK    1  A    between atoms: C_2  and  C_22
REMARK    2  A    between atoms: N_3  and  C_4
REMARK    3  A    between atoms: C_4  and  C_5
REMARK    4  A    between atoms: C_8  and  C_9
REMARK    5  A    between atoms: C_9  and  C_10
REMARK    6  A    between atoms: C_10  and  O_11
REMARK    7  A    between atoms: C_10  and  C_12
REMARK                            x       y       z     vdW  Elec       q    Type
REMARK                         _______ _______ _______ _____ _____    ______ ____
ROOT
ATOM      1  C   UNL     1      46.893   6.025  13.006  0.00  0.00    +0.000 A 
ATOM      2  C   UNL     1      46.390   6.451  11.771  0.00  0.00    +0.000 A 
ATOM      3  C   UNL     1      45.498   5.653  11.046  0.00  0.00    +0.000 A 
ATOM      4  C   UNL     1      45.083   4.410  11.543  0.00  0.00    +0.000 A 
ATOM      5  C   UNL     1      45.567   3.996  12.792  0.00  0.00    +0.000 A 
ATOM      6  C   UNL     1      46.460   4.799  13.518  0.00  0.00    +0.000 A 
ENDROOT
BRANCH   1   7
ATOM      7  C   UNL     1      47.867   6.897  13.756  0.00  0.00    +0.000 C 
BRANCH   7  10
ATOM      8  O   UNL     1      50.131   6.613  15.403  0.00  0.00    +0.000 OA
ATOM      9  C   UNL     1      49.003   6.566  15.903  0.00  0.00    +0.000 C 
ATOM     10  N   UNL     1      47.855   6.645  15.166  0.00  0.00    +0.000 N 
ATOM     11  H   UNL     1      46.979   6.852  15.631  0.00  0.00    +0.000 HD
BRANCH   9  12
ATOM     12  C   UNL     1      48.820   6.376  17.341  0.00  0.00    +0.000 A 
ATOM     13  C   UNL     1      49.103   5.166  17.972  0.00  0.00    +0.000 A 
ATOM     14  S   UNL     1      48.814   5.210  19.651  0.00  0.00    +0.000 S 
ATOM     15  C   UNL     1      48.336   6.843  19.587  0.00  0.00    +0.000 A 
ATOM     16  N   UNL     1      47.969   7.523  20.707  0.00  0.00    +0.000 NA
ATOM     17  C   UNL     1      47.662   8.760  20.502  0.00  0.00    +0.000 A 
ATOM     18  N   UNL     1      47.682   9.386  19.281  0.00  0.00    +0.000 N 
ATOM     19  C   UNL     1      47.966   8.726  18.123  0.00  0.00    +0.000 A 
ATOM     20  O   UNL     1      47.827   9.289  17.034  0.00  0.00    +0.000 OA
ATOM     21  C   UNL     1      48.367   7.346  18.302  0.00  0.00    +0.000 A 
ATOM     22  H   UNL     1      47.387  10.346  19.173  0.00  0.00    +0.000 HD
ENDBRANCH   9  12
ENDBRANCH   7  10
ENDBRANCH   1   7
BRANCH   4  23
ATOM     23  C   UNL     1      44.106   3.537  10.772  0.00  0.00    +0.000 C 
BRANCH  23  24
ATOM     24  C   UNL     1      44.775   2.629   9.724  0.00  0.00    +0.000 C 
BRANCH  24  25
ATOM     25  C   UNL     1      45.116   3.394   8.414  0.00  0.00    +0.000 C 
ATOM     26  O   UNL     1      44.394   4.302   8.001  0.00  0.00    +0.000 OA
ATOM     27  N   UNL     1      46.315   3.058   7.783  0.00  0.00    +0.000 N 
ATOM     28  C   UNL     1      46.798   3.866   6.667  0.00  0.00    +0.000 C 
ATOM     29  C   UNL     1      46.813   3.055   5.375  0.00  0.00    +0.000 C 
ATOM     30  C   UNL     1      47.584   1.746   5.552  0.00  0.00    +0.000 C 
ATOM     31  C   UNL     1      47.072   0.963   6.760  0.00  0.00    +0.000 C 
ATOM     32  C   UNL     1      47.082   1.832   8.019  0.00  0.00    +0.000 C 
ENDBRANCH  24  25
BRANCH  24  33
ATOM     33  O   UNL     1      43.950   1.483   9.507  0.00  0.00    +0.000 OA
ATOM     34  H   UNL     1      43.025   1.777   9.535  0.00  0.00    +0.000 HD
ENDBRANCH  24  33
ENDBRANCH  23  24
ENDBRANCH   4  23
TORSDOF 7
ENDMDL
MODEL 4
REMARK VINA RESULT:    -7.286      1.544      1.862
REMARK INTER + INTRA:         -10.685
REMARK INTER:                 -10.144
REMARK INTRA:                  -0.541
REMARK UNBOUND:                -0.631
REMARK  Name = 
REMARK  7 active torsions:
REMARK  status: ('A' for Active; 'I' for Inactive)
REMARK    1  A    between atoms: C_2  and  C_22
REMARK    2  A    between atoms: N_3  and  C_4
REMARK    3  A    between atoms: C_4  and  C_5
REMARK    4  A    between atoms: C_8  and  C_9
REMARK    5  A    between atoms: C_9  and  C_10
REMARK    6  A    between atoms: C_10  and  O_11
REMARK    7  A    between atoms: C_10  and  C_12
REMARK                            x       y       z     vdW  Elec       q    Type
REMARK                         _______ _______ _______ _____ _____    ______ ____
ROOT
ATOM      1  C   UNL     1      47.806   7.880  13.154  0.00  0.00    +0.000 A 
ATOM      2  C   UNL     1      46.560   8.505  13.278  0.00  0.00    +0.000 A 
ATOM      3  C   UNL     1      45.429   7.984  12.639  0.00  0.00    +0.000 A 
ATOM      4  C   UNL     1      45.517   6.818  11.866  0.00  0.00    +0.000 A 
ATOM      5  C   UNL     1      46.760   6.178  11.765  0.00  0.00    +0.000 A 
ATOM      6  C   UNL     1      47.892   6.702  12.407  0.00  0.00    +0.000 A 
ENDROOT
BRANCH   1   7
ATOM      7  C   UNL     1      49.010   8.474  13.838  0.00  0.00    +0.000 C 
BRANCH   7  10
ATOM      8  O   UNL     1      48.047   9.101  16.407  0.00  0.00    +0.000 OA
ATOM      9  C   UNL     1      48.795   8.131  16.256  0.00  0.00    +0.000 C 
ATOM     10  N   UNL     1      49.345   7.791  15.052  0.00  0.00    +0.000 N 
ATOM     11  H   UNL     1      49.737   6.865  14.929  0.00  0.00    +0.000 HD
BRANCH   9  12
ATOM     12  C   UNL     1      49.182   7.292  17.388  0.00  0.00    +0.000 A 
ATOM     13  C   UNL     1      49.836   7.808  18.505  0.00  0.00    +0.000 A 
ATOM     14  S   UNL     1      50.168   6.625  19.687  0.00  0.00    +0.000 S 
ATOM     15  C   UNL     1      49.424   5.405  18.759  0.00  0.00    +0.000 A 
ATOM     16  N   UNL     1      49.339   4.122  19.204  0.00  0.00    +0.000 NA
ATOM     17  C   UNL     1      48.722   3.320  18.403  0.00  0.00    +0.000 A 
ATOM     18  N   UNL     1      48.183   3.675  17.192  0.00  0.00    +0.000 N 
ATOM     19  C   UNL     1      48.312   4.927  16.671  0.00  0.00    +0.000 A 
ATOM     20  O   UNL     1      47.944   5.163  15.518  0.00  0.00    +0.000 OA
ATOM     21  C   UNL     1      48.953   5.881  17.552  0.00  0.00    +0.000 A 
ATOM     22  H   UNL     1      47.750   2.993  16.586  0.00  0.00    +0.000 HD
ENDBRANCH   9  12
ENDBRANCH   7  10
ENDBRANCH   1   7
BRANCH   4  23
ATOM     23  C   UNL     1      44.296   6.234  11.176  0.00  0.00    +0.000 C 
BRANCH  23  24
ATOM     24  C   UNL     1      43.607   5.111  11.973  0.00  0.00    +0.000 C 
BRANCH  24  25
ATOM     25  C   UNL     1      44.096   3.699  11.545  0.00  0.00    +0.000 C 
ATOM     26  O   UNL     1      44.360   2.836  12.382  0.00  0.00    +0.000 OA
ATOM     27  N   UNL     1      44.140   3.438  10.175  0.00  0.00    +0.000 N 
ATOM     28  C   UNL     1      44.395   2.079   9.704  0.00  0.00    +0.000 C 
ATOM     29  C   UNL     1      45.721   2.003   8.954  0.00  0.00    +0.000 C 
ATOM     30  C   UNL     1      45.789   3.052   7.841  0.00  0.00    +0.000 C 
ATOM     31  C   UNL     1      45.468   4.446   8.378  0.00  0.00    +0.000 C 
ATOM     32  C   UNL     1      44.129   4.452   9.117  0.00  0.00    +0.000 C 
ENDBRANCH  24  25
BRANCH  24  33
ATOM     33  O   UNL     1      42.191   5.270  11.871  0.00  0.00    +0.000 OA
ATOM     34  H   UNL     1      41.881   5.683  12.693  0.00  0.00    +0.000 HD
ENDBRANCH  24  33
ENDBRANCH  23  24
ENDBRANCH   4  23
TORSDOF 7
ENDMDL
MODEL 5
REMARK VINA RESULT:    -7.184      2.843      8.592
REMARK INTER + INTRA:         -10.544
REMARK INTER:                  -9.194
REMARK INTRA:                  -1.350
REMARK UNBOUND:                -0.631
REMARK  Name = 
REMARK  7 active torsions:
REMARK  status: ('A' for Active; 'I' for Inactive)
REMARK    1  A    between atoms: C_2  and  C_22
REMARK    2  A    between atoms: N_3  and  C_4
REMARK    3  A    between atoms: C_4  and  C_5
REMARK    4  A    between atoms: C_8  and  C_9
REMARK    5  A    between atoms: C_9  and  C_10
REMARK    6  A    between atoms: C_10  and  O_11
REMARK    7  A    between atoms: C_10  and  C_12
REMARK                            x       y       z     vdW  Elec       q    Type
REMARK                         _______ _______ _______ _____ _____    ______ ____
ROOT
ATOM      1  C   UNL     1      48.490   8.141  13.148  0.00  0.00    +0.000 A 
ATOM      2  C   UNL     1      47.708   8.869  14.053  0.00  0.00    +0.000 A 
ATOM      3  C   UNL     1      48.183   9.163  15.336  0.00  0.00    +0.000 A 
ATOM      4  C   UNL     1      49.456   8.741  15.743  0.00  0.00    +0.000 A 
ATOM      5  C   UNL     1      50.248   8.035  14.827  0.00  0.00    +0.000 A 
ATOM      6  C   UNL     1      49.771   7.742  13.540  0.00  0.00    +0.000 A 
ENDROOT
BRANCH   1   7
ATOM      7  C   UNL     1      47.945   7.822  11.779  0.00  0.00    +0.000 C 
BRANCH   7  10
ATOM      8  O   UNL     1      45.135   7.749  11.661  0.00  0.00    +0.000 OA
ATOM      9  C   UNL     1      45.773   6.692  11.667  0.00  0.00    +0.000 C 
ATOM     10  N   UNL     1      47.134   6.641  11.773  0.00  0.00    +0.000 N 
ATOM     11  H   UNL     1      47.620   5.788  11.525  0.00  0.00    +0.000 HD
BRANCH   9  12
ATOM     12  C   UNL     1      45.094   5.399  11.602  0.00  0.00    +0.000 A 
ATOM     13  C   UNL     1      44.406   4.866  12.690  0.00  0.00    +0.000 A 
ATOM     14  S   UNL     1      43.698   3.353  12.352  0.00  0.00    +0.000 S 
ATOM     15  C   UNL     1      44.261   3.381  10.745  0.00  0.00    +0.000 A 
ATOM     16  N   UNL     1      43.986   2.373   9.874  0.00  0.00    +0.000 NA
ATOM     17  C   UNL     1      44.456   2.552   8.686  0.00  0.00    +0.000 A 
ATOM     18  N   UNL     1      45.181   3.644   8.281  0.00  0.00    +0.000 N 
ATOM     19  C   UNL     1      45.547   4.639   9.136  0.00  0.00    +0.000 A 
ATOM     20  O   UNL     1      46.323   5.525   8.767  0.00  0.00    +0.000 OA
ATOM     21  C   UNL     1      45.004   4.513  10.472  0.00  0.00    +0.000 A 
ATOM     22  H   UNL     1      45.563   3.709   7.347  0.00  0.00    +0.000 HD
ENDBRANCH   9  12
ENDBRANCH   7  10
ENDBRANCH   1   7
BRANCH   4  23
ATOM     23  C   UNL     1      49.989   9.062  17.129  0.00  0.00    +0.000 C 
BRANCH  23  24
ATOM     24  C   UNL     1      50.199   7.823  18.019  0.00  0.00    +0.000 C 
BRANCH  24  25
ATOM     25  C   UNL     1      48.955   6.891  18.034  0.00  0.00    +0.000 C 
ATOM     26  O   UNL     1      47.889   7.260  18.528  0.00  0.00    +0.000 OA
ATOM     27  N   UNL     1      49.084   5.660  17.390  0.00  0.00    +0.000 N 
ATOM     28  C   UNL     1      47.906   4.820  17.189  0.00  0.00    +0.000 C 
ATOM     29  C   UNL     1      48.023   3.521  17.980  0.00  0.00    +0.000 C 
ATOM     30  C   UNL     1      49.338   2.802  17.673  0.00  0.00    +0.000 C 
ATOM     31  C   UNL     1      50.533   3.737  17.852  0.00  0.00    +0.000 C 
ATOM     32  C   UNL     1      50.352   5.017  17.035  0.00  0.00    +0.000 C 
ENDBRANCH  24  25
BRANCH  24  33
ATOM     33  O   UNL     1      50.597   8.249  19.323  0.00  0.00    +0.000 OA
ATOM     34  H   UNL     1      51.355   8.847  19.219  0.00  0.00    +0.000 HD
ENDBRANCH  24  33
ENDBRANCH  23  24
ENDBRANCH   4  23
TORSDOF 7
ENDMDL
MODEL 6
REMARK VINA RESULT:    -6.965      2.991      9.627
REMARK INTER + INTRA:         -10.243
REMARK INTER:                  -9.351
REMARK INTRA:                  -0.891
REMARK UNBOUND:                -0.631
REMARK  Name = 
REMARK  7 active torsions:
REMARK  status: ('A' for Active; 'I' for Inactive)
REMARK    1  A    between atoms: C_2  and  C_22
REMARK    2  A    between atoms: N_3  and  C_4
REMARK    3  A    between atoms: C_4  and  C_5
REMARK    4  A    between atoms: C_8  and  C_9
REMARK    5  A    between atoms: C_9  and  C_10
REMARK    6  A    between atoms: C_10  and  O_11
REMARK    7  A    between atoms: C_10  and  C_12
REMARK                            x       y       z     vdW  Elec       q    Type
REMARK                         _______ _______ _______ _____ _____    ______ ____
ROOT
ATOM      1  C   UNL     1      45.316   4.745  12.404  0.00  0.00    +0.000 A 
ATOM      2  C   UNL     1      46.216   4.332  13.393  0.00  0.00    +0.000 A 
ATOM      3  C   UNL     1      47.130   5.233  13.952  0.00  0.00    +0.000 A 
ATOM      4  C   UNL     1      47.160   6.572  13.539  0.00  0.00    +0.000 A 
ATOM      5  C   UNL     1      46.239   6.990  12.568  0.00  0.00    +0.000 A 
ATOM      6  C   UNL     1      45.323   6.086  12.010  0.00  0.00    +0.000 A 
ENDROOT
BRANCH   1   7
ATOM      7  C   UNL     1      44.356   3.748  11.807  0.00  0.00    +0.000 C 
BRANCH   7  10
ATOM      8  O   UNL     1      43.936   3.823   9.026  0.00  0.00    +0.000 OA
ATOM      9  C   UNL     1      44.756   3.030   9.498  0.00  0.00    +0.000 C 
ATOM     10  N   UNL     1      44.981   2.897  10.839  0.00  0.00    +0.000 N 
ATOM     11  H   UNL     1      45.821   2.429  11.158  0.00  0.00    +0.000 HD
BRANCH   9  12
ATOM     12  C   UNL     1      45.524   2.133   8.636  0.00  0.00    +0.000 A 
ATOM     13  C   UNL     1      45.413   0.747   8.718  0.00  0.00    +0.000 A 
ATOM     14  S   UNL     1      46.406  -0.068   7.599  0.00  0.00    +0.000 S 
ATOM     15  C   UNL     1      46.987   1.399   6.956  0.00  0.00    +0.000 A 
ATOM     16  N   UNL     1      47.878   1.425   5.929  0.00  0.00    +0.000 NA
ATOM     17  C   UNL     1      48.200   2.610   5.532  0.00  0.00    +0.000 A 
ATOM     18  N   UNL     1      47.720   3.778   6.068  0.00  0.00    +0.000 N 
ATOM     19  C   UNL     1      46.888   3.803   7.147  0.00  0.00    +0.000 A 
ATOM     20  O   UNL     1      46.601   4.874   7.688  0.00  0.00    +0.000 OA
ATOM     21  C   UNL     1      46.455   2.498   7.601  0.00  0.00    +0.000 A 
ATOM     22  H   UNL     1      48.043   4.680   5.746  0.00  0.00    +0.000 HD
ENDBRANCH   9  12
ENDBRANCH   7  10
ENDBRANCH   1   7
BRANCH   4  23
ATOM     23  C   UNL     1      48.139   7.564  14.145  0.00  0.00    +0.000 C 
BRANCH  23  24
ATOM     24  C   UNL     1      49.216   6.914  15.033  0.00  0.00    +0.000 C 
BRANCH  24  25
ATOM     25  C   UNL     1      49.097   7.353  16.519  0.00  0.00    +0.000 C 
ATOM     26  O   UNL     1      49.376   8.501  16.868  0.00  0.00    +0.000 OA
ATOM     27  N   UNL     1      48.583   6.413  17.414  0.00  0.00    +0.000 N 
ATOM     28  C   UNL     1      48.255   6.815  18.778  0.00  0.00    +0.000 C 
ATOM     29  C   UNL     1      49.155   6.104  19.785  0.00  0.00    +0.000 C 
ATOM     30  C   UNL     1      49.129   4.589  19.578  0.00  0.00    +0.000 C 
ATOM     31  C   UNL     1      49.431   4.225  18.125  0.00  0.00    +0.000 C 
ATOM     32  C   UNL     1      48.496   4.970  17.170  0.00  0.00    +0.000 C 
ENDBRANCH  24  25
BRANCH  24  33
ATOM     33  O   UNL     1      50.503   7.177  14.471  0.00  0.00    +0.000 OA
ATOM     34  H   UNL     1      50.953   7.812  15.051  0.00  0.00    +0.000 HD
ENDBRANCH  24  33
ENDBRANCH  23  24
ENDBRANCH   4  23
TORSDOF 7
ENDMDL
MODEL 7
REMARK VINA RESULT:    -6.850      3.366      8.311
REMARK INTER + INTRA:         -10.084
REMARK INTER:                  -9.520
REMARK INTRA:                  -0.564
REMARK UNBOUND:                -0.631
REMARK  Name = 
REMARK  7 active torsions:
REMARK  status: ('A' for Active; 'I' for Inactive)
REMARK    1  A    between atoms: C_2  and  C_22
REMARK    2  A    between atoms: N_3  and  C_4
REMARK    3  A    between atoms: C_4  and  C_5
REMARK    4  A    between atoms: C_8  and  C_9
REMARK    5  A    between atoms: C_9  and  C_10
REMARK    6  A    between atoms: C_10  and  O_11
REMARK    7  A    between atoms: C_10  and  C_12
REMARK                            x       y       z     vdW  Elec       q    Type
REMARK                         _______ _______ _______ _____ _____    ______ ____
ROOT
ATOM      1  C   UNL     1      48.621   7.807  13.405  0.00  0.00    +0.000 A 
ATOM      2  C   UNL     1      49.320   8.821  14.070  0.00  0.00    +0.000 A 
ATOM      3  C   UNL     1      49.514   8.768  15.455  0.00  0.00    +0.000 A 
ATOM      4  C   UNL     1      49.019   7.695  16.208  0.00  0.00    +0.000 A 
ATOM      5  C   UNL     1      48.342   6.667  15.536  0.00  0.00    +0.000 A 
ATOM      6  C   UNL     1      48.151   6.720  14.147  0.00  0.00    +0.000 A 
ENDROOT
BRANCH   1   7
ATOM      7  C   UNL     1      48.412   7.899  11.915  0.00  0.00    +0.000 C 
BRANCH   7  10
ATOM      8  O   UNL     1      45.607   7.823  11.695  0.00  0.00    +0.000 OA
ATOM      9  C   UNL     1      46.277   6.870  11.287  0.00  0.00    +0.000 C 
ATOM     10  N   UNL     1      47.637   6.808  11.402  0.00  0.00    +0.000 N 
ATOM     11  H   UNL     1      48.153   6.142  10.841  0.00  0.00    +0.000 HD
BRANCH   9  12
ATOM     12  C   UNL     1      45.640   5.704  10.678  0.00  0.00    +0.000 A 
ATOM     13  C   UNL     1      45.773   5.407   9.323  0.00  0.00    +0.000 A 
ATOM     14  S   UNL     1      44.941   3.991   8.868  0.00  0.00    +0.000 S 
ATOM     15  C   UNL     1      44.408   3.720  10.462  0.00  0.00    +0.000 A 
ATOM     16  N   UNL     1      43.647   2.640  10.786  0.00  0.00    +0.000 NA
ATOM     17  C   UNL     1      43.347   2.556  12.039  0.00  0.00    +0.000 A 
ATOM     18  N   UNL     1      43.731   3.452  13.003  0.00  0.00    +0.000 N 
ATOM     19  C   UNL     1      44.426   4.588  12.714  0.00  0.00    +0.000 A 
ATOM     20  O   UNL     1      44.621   5.439  13.586  0.00  0.00    +0.000 OA
ATOM     21  C   UNL     1      44.832   4.707  11.330  0.00  0.00    +0.000 A 
ATOM     22  H   UNL     1      43.428   3.359  13.963  0.00  0.00    +0.000 HD
ENDBRANCH   9  12
ENDBRANCH   7  10
ENDBRANCH   1   7
BRANCH   4  23
ATOM     23  C   UNL     1      49.231   7.619  17.710  0.00  0.00    +0.000 C 
BRANCH  23  24
ATOM     24  C   UNL     1      50.523   6.888  18.121  0.00  0.00    +0.000 C 
BRANCH  24  25
ATOM     25  C   UNL     1      50.603   5.454  17.525  0.00  0.00    +0.000 C 
ATOM     26  O   UNL     1      51.478   5.151  16.713  0.00  0.00    +0.000 OA
ATOM     27  N   UNL     1      49.692   4.517  18.015  0.00  0.00    +0.000 N 
ATOM     28  C   UNL     1      49.835   3.110  17.654  0.00  0.00    +0.000 C 
ATOM     29  C   UNL     1      48.650   2.641  16.814  0.00  0.00    +0.000 C 
ATOM     30  C   UNL     1      47.322   2.957  17.506  0.00  0.00    +0.000 C 
ATOM     31  C   UNL     1      47.245   4.429  17.906  0.00  0.00    +0.000 C 
ATOM     32  C   UNL     1      48.459   4.833  18.743  0.00  0.00    +0.000 C 
ENDBRANCH  24  25
BRANCH  24  33
ATOM     33  O   UNL     1      50.637   6.911  19.545  0.00  0.00    +0.000 OA
ATOM     34  H   UNL     1      51.582   6.863  19.765  0.00  0.00    +0.000 HD
ENDBRANCH  24  33
ENDBRANCH  23  24
ENDBRANCH   4  23
TORSDOF 7
ENDMDL
MODEL 8
REMARK VINA RESULT:    -6.844      1.607      2.339
REMARK INTER + INTRA:         -10.075
REMARK INTER:                  -9.162
REMARK INTRA:                  -0.913
REMARK UNBOUND:                -0.631
REMARK  Name = 
REMARK  7 active torsions:
REMARK  status: ('A' for Active; 'I' for Inactive)
REMARK    1  A    between atoms: C_2  and  C_22
REMARK    2  A    between atoms: N_3  and  C_4
REMARK    3  A    between atoms: C_4  and  C_5
REMARK    4  A    between atoms: C_8  and  C_9
REMARK    5  A    between atoms: C_9  and  C_10
REMARK    6  A    between atoms: C_10  and  O_11
REMARK    7  A    between atoms: C_10  and  C_12
REMARK                            x       y       z     vdW  Elec       q    Type
REMARK                         _______ _______ _______ _____ _____    ______ ____
ROOT
ATOM      1  C   UNL     1      45.555   7.309  12.337  0.00  0.00    +0.000 A 
ATOM      2  C   UNL     1      44.458   7.365  11.469  0.00  0.00    +0.000 A 
ATOM      3  C   UNL     1      43.842   6.193  11.017  0.00  0.00    +0.000 A 
ATOM      4  C   UNL     1      44.303   4.935  11.428  0.00  0.00    +0.000 A 
ATOM      5  C   UNL     1      45.385   4.882  12.319  0.00  0.00    +0.000 A 
ATOM      6  C   UNL     1      46.001   6.058  12.772  0.00  0.00    +0.000 A 
ENDROOT
BRANCH   1   7
ATOM      7  C   UNL     1      46.212   8.587  12.792  0.00  0.00    +0.000 C 
BRANCH   7  10
ATOM      8  O   UNL     1      48.771   9.452  13.581  0.00  0.00    +0.000 OA
ATOM      9  C   UNL     1      48.006   8.967  14.419  0.00  0.00    +0.000 C 
ATOM     10  N   UNL     1      46.768   8.479  14.108  0.00  0.00    +0.000 N 
ATOM     11  H   UNL     1      46.093   8.328  14.848  0.00  0.00    +0.000 HD
BRANCH   9  12
ATOM     12  C   UNL     1      48.400   8.844  15.821  0.00  0.00    +0.000 A 
ATOM     13  C   UNL     1      48.426   9.937  16.684  0.00  0.00    +0.000 A 
ATOM     14  S   UNL     1      48.912   9.525  18.265  0.00  0.00    +0.000 S 
ATOM     15  C   UNL     1      49.072   7.881  17.851  0.00  0.00    +0.000 A 
ATOM     16  N   UNL     1      49.448   6.948  18.767  0.00  0.00    +0.000 NA
ATOM     17  C   UNL     1      49.496   5.741  18.310  0.00  0.00    +0.000 A 
ATOM     18  N   UNL     1      49.208   5.375  17.020  0.00  0.00    +0.000 N 
ATOM     19  C   UNL     1      48.904   6.283  16.050  0.00  0.00    +0.000 A 
ATOM     20  O   UNL     1      48.799   5.926  14.874  0.00  0.00    +0.000 OA
ATOM     21  C   UNL     1      48.788   7.647  16.520  0.00  0.00    +0.000 A 
ATOM     22  H   UNL     1      49.306   4.419  16.707  0.00  0.00    +0.000 HD
ENDBRANCH   9  12
ENDBRANCH   7  10
ENDBRANCH   1   7
BRANCH   4  23
ATOM     23  C   UNL     1      43.637   3.655  10.955  0.00  0.00    +0.000 C 
BRANCH  23  24
ATOM     24  C   UNL     1      44.529   2.786  10.050  0.00  0.00    +0.000 C 
BRANCH  24  25
ATOM     25  C   UNL     1      44.862   3.488   8.703  0.00  0.00    +0.000 C 
ATOM     26  O   UNL     1      44.123   4.355   8.238  0.00  0.00    +0.000 OA
ATOM     27  N   UNL     1      46.074   3.147   8.100  0.00  0.00    +0.000 N 
ATOM     28  C   UNL     1      46.547   3.906   6.946  0.00  0.00    +0.000 C 
ATOM     29  C   UNL     1      46.591   3.028   5.698  0.00  0.00    +0.000 C 
ATOM     30  C   UNL     1      47.390   1.748   5.950  0.00  0.00    +0.000 C 
ATOM     31  C   UNL     1      46.886   1.018   7.194  0.00  0.00    +0.000 C 
ATOM     32  C   UNL     1      46.867   1.953   8.405  0.00  0.00    +0.000 C 
ENDBRANCH  24  25
BRANCH  24  33
ATOM     33  O   UNL     1      43.913   1.508   9.879  0.00  0.00    +0.000 OA
ATOM     34  H   UNL     1      44.568   0.831  10.115  0.00  0.00    +0.000 HD
ENDBRANCH  24  33
ENDBRANCH  23  24
ENDBRANCH   4  23
TORSDOF 7
ENDMDL
MODEL 9
REMARK VINA RESULT:    -6.783      3.645      8.146
REMARK INTER + INTRA:          -9.992
REMARK INTER:                  -8.438
REMARK INTRA:                  -1.554
REMARK UNBOUND:                -0.631
REMARK  Name = 
REMARK  7 active torsions:
REMARK  status: ('A' for Active; 'I' for Inactive)
REMARK    1  A    between atoms: C_2  and  C_22
REMARK    2  A    between atoms: N_3  and  C_4
REMARK    3  A    between atoms: C_4  and  C_5
REMARK    4  A    between atoms: C_8  and  C_9
REMARK    5  A    between atoms: C_9  and  C_10
REMARK    6  A    between atoms: C_10  and  O_11
REMARK    7  A    between atoms: C_10  and  C_12
REMARK                            x       y       z     vdW  Elec       q    Type
REMARK                         _______ _______ _______ _____ _____    ______ ____
ROOT
ATOM      1  C   UNL     1      48.705   9.158  15.733  0.00  0.00    +0.000 A 
ATOM      2  C   UNL     1      49.911   8.465  15.888  0.00  0.00    +0.000 A 
ATOM      3  C   UNL     1      50.323   8.016  17.148  0.00  0.00    +0.000 A 
ATOM      4  C   UNL     1      49.534   8.243  18.283  0.00  0.00    +0.000 A 
ATOM      5  C   UNL     1      48.313   8.913  18.122  0.00  0.00    +0.000 A 
ATOM      6  C   UNL     1      47.901   9.362  16.858  0.00  0.00    +0.000 A 
ENDROOT
BRANCH   1   7
ATOM      7  C   UNL     1      48.296   9.647  14.368  0.00  0.00    +0.000 C 
BRANCH   7  10
ATOM      8  O   UNL     1      48.521   7.674  12.373  0.00  0.00    +0.000 OA
ATOM      9  C   UNL     1      47.419   7.909  12.877  0.00  0.00    +0.000 C 
ATOM     10  N   UNL     1      47.217   8.884  13.813  0.00  0.00    +0.000 N 
ATOM     11  H   UNL     1      46.370   8.872  14.369  0.00  0.00    +0.000 HD
BRANCH   9  12
ATOM     12  C   UNL     1      46.226   7.172  12.464  0.00  0.00    +0.000 A 
ATOM     13  C   UNL     1      45.185   7.777  11.762  0.00  0.00    +0.000 A 
ATOM     14  S   UNL     1      43.918   6.699  11.393  0.00  0.00    +0.000 S 
ATOM     15  C   UNL     1      44.731   5.396  12.129  0.00  0.00    +0.000 A 
ATOM     16  N   UNL     1      44.199   4.144  12.153  0.00  0.00    +0.000 NA
ATOM     17  C   UNL     1      44.947   3.258  12.720  0.00  0.00    +0.000 A 
ATOM     18  N   UNL     1      46.179   3.503  13.272  0.00  0.00    +0.000 N 
ATOM     19  C   UNL     1      46.717   4.753  13.342  0.00  0.00    +0.000 A 
ATOM     20  O   UNL     1      47.755   4.951  13.978  0.00  0.00    +0.000 OA
ATOM     21  C   UNL     1      45.941   5.778  12.676  0.00  0.00    +0.000 A 
ATOM     22  H   UNL     1      46.701   2.777  13.744  0.00  0.00    +0.000 HD
ENDBRANCH   9  12
ENDBRANCH   7  10
ENDBRANCH   1   7
BRANCH   4  23
ATOM     23  C   UNL     1      49.963   7.751  19.655  0.00  0.00    +0.000 C 
BRANCH  23  24
ATOM     24  C   UNL     1      49.974   6.217  19.792  0.00  0.00    +0.000 C 
BRANCH  24  25
ATOM     25  C   UNL     1      48.646   5.573  19.304  0.00  0.00    +0.000 C 
ATOM     26  O   UNL     1      47.597   5.726  19.930  0.00  0.00    +0.000 OA
ATOM     27  N   UNL     1      48.688   4.889  18.088  0.00  0.00    +0.000 N 
ATOM     28  C   UNL     1      47.447   4.433  17.470  0.00  0.00    +0.000 C 
ATOM     29  C   UNL     1      47.394   2.909  17.415  0.00  0.00    +0.000 C 
ATOM     30  C   UNL     1      48.648   2.335  16.751  0.00  0.00    +0.000 C 
ATOM     31  C   UNL     1      49.917   2.882  17.404  0.00  0.00    +0.000 C 
ATOM     32  C   UNL     1      49.905   4.411  17.426  0.00  0.00    +0.000 C 
ENDBRANCH  24  25
BRANCH  24  33
ATOM     33  O   UNL     1      50.304   5.873  21.139  0.00  0.00    +0.000 OA
ATOM     34  H   UNL     1      49.771   6.435  21.725  0.00  0.00    +0.000 HD
ENDBRANCH  24  33
ENDBRANCH  23  24
ENDBRANCH   4  23
TORSDOF 7
ENDMDL
