MODEL 1
REMARK VINA RESULT:    -7.755      0.000      0.000
REMARK INTER + INTRA:         -11.328
REMARK INTER:                 -10.476
REMARK INTRA:                  -0.852
REMARK UNBOUND:                -0.852
REMARK  Name = 
REMARK  6 active torsions:
REMARK  status: ('A' for Active; 'I' for Inactive)
REMARK    1  A    between atoms: C_4  and  N_5
REMARK    2  A    between atoms: N_5  and  C_6
REMARK    3  A    between atoms: C_6  and  C_7
REMARK    4  A    between atoms: C_7  and  C_8
REMARK    5  A    between atoms: C_12  and  O_13
REMARK    6  A    between atoms: O_13  and  C_14
REMARK                            x       y       z     vdW  Elec       q    Type
REMARK                         _______ _______ _______ _____ _____    ______ ____
ROOT
ATOM      1  C   UNL     1      45.418   4.409  12.154  0.00  0.00    +0.000 A 
ATOM      2  C   UNL     1      45.689   5.529  11.352  0.00  0.00    +0.000 A 
ATOM      3  C   UNL     1      46.645   6.473  11.725  0.00  0.00    +0.000 A 
ATOM      4  C   UNL     1      47.366   6.310  12.902  0.00  0.00    +0.000 A 
ATOM      5  C   UNL     1      47.144   5.188  13.699  0.00  0.00    +0.000 A 
ATOM      6  C   UNL     1      46.164   4.251  13.333  0.00  0.00    +0.000 A 
ENDROOT
BRANCH   1   7
ATOM      7  C   UNL     1      44.339   3.389  11.801  0.00  0.00    +0.000 C 
BRANCH   7   8
ATOM      8  C   UNL     1      44.154   3.226  10.288  0.00  0.00    +0.000 C 
BRANCH   8   9
ATOM      9  N   UNL     1      44.703   1.998   9.732  0.00  0.00    +0.000 N 
ATOM     10  H   UNL     1      45.116   1.369  10.414  0.00  0.00    +0.000 HD
BRANCH   9  14
ATOM     11  C   UNL     1      47.329   2.616   6.457  0.00  0.00    +0.000 A 
ATOM     12  C   UNL     1      47.224   1.351   7.013  0.00  0.00    +0.000 A 
ATOM     13  C   UNL     1      46.362   1.128   8.089  0.00  0.00    +0.000 A 
ATOM     14  C   UNL     1      45.563   2.156   8.617  0.00  0.00    +0.000 A 
ATOM     15  C   UNL     1      45.693   3.428   8.051  0.00  0.00    +0.000 A 
ATOM     16  C   UNL     1      46.568   3.661   6.983  0.00  0.00    +0.000 A 
ENDBRANCH   9  14
ENDBRANCH   8   9
ENDBRANCH   7   8
ENDBRANCH   1   7
BRANCH   5  17
ATOM     17  O   UNL     1      47.802   4.934  14.880  0.00  0.00    +0.000 OA
BRANCH  17  18
ATOM     18  C   UNL     1      47.209   4.011  15.825  0.00  0.00    +0.000 C 
ATOM     19  C   UNL     1      47.213   4.434  17.316  0.00  0.00    +0.000 C 
ATOM     20  C   UNL     1      47.681   3.020  17.687  0.00  0.00    +0.000 C 
ATOM     21  C   UNL     1      48.123   2.825  16.230  0.00  0.00    +0.000 C 
ENDBRANCH  17  18
ENDBRANCH   5  17
TORSDOF 6
ENDMDL
MODEL 2
REMARK VINA RESULT:    -6.983      1.009      1.603
REMARK INTER + INTRA:         -10.285
REMARK INTER:                  -9.659
REMARK INTRA:                  -0.625
REMARK UNBOUND:                -0.852
REMARK  Name = 
REMARK  6 active torsions:
REMARK  status: ('A' for Active; 'I' for Inactive)
REMARK    1  A    between atoms: C_4  and  N_5
REMARK    2  A    between atoms: N_5  and  C_6
REMARK    3  A    between atoms: C_6  and  C_7
REMARK    4  A    between atoms: C_7  and  C_8
REMARK    5  A    between atoms: C_12  and  O_13
REMARK    6  A    between atoms: O_13  and  C_14
REMARK                            x       y       z     vdW  Elec       q    Type
REMARK                         _______ _______ _______ _____ _____    ______ ____
ROOT
ATOM      1  C   UNL     1      46.127   5.688  12.154  0.00  0.00    +0.000 A 
ATOM      2  C   UNL     1      46.317   7.069  11.989  0.00  0.00    +0.000 A 
ATOM      3  C   UNL     1      47.100   7.804  12.880  0.00  0.00    +0.000 A 
ATOM      4  C   UNL     1      47.726   7.170  13.947  0.00  0.00    +0.000 A 
ATOM      5  C   UNL     1      47.584   5.794  14.114  0.00  0.00    +0.000 A 
ATOM      6  C   UNL     1      46.776   5.061  13.229  0.00  0.00    +0.000 A 
ENDROOT
BRANCH   1   7
ATOM      7  C   UNL     1      45.231   4.868  11.231  0.00  0.00    +0.000 C 
BRANCH   7   8
ATOM      8  C   UNL     1      45.408   5.240   9.754  0.00  0.00    +0.000 C 
BRANCH   8   9
ATOM      9  N   UNL     1      44.758   4.341   8.812  0.00  0.00    +0.000 N 
ATOM     10  H   UNL     1      43.920   3.889   9.164  0.00  0.00    +0.000 HD
BRANCH   9  14
ATOM     11  C   UNL     1      47.164   1.403   6.922  0.00  0.00    +0.000 A 
ATOM     12  C   UNL     1      47.173   2.701   6.437  0.00  0.00    +0.000 A 
ATOM     13  C   UNL     1      46.391   3.683   7.049  0.00  0.00    +0.000 A 
ATOM     14  C   UNL     1      45.602   3.398   8.177  0.00  0.00    +0.000 A 
ATOM     15  C   UNL     1      45.596   2.078   8.641  0.00  0.00    +0.000 A 
ATOM     16  C   UNL     1      46.366   1.087   8.021  0.00  0.00    +0.000 A 
ENDBRANCH   9  14
ENDBRANCH   8   9
ENDBRANCH   7   8
ENDBRANCH   1   7
BRANCH   5  17
ATOM     17  O   UNL     1      48.159   5.073  15.135  0.00  0.00    +0.000 OA
BRANCH  17  18
ATOM     18  C   UNL     1      47.341   4.136  15.875  0.00  0.00    +0.000 C 
ATOM     19  C   UNL     1      47.122   4.432  17.381  0.00  0.00    +0.000 C 
ATOM     20  C   UNL     1      47.405   2.954  17.684  0.00  0.00    +0.000 C 
ATOM     21  C   UNL     1      48.074   2.839  16.307  0.00  0.00    +0.000 C 
ENDBRANCH  17  18
ENDBRANCH   5  17
TORSDOF 6
ENDMDL
MODEL 3
REMARK VINA RESULT:    -6.936      1.934      3.525
REMARK INTER + INTRA:         -10.221
REMARK INTER:                  -9.434
REMARK INTRA:                  -0.787
REMARK UNBOUND:                -0.852
REMARK  Name = 
REMARK  6 active torsions:
REMARK  status: ('A' for Active; 'I' for Inactive)
REMARK    1  A    between atoms: C_4  and  N_5
REMARK    2  A    between atoms: N_5  and  C_6
REMARK    3  A    between atoms: C_6  and  C_7
REMARK    4  A    between atoms: C_7  and  C_8
REMARK    5  A    between atoms: C_12  and  O_13
REMARK    6  A    between atoms: O_13  and  C_14
REMARK                            x       y       z     vdW  Elec       q    Type
REMARK                         _______ _______ _______ _____ _____    ______ ____
ROOT
ATOM      1  C   UNL     1      44.793   4.646  11.774  0.00  0.00    +0.000 A 
ATOM      2  C   UNL     1      45.375   3.525  12.388  0.00  0.00    +0.000 A 
ATOM      3  C   UNL     1      46.417   3.660  13.305  0.00  0.00    +0.000 A 
ATOM      4  C   UNL     1      46.890   4.923  13.644  0.00  0.00    +0.000 A 
ATOM      5  C   UNL     1      46.306   6.055  13.079  0.00  0.00    +0.000 A 
ATOM      6  C   UNL     1      45.273   5.914  12.138  0.00  0.00    +0.000 A 
ENDROOT
BRANCH   1   7
ATOM      7  C   UNL     1      43.691   4.527  10.725  0.00  0.00    +0.000 C 
BRANCH   7   8
ATOM      8  C   UNL     1      44.245   4.323   9.310  0.00  0.00    +0.000 C 
BRANCH   8   9
ATOM      9  N   UNL     1      44.340   2.934   8.884  0.00  0.00    +0.000 N 
ATOM     10  H   UNL     1      44.229   2.252   9.627  0.00  0.00    +0.000 HD
BRANCH   9  14
ATOM     11  C   UNL     1      47.631   1.816   6.452  0.00  0.00    +0.000 A 
ATOM     12  C   UNL     1      47.037   3.052   6.261  0.00  0.00    +0.000 A 
ATOM     13  C   UNL     1      45.954   3.439   7.054  0.00  0.00    +0.000 A 
ATOM     14  C   UNL     1      45.458   2.612   8.077  0.00  0.00    +0.000 A 
ATOM     15  C   UNL     1      46.064   1.362   8.244  0.00  0.00    +0.000 A 
ATOM     16  C   UNL     1      47.139   0.963   7.440  0.00  0.00    +0.000 A 
ENDBRANCH   9  14
ENDBRANCH   8   9
ENDBRANCH   7   8
ENDBRANCH   1   7
BRANCH   5  17
ATOM     17  O   UNL     1      46.700   7.346  13.345  0.00  0.00    +0.000 OA
BRANCH  17  18
ATOM     18  C   UNL     1      48.070   7.728  13.077  0.00  0.00    +0.000 C 
ATOM     19  C   UNL     1      48.356   9.241  12.903  0.00  0.00    +0.000 C 
ATOM     20  C   UNL     1      49.214   8.909  11.674  0.00  0.00    +0.000 C 
ATOM     21  C   UNL     1      48.515   7.544  11.603  0.00  0.00    +0.000 C 
ENDBRANCH  17  18
ENDBRANCH   5  17
TORSDOF 6
ENDMDL
MODEL 4
REMARK VINA RESULT:    -6.918      1.923      3.833
REMARK INTER + INTRA:         -10.197
REMARK INTER:                  -9.510
REMARK INTRA:                  -0.686
REMARK UNBOUND:                -0.852
REMARK  Name = 
REMARK  6 active torsions:
REMARK  status: ('A' for Active; 'I' for Inactive)
REMARK    1  A    between atoms: C_4  and  N_5
REMARK    2  A    between atoms: N_5  and  C_6
REMARK    3  A    between atoms: C_6  and  C_7
REMARK    4  A    between atoms: C_7  and  C_8
REMARK    5  A    between atoms: C_12  and  O_13
REMARK    6  A    between atoms: O_13  and  C_14
REMARK                            x       y       z     vdW  Elec       q    Type
REMARK                         _______ _______ _______ _____ _____    ______ ____
ROOT
ATOM      1  C   UNL     1      44.812   3.990  12.244  0.00  0.00    +0.000 A 
ATOM      2  C   UNL     1      45.914   3.395  12.879  0.00  0.00    +0.000 A 
ATOM      3  C   UNL     1      46.849   4.161  13.575  0.00  0.00    +0.000 A 
ATOM      4  C   UNL     1      46.694   5.539  13.667  0.00  0.00    +0.000 A 
ATOM      5  C   UNL     1      45.590   6.152  13.079  0.00  0.00    +0.000 A 
ATOM      6  C   UNL     1      44.663   5.381  12.358  0.00  0.00    +0.000 A 
ENDROOT
BRANCH   1   7
ATOM      7  C   UNL     1      43.804   3.186  11.427  0.00  0.00    +0.000 C 
BRANCH   7   8
ATOM      8  C   UNL     1      44.120   3.195   9.927  0.00  0.00    +0.000 C 
BRANCH   8   9
ATOM      9  N   UNL     1      44.721   1.970   9.419  0.00  0.00    +0.000 N 
ATOM     10  H   UNL     1      45.102   1.356  10.132  0.00  0.00    +0.000 HD
BRANCH   9  14
ATOM     11  C   UNL     1      47.511   2.604   6.287  0.00  0.00    +0.000 A 
ATOM     12  C   UNL     1      47.510   1.392   6.960  0.00  0.00    +0.000 A 
ATOM     13  C   UNL     1      46.596   1.164   7.991  0.00  0.00    +0.000 A 
ATOM     14  C   UNL     1      45.643   2.130   8.356  0.00  0.00    +0.000 A 
ATOM     15  C   UNL     1      45.670   3.351   7.674  0.00  0.00    +0.000 A 
ATOM     16  C   UNL     1      46.594   3.591   6.651  0.00  0.00    +0.000 A 
ENDBRANCH   9  14
ENDBRANCH   8   9
ENDBRANCH   7   8
ENDBRANCH   1   7
BRANCH   5  17
ATOM     17  O   UNL     1      45.344   7.505  13.111  0.00  0.00    +0.000 OA
BRANCH  17  18
ATOM     18  C   UNL     1      45.880   8.338  12.055  0.00  0.00    +0.000 C 
ATOM     19  C   UNL     1      47.039   9.294  12.433  0.00  0.00    +0.000 C 
ATOM     20  C   UNL     1      46.335  10.412  11.653  0.00  0.00    +0.000 C 
ATOM     21  C   UNL     1      45.035   9.599  11.735  0.00  0.00    +0.000 C 
ENDBRANCH  17  18
ENDBRANCH   5  17
TORSDOF 6
ENDMDL
MODEL 5
REMARK VINA RESULT:    -6.475      3.295      5.567
REMARK INTER + INTRA:          -9.598
REMARK INTER:                  -8.912
REMARK INTRA:                  -0.686
REMARK UNBOUND:                -0.852
REMARK  Name = 
REMARK  6 active torsions:
REMARK  status: ('A' for Active; 'I' for Inactive)
REMARK    1  A    between atoms: C_4  and  N_5
REMARK    2  A    between atoms: N_5  and  C_6
REMARK    3  A    between atoms: C_6  and  C_7
REMARK    4  A    between atoms: C_7  and  C_8
REMARK    5  A    between atoms: C_12  and  O_13
REMARK    6  A    between atoms: O_13  and  C_14
REMARK                            x       y       z     vdW  Elec       q    Type
REMARK                         _______ _______ _______ _____ _____    ______ ____
ROOT
ATOM      1  C   UNL     1      45.848   6.335  11.464  0.00  0.00    +0.000 A 
ATOM      2  C   UNL     1      47.113   6.676  11.969  0.00  0.00    +0.000 A 
ATOM      3  C   UNL     1      47.406   7.979  12.370  0.00  0.00    +0.000 A 
ATOM      4  C   UNL     1      46.433   8.970  12.293  0.00  0.00    +0.000 A 
ATOM      5  C   UNL     1      45.157   8.651  11.830  0.00  0.00    +0.000 A 
ATOM      6  C   UNL     1      44.873   7.343  11.405  0.00  0.00    +0.000 A 
ENDROOT
BRANCH   1   7
ATOM      7  C   UNL     1      45.516   4.932  10.964  0.00  0.00    +0.000 C 
BRANCH   7   8
ATOM      8  C   UNL     1      44.078   4.818  10.443  0.00  0.00    +0.000 C 
BRANCH   8   9
ATOM      9  N   UNL     1      43.963   4.472   9.033  0.00  0.00    +0.000 N 
ATOM     10  H   UNL     1      43.044   4.145   8.749  0.00  0.00    +0.000 HD
BRANCH   9  14
ATOM     11  C   UNL     1      46.870   1.800   7.482  0.00  0.00    +0.000 A 
ATOM     12  C   UNL     1      46.909   3.134   7.111  0.00  0.00    +0.000 A 
ATOM     13  C   UNL     1      45.963   4.030   7.614  0.00  0.00    +0.000 A 
ATOM     14  C   UNL     1      44.972   3.619   8.523  0.00  0.00    +0.000 A 
ATOM     15  C   UNL     1      44.942   2.265   8.874  0.00  0.00    +0.000 A 
ATOM     16  C   UNL     1      45.879   1.361   8.360  0.00  0.00    +0.000 A 
ENDBRANCH   9  14
ENDBRANCH   8   9
ENDBRANCH   7   8
ENDBRANCH   1   7
BRANCH   5  17
ATOM     17  O   UNL     1      44.127   9.555  11.714  0.00  0.00    +0.000 OA
BRANCH  17  18
ATOM     18  C   UNL     1      43.465   9.699  10.434  0.00  0.00    +0.000 C 
ATOM     19  C   UNL     1      43.904  10.892   9.547  0.00  0.00    +0.000 C 
ATOM     20  C   UNL     1      42.424  11.193   9.268  0.00  0.00    +0.000 C 
ATOM     21  C   UNL     1      42.062  10.355  10.503  0.00  0.00    +0.000 C 
ENDBRANCH  17  18
ENDBRANCH   5  17
TORSDOF 6
ENDMDL
MODEL 6
REMARK VINA RESULT:    -6.427      3.243      7.355
REMARK INTER + INTRA:          -9.534
REMARK INTER:                  -8.835
REMARK INTRA:                  -0.698
REMARK UNBOUND:                -0.852
REMARK  Name = 
REMARK  6 active torsions:
REMARK  status: ('A' for Active; 'I' for Inactive)
REMARK    1  A    between atoms: C_4  and  N_5
REMARK    2  A    between atoms: N_5  and  C_6
REMARK    3  A    between atoms: C_6  and  C_7
REMARK    4  A    between atoms: C_7  and  C_8
REMARK    5  A    between atoms: C_12  and  O_13
REMARK    6  A    between atoms: O_13  and  C_14
REMARK                            x       y       z     vdW  Elec       q    Type
REMARK                         _______ _______ _______ _____ _____    ______ ____
ROOT
ATOM      1  C   UNL     1      45.157   5.187  11.093  0.00  0.00    +0.000 A 
ATOM      2  C   UNL     1      44.384   4.161  11.661  0.00  0.00    +0.000 A 
ATOM      3  C   UNL     1      43.900   3.106  10.888  0.00  0.00    +0.000 A 
ATOM      4  C   UNL     1      44.194   3.042   9.530  0.00  0.00    +0.000 A 
ATOM      5  C   UNL     1      44.990   4.026   8.948  0.00  0.00    +0.000 A 
ATOM      6  C   UNL     1      45.455   5.100   9.724  0.00  0.00    +0.000 A 
ENDROOT
BRANCH   1   7
ATOM      7  C   UNL     1      45.652   6.384  11.901  0.00  0.00    +0.000 C 
BRANCH   7   8
ATOM      8  C   UNL     1      46.504   5.969  13.106  0.00  0.00    +0.000 C 
BRANCH   8   9
ATOM      9  N   UNL     1      47.150   7.069  13.808  0.00  0.00    +0.000 N 
ATOM     10  H   UNL     1      46.518   7.674  14.323  0.00  0.00    +0.000 HD
BRANCH   9  14
ATOM     11  C   UNL     1      49.901   9.242  11.419  0.00  0.00    +0.000 A 
ATOM     12  C   UNL     1      48.753   9.870  11.871  0.00  0.00    +0.000 A 
ATOM     13  C   UNL     1      47.837   9.172  12.662  0.00  0.00    +0.000 A 
ATOM     14  C   UNL     1      48.061   7.838  13.044  0.00  0.00    +0.000 A 
ATOM     15  C   UNL     1      49.220   7.218  12.565  0.00  0.00    +0.000 A 
ATOM     16  C   UNL     1      50.133   7.908  11.758  0.00  0.00    +0.000 A 
ENDBRANCH   9  14
ENDBRANCH   8   9
ENDBRANCH   7   8
ENDBRANCH   1   7
BRANCH   5  17
ATOM     17  O   UNL     1      45.337   4.057   7.617  0.00  0.00    +0.000 OA
BRANCH  17  18
ATOM     18  C   UNL     1      46.629   3.540   7.220  0.00  0.00    +0.000 C 
ATOM     19  C   UNL     1      46.805   3.157   5.729  0.00  0.00    +0.000 C 
ATOM     20  C   UNL     1      47.488   1.856   6.172  0.00  0.00    +0.000 C 
ATOM     21  C   UNL     1      46.860   2.045   7.560  0.00  0.00    +0.000 C 
ENDBRANCH  17  18
ENDBRANCH   5  17
TORSDOF 6
ENDMDL
MODEL 7
REMARK VINA RESULT:    -6.393      2.456      7.666
REMARK INTER + INTRA:          -9.487
REMARK INTER:                  -8.877
REMARK INTRA:                  -0.610
REMARK UNBOUND:                -0.852
REMARK  Name = 
REMARK  6 active torsions:
REMARK  status: ('A' for Active; 'I' for Inactive)
REMARK    1  A    between atoms: C_4  and  N_5
REMARK    2  A    between atoms: N_5  and  C_6
REMARK    3  A    between atoms: C_6  and  C_7
REMARK    4  A    between atoms: C_7  and  C_8
REMARK    5  A    between atoms: C_12  and  O_13
REMARK    6  A    between atoms: O_13  and  C_14
REMARK                            x       y       z     vdW  Elec       q    Type
REMARK                         _______ _______ _______ _____ _____    ______ ____
ROOT
ATOM      1  C   UNL     1      45.223   5.479  12.619  0.00  0.00    +0.000 A 
ATOM      2  C   UNL     1      43.874   5.824  12.803  0.00  0.00    +0.000 A 
ATOM      3  C   UNL     1      42.852   5.110  12.181  0.00  0.00    +0.000 A 
ATOM      4  C   UNL     1      43.153   4.019  11.371  0.00  0.00    +0.000 A 
ATOM      5  C   UNL     1      44.480   3.631  11.200  0.00  0.00    +0.000 A 
ATOM      6  C   UNL     1      45.509   4.368  11.810  0.00  0.00    +0.000 A 
ENDROOT
BRANCH   1   7
ATOM      7  C   UNL     1      46.366   6.276  13.240  0.00  0.00    +0.000 C 
BRANCH   7   8
ATOM      8  C   UNL     1      47.351   5.389  14.011  0.00  0.00    +0.000 C 
BRANCH   8   9
ATOM      9  N   UNL     1      47.880   5.978  15.233  0.00  0.00    +0.000 N 
ATOM     10  H   UNL     1      48.698   6.566  15.103  0.00  0.00    +0.000 HD
BRANCH   9  14
ATOM     11  C   UNL     1      48.442   3.172  18.365  0.00  0.00    +0.000 A 
ATOM     12  C   UNL     1      49.317   4.240  18.246  0.00  0.00    +0.000 A 
ATOM     13  C   UNL     1      49.146   5.176  17.224  0.00  0.00    +0.000 A 
ATOM     14  C   UNL     1      48.079   5.084  16.313  0.00  0.00    +0.000 A 
ATOM     15  C   UNL     1      47.216   3.991  16.442  0.00  0.00    +0.000 A 
ATOM     16  C   UNL     1      47.393   3.041  17.455  0.00  0.00    +0.000 A 
ENDBRANCH   9  14
ENDBRANCH   8   9
ENDBRANCH   7   8
ENDBRANCH   1   7
BRANCH   5  17
ATOM     17  O   UNL     1      44.884   2.572  10.422  0.00  0.00    +0.000 OA
BRANCH  17  18
ATOM     18  C   UNL     1      44.804   2.692   8.982  0.00  0.00    +0.000 C 
ATOM     19  C   UNL     1      45.956   2.062   8.159  0.00  0.00    +0.000 C 
ATOM     20  C   UNL     1      46.006   3.337   7.305  0.00  0.00    +0.000 C 
ATOM     21  C   UNL     1      45.248   4.068   8.422  0.00  0.00    +0.000 C 
ENDBRANCH  17  18
ENDBRANCH   5  17
TORSDOF 6
ENDMDL
MODEL 8
REMARK VINA RESULT:    -6.341      2.350      7.266
REMARK INTER + INTRA:          -9.417
REMARK INTER:                  -8.565
REMARK INTRA:                  -0.852
REMARK UNBOUND:                -0.852
REMARK  Name = 
REMARK  6 active torsions:
REMARK  status: ('A' for Active; 'I' for Inactive)
REMARK    1  A    between atoms: C_4  and  N_5
REMARK    2  A    between atoms: N_5  and  C_6
REMARK    3  A    between atoms: C_6  and  C_7
REMARK    4  A    between atoms: C_7  and  C_8
REMARK    5  A    between atoms: C_12  and  O_13
REMARK    6  A    between atoms: O_13  and  C_14
REMARK                            x       y       z     vdW  Elec       q    Type
REMARK                         _______ _______ _______ _____ _____    ______ ____
ROOT
ATOM      1  C   UNL     1      44.794   5.162  10.947  0.00  0.00    +0.000 A 
ATOM      2  C   UNL     1      43.904   4.705  11.932  0.00  0.00    +0.000 A 
ATOM      3  C   UNL     1      43.363   3.421  11.880  0.00  0.00    +0.000 A 
ATOM      4  C   UNL     1      43.713   2.556  10.850  0.00  0.00    +0.000 A 
ATOM      5  C   UNL     1      44.623   2.970   9.878  0.00  0.00    +0.000 A 
ATOM      6  C   UNL     1      45.148   4.272   9.920  0.00  0.00    +0.000 A 
ENDROOT
BRANCH   1   7
ATOM      7  C   UNL     1      45.358   6.580  10.945  0.00  0.00    +0.000 C 
BRANCH   7   8
ATOM      8  C   UNL     1      46.026   6.950  12.274  0.00  0.00    +0.000 C 
BRANCH   8   9
ATOM      9  N   UNL     1      47.308   6.303  12.517  0.00  0.00    +0.000 N 
ATOM     10  H   UNL     1      47.540   5.560  11.865  0.00  0.00    +0.000 HD
BRANCH   9  14
ATOM     11  C   UNL     1      48.023   4.896  16.455  0.00  0.00    +0.000 A 
ATOM     12  C   UNL     1      48.667   6.042  16.017  0.00  0.00    +0.000 A 
ATOM     13  C   UNL     1      48.441   6.522  14.726  0.00  0.00    +0.000 A 
ATOM     14  C   UNL     1      47.544   5.885  13.850  0.00  0.00    +0.000 A 
ATOM     15  C   UNL     1      46.915   4.723  14.307  0.00  0.00    +0.000 A 
ATOM     16  C   UNL     1      47.151   4.228  15.595  0.00  0.00    +0.000 A 
ENDBRANCH   9  14
ENDBRANCH   8   9
ENDBRANCH   7   8
ENDBRANCH   1   7
BRANCH   5  17
ATOM     17  O   UNL     1      45.033   2.194   8.820  0.00  0.00    +0.000 OA
BRANCH  17  18
ATOM     18  C   UNL     1      46.264   2.536   8.138  0.00  0.00    +0.000 C 
ATOM     19  C   UNL     1      46.134   3.223   6.756  0.00  0.00    +0.000 C 
ATOM     20  C   UNL     1      47.217   2.279   6.215  0.00  0.00    +0.000 C 
ATOM     21  C   UNL     1      46.949   1.351   7.409  0.00  0.00    +0.000 C 
ENDBRANCH  17  18
ENDBRANCH   5  17
TORSDOF 6
ENDMDL
MODEL 9
REMARK VINA RESULT:    -5.658      2.731      7.341
REMARK INTER + INTRA:          -8.495
REMARK INTER:                  -7.653
REMARK INTRA:                  -0.842
REMARK UNBOUND:                -0.852
REMARK  Name = 
REMARK  6 active torsions:
REMARK  status: ('A' for Active; 'I' for Inactive)
REMARK    1  A    between atoms: C_4  and  N_5
REMARK    2  A    between atoms: N_5  and  C_6
REMARK    3  A    between atoms: C_6  and  C_7
REMARK    4  A    between atoms: C_7  and  C_8
REMARK    5  A    between atoms: C_12  and  O_13
REMARK    6  A    between atoms: O_13  and  C_14
REMARK                            x       y       z     vdW  Elec       q    Type
REMARK                         _______ _______ _______ _____ _____    ______ ____
ROOT
ATOM      1  C   UNL     1      47.281   7.059  12.584  0.00  0.00    +0.000 A 
ATOM      2  C   UNL     1      46.837   8.391  12.621  0.00  0.00    +0.000 A 
ATOM      3  C   UNL     1      45.587   8.752  12.121  0.00  0.00    +0.000 A 
ATOM      4  C   UNL     1      44.741   7.785  11.587  0.00  0.00    +0.000 A 
ATOM      5  C   UNL     1      45.141   6.450  11.571  0.00  0.00    +0.000 A 
ATOM      6  C   UNL     1      46.411   6.093  12.054  0.00  0.00    +0.000 A 
ENDROOT
BRANCH   1   7
ATOM      7  C   UNL     1      48.666   6.642  13.070  0.00  0.00    +0.000 C 
BRANCH   7   8
ATOM      8  C   UNL     1      48.906   7.002  14.541  0.00  0.00    +0.000 C 
BRANCH   8   9
ATOM      9  N   UNL     1      47.922   6.471  15.472  0.00  0.00    +0.000 N 
ATOM     10  H   UNL     1      47.508   7.159  16.093  0.00  0.00    +0.000 HD
BRANCH   9  14
ATOM     11  C   UNL     1      49.076   2.937  17.516  0.00  0.00    +0.000 A 
ATOM     12  C   UNL     1      49.829   4.089  17.675  0.00  0.00    +0.000 A 
ATOM     13  C   UNL     1      49.462   5.263  17.014  0.00  0.00    +0.000 A 
ATOM     14  C   UNL     1      48.318   5.322  16.199  0.00  0.00    +0.000 A 
ATOM     15  C   UNL     1      47.579   4.144  16.041  0.00  0.00    +0.000 A 
ATOM     16  C   UNL     1      47.952   2.961  16.689  0.00  0.00    +0.000 A 
ENDBRANCH   9  14
ENDBRANCH   8   9
ENDBRANCH   7   8
ENDBRANCH   1   7
BRANCH   5  17
ATOM     17  O   UNL     1      44.383   5.420  11.066  0.00  0.00    +0.000 OA
BRANCH  17  18
ATOM     18  C   UNL     1      45.053   4.304  10.432  0.00  0.00    +0.000 C 
ATOM     19  C   UNL     1      45.244   4.380   8.896  0.00  0.00    +0.000 C 
ATOM     20  C   UNL     1      44.776   2.922   8.793  0.00  0.00    +0.000 C 
ATOM     21  C   UNL     1      44.155   3.063  10.190  0.00  0.00    +0.000 C 
ENDBRANCH  17  18
ENDBRANCH   5  17
TORSDOF 6
ENDMDL
