MODEL 1
REMARK VINA RESULT:    -6.684      0.000      0.000
REMARK INTER + INTRA:         -11.037
REMARK INTER:                  -9.810
REMARK INTRA:                  -1.227
REMARK UNBOUND:                -1.227
REMARK  Name = 
REMARK  9 active torsions:
REMARK  status: ('A' for Active; 'I' for Inactive)
REMARK    1  A    between atoms: C_1  and  O_2
REMARK    2  A    between atoms: O_2  and  C_3
REMARK    3  A    between atoms: C_3  and  C_4
REMARK    4  A    between atoms: C_4  and  N_5
REMARK    5  A    between atoms: N_5  and  C_6
REMARK    6  A    between atoms: C_6  and  C_7
REMARK    7  A    between atoms: C_10  and  C_11
REMARK    8  A    between atoms: C_11  and  N_12
REMARK    9  A    between atoms: C_20  and  C_22
REMARK                            x       y       z     vdW  Elec       q    Type
REMARK                         _______ _______ _______ _____ _____    ______ ____
ROOT
ATOM      1  N   UNL     1      46.013   7.075  12.129  0.00  0.00    +0.000 N 
ATOM      2  C   UNL     1      44.743   6.684  11.656  0.00  0.00    +0.000 C 
ATOM      3  O   UNL     1      43.885   7.526  11.382  0.00  0.00    +0.000 OA
ENDROOT
BRANCH   2   4
ATOM      4  C   UNL     1      44.421   5.250  11.491  0.00  0.00    +0.000 A 
ATOM      5  C   UNL     1      43.636   4.509  12.363  0.00  0.00    +0.000 A 
ATOM      6  S   UNL     1      43.448   2.876  11.905  0.00  0.00    +0.000 S 
ATOM      7  C   UNL     1      44.264   3.140  10.437  0.00  0.00    +0.000 A 
ATOM      8  N   UNL     1      44.375   2.145   9.515  0.00  0.00    +0.000 NA
ATOM      9  C   UNL     1      44.966   2.504   8.426  0.00  0.00    +0.000 A 
ATOM     10  N   UNL     1      45.491   3.751   8.190  0.00  0.00    +0.000 N 
ATOM     11  C   UNL     1      45.514   4.748   9.145  0.00  0.00    +0.000 A 
ATOM     12  O   UNL     1      46.177   5.763   8.975  0.00  0.00    +0.000 OA
ATOM     13  C   UNL     1      44.760   4.429  10.346  0.00  0.00    +0.000 A 
ATOM     14  H   UNL     1      45.995   3.945   7.337  0.00  0.00    +0.000 HD
ENDBRANCH   2   4
BRANCH   1  15
ATOM     15  C   UNL     1      46.266   8.524  12.282  0.00  0.00    +0.000 C 
BRANCH  15  16
ATOM     16  C   UNL     1      47.713   9.010  12.085  0.00  0.00    +0.000 C 
BRANCH  16  18
ATOM     17  C   UNL     1      48.627  10.998  12.945  0.00  0.00    +0.000 C 
ATOM     18  O   UNL     1      48.227   9.658  13.257  0.00  0.00    +0.000 OA
ENDBRANCH  16  18
ENDBRANCH  15  16
ENDBRANCH   1  15
BRANCH   1  19
ATOM     19  C   UNL     1      47.064   6.109  12.447  0.00  0.00    +0.000 C 
BRANCH  19  20
ATOM     20  C   UNL     1      47.341   5.742  13.877  0.00  0.00    +0.000 A 
ATOM     21  C   UNL     1      48.268   6.448  14.645  0.00  0.00    +0.000 A 
ATOM     22  C   UNL     1      48.646   5.952  15.890  0.00  0.00    +0.000 A 
ATOM     23  C   UNL     1      48.064   4.778  16.357  0.00  0.00    +0.000 A 
ATOM     24  N   UNL     1      47.113   4.111  15.652  0.00  0.00    +0.000 NA
ATOM     25  C   UNL     1      46.781   4.599  14.437  0.00  0.00    +0.000 A 
BRANCH  23  26
ATOM     26  C   UNL     1      48.526   4.156  17.660  0.00  0.00    +0.000 C 
BRANCH  26  27
ATOM     27  N   UNL     1      47.865   4.570  18.898  0.00  0.00    +0.000 NA
ATOM     28  C   UNL     1      47.054   5.790  18.791  0.00  0.00    +0.000 C 
ATOM     29  C   UNL     1      47.742   7.083  19.258  0.00  0.00    +0.000 C 
ATOM     30  O   UNL     1      48.320   6.927  20.560  0.00  0.00    +0.000 OA
ATOM     31  C   UNL     1      49.296   5.883  20.541  0.00  0.00    +0.000 C 
ATOM     32  C   UNL     1      48.678   4.540  20.116  0.00  0.00    +0.000 C 
ENDBRANCH  26  27
ENDBRANCH  23  26
ENDBRANCH  19  20
ENDBRANCH   1  19
TORSDOF 8
ENDMDL
MODEL 2
REMARK VINA RESULT:    -6.575      1.601      2.131
REMARK INTER + INTRA:         -10.878
REMARK INTER:                  -9.493
REMARK INTRA:                  -1.384
REMARK UNBOUND:                -1.227
REMARK  Name = 
REMARK  9 active torsions:
REMARK  status: ('A' for Active; 'I' for Inactive)
REMARK    1  A    between atoms: C_1  and  O_2
REMARK    2  A    between atoms: O_2  and  C_3
REMARK    3  A    between atoms: C_3  and  C_4
REMARK    4  A    between atoms: C_4  and  N_5
REMARK    5  A    between atoms: N_5  and  C_6
REMARK    6  A    between atoms: C_6  and  C_7
REMARK    7  A    between atoms: C_10  and  C_11
REMARK    8  A    between atoms: C_11  and  N_12
REMARK    9  A    between atoms: C_20  and  C_22
REMARK                            x       y       z     vdW  Elec       q    Type
REMARK                         _______ _______ _______ _____ _____    ______ ____
ROOT
ATOM      1  N   UNL     1      46.729   7.415  12.121  0.00  0.00    +0.000 N 
ATOM      2  C   UNL     1      45.362   7.234  11.824  0.00  0.00    +0.000 C 
ATOM      3  O   UNL     1      44.638   8.199  11.570  0.00  0.00    +0.000 OA
ENDROOT
BRANCH   2   4
ATOM      4  C   UNL     1      44.775   5.877  11.826  0.00  0.00    +0.000 A 
ATOM      5  C   UNL     1      43.975   5.360  12.836  0.00  0.00    +0.000 A 
ATOM      6  S   UNL     1      43.451   3.761  12.552  0.00  0.00    +0.000 S 
ATOM      7  C   UNL     1      44.128   3.761  10.993  0.00  0.00    +0.000 A 
ATOM      8  N   UNL     1      43.955   2.698  10.160  0.00  0.00    +0.000 NA
ATOM      9  C   UNL     1      44.472   2.860   8.989  0.00  0.00    +0.000 A 
ATOM     10  N   UNL     1      45.179   3.968   8.588  0.00  0.00    +0.000 N 
ATOM     11  C   UNL     1      45.486   5.010   9.439  0.00  0.00    +0.000 A 
ATOM     12  O   UNL     1      46.295   5.869   9.112  0.00  0.00    +0.000 OA
ATOM     13  C   UNL     1      44.830   4.925  10.734  0.00  0.00    +0.000 A 
ATOM     14  H   UNL     1      45.609   4.003   7.675  0.00  0.00    +0.000 HD
ENDBRANCH   2   4
BRANCH   1  15
ATOM     15  C   UNL     1      47.250   8.798  12.115  0.00  0.00    +0.000 C 
BRANCH  15  16
ATOM     16  C   UNL     1      48.726   8.993  11.723  0.00  0.00    +0.000 C 
BRANCH  16  18
ATOM     17  C   UNL     1      48.607  10.134  13.775  0.00  0.00    +0.000 C 
ATOM     18  O   UNL     1      49.486   9.599  12.778  0.00  0.00    +0.000 OA
ENDBRANCH  16  18
ENDBRANCH  15  16
ENDBRANCH   1  15
BRANCH   1  19
ATOM     19  C   UNL     1      47.624   6.295  12.411  0.00  0.00    +0.000 C 
BRANCH  19  20
ATOM     20  C   UNL     1      47.808   5.825  13.826  0.00  0.00    +0.000 A 
ATOM     21  C   UNL     1      47.132   4.707  14.316  0.00  0.00    +0.000 A 
ATOM     22  C   UNL     1      47.168   4.427  15.680  0.00  0.00    +0.000 A 
ATOM     23  C   UNL     1      47.908   5.253  16.521  0.00  0.00    +0.000 A 
ATOM     24  N   UNL     1      48.623   6.308  16.053  0.00  0.00    +0.000 NA
ATOM     25  C   UNL     1      48.553   6.573  14.731  0.00  0.00    +0.000 A 
BRANCH  23  26
ATOM     26  C   UNL     1      47.885   5.039  18.022  0.00  0.00    +0.000 C 
BRANCH  26  27
ATOM     27  N   UNL     1      48.897   4.161  18.611  0.00  0.00    +0.000 NA
ATOM     28  C   UNL     1      50.245   4.737  18.699  0.00  0.00    +0.000 C 
ATOM     29  C   UNL     1      51.208   4.339  17.568  0.00  0.00    +0.000 C 
ATOM     30  O   UNL     1      51.236   2.918  17.382  0.00  0.00    +0.000 OA
ATOM     31  C   UNL     1      49.930   2.443  17.045  0.00  0.00    +0.000 C 
ATOM     32  C   UNL     1      48.908   2.772  18.147  0.00  0.00    +0.000 C 
ENDBRANCH  26  27
ENDBRANCH  23  26
ENDBRANCH  19  20
ENDBRANCH   1  19
TORSDOF 8
ENDMDL
MODEL 3
REMARK VINA RESULT:    -6.532      2.015      2.916
REMARK INTER + INTRA:         -10.814
REMARK INTER:                  -9.448
REMARK INTRA:                  -1.366
REMARK UNBOUND:                -1.227
REMARK  Name = 
REMARK  9 active torsions:
REMARK  status: ('A' for Active; 'I' for Inactive)
REMARK    1  A    between atoms: C_1  and  O_2
REMARK    2  A    between atoms: O_2  and  C_3
REMARK    3  A    between atoms: C_3  and  C_4
REMARK    4  A    between atoms: C_4  and  N_5
REMARK    5  A    between atoms: N_5  and  C_6
REMARK    6  A    between atoms: C_6  and  C_7
REMARK    7  A    between atoms: C_10  and  C_11
REMARK    8  A    between atoms: C_11  and  N_12
REMARK    9  A    between atoms: C_20  and  C_22
REMARK                            x       y       z     vdW  Elec       q    Type
REMARK                         _______ _______ _______ _____ _____    ______ ____
ROOT
ATOM      1  N   UNL     1      46.471   7.402  12.243  0.00  0.00    +0.000 N 
ATOM      2  C   UNL     1      45.351   7.240  11.402  0.00  0.00    +0.000 C 
ATOM      3  O   UNL     1      44.555   8.165  11.224  0.00  0.00    +0.000 OA
ENDROOT
BRANCH   2   4
ATOM      4  C   UNL     1      45.110   5.947  10.726  0.00  0.00    +0.000 A 
ATOM      5  C   UNL     1      45.623   5.594   9.485  0.00  0.00    +0.000 A 
ATOM      6  S   UNL     1      45.165   4.033   8.968  0.00  0.00    +0.000 S 
ATOM      7  C   UNL     1      44.409   3.705  10.455  0.00  0.00    +0.000 A 
ATOM      8  N   UNL     1      43.879   2.478  10.710  0.00  0.00    +0.000 NA
ATOM      9  C   UNL     1      43.391   2.354  11.898  0.00  0.00    +0.000 A 
ATOM     10  N   UNL     1      43.349   3.354  12.839  0.00  0.00    +0.000 N 
ATOM     11  C   UNL     1      43.758   4.647  12.578  0.00  0.00    +0.000 A 
ATOM     12  O   UNL     1      43.505   5.554  13.361  0.00  0.00    +0.000 OA
ATOM     13  C   UNL     1      44.418   4.807  11.293  0.00  0.00    +0.000 A 
ATOM     14  H   UNL     1      42.897   3.206  13.729  0.00  0.00    +0.000 HD
ENDBRANCH   2   4
BRANCH   1  15
ATOM     15  C   UNL     1      46.647   8.716  12.898  0.00  0.00    +0.000 C 
BRANCH  15  16
ATOM     16  C   UNL     1      47.941   9.489  12.588  0.00  0.00    +0.000 C 
BRANCH  16  18
ATOM     17  C   UNL     1      46.440  11.098  11.759  0.00  0.00    +0.000 C 
ATOM     18  O   UNL     1      47.735  10.506  11.597  0.00  0.00    +0.000 OA
ENDBRANCH  16  18
ENDBRANCH  15  16
ENDBRANCH   1  15
BRANCH   1  19
ATOM     19  C   UNL     1      47.446   6.335  12.466  0.00  0.00    +0.000 C 
BRANCH  19  20
ATOM     20  C   UNL     1      47.662   5.788  13.848  0.00  0.00    +0.000 A 
ATOM     21  C   UNL     1      46.911   4.717  14.333  0.00  0.00    +0.000 A 
ATOM     22  C   UNL     1      46.995   4.375  15.681  0.00  0.00    +0.000 A 
ATOM     23  C   UNL     1      47.854   5.092  16.509  0.00  0.00    +0.000 A 
ATOM     24  N   UNL     1      48.640   6.096  16.041  0.00  0.00    +0.000 NA
ATOM     25  C   UNL     1      48.523   6.424  14.736  0.00  0.00    +0.000 A 
BRANCH  23  26
ATOM     26  C   UNL     1      47.894   4.815  17.999  0.00  0.00    +0.000 C 
BRANCH  26  27
ATOM     27  N   UNL     1      48.864   3.839  18.496  0.00  0.00    +0.000 NA
ATOM     28  C   UNL     1      50.230   4.351  18.668  0.00  0.00    +0.000 C 
ATOM     29  C   UNL     1      51.198   4.051  17.512  0.00  0.00    +0.000 C 
ATOM     30  O   UNL     1      51.179   2.661  17.163  0.00  0.00    +0.000 OA
ATOM     31  C   UNL     1      49.864   2.276  16.756  0.00  0.00    +0.000 C 
ATOM     32  C   UNL     1      48.836   2.513  17.875  0.00  0.00    +0.000 C 
ENDBRANCH  26  27
ENDBRANCH  23  26
ENDBRANCH  19  20
ENDBRANCH   1  19
TORSDOF 8
ENDMDL
MODEL 4
REMARK VINA RESULT:    -6.043      3.211      7.826
REMARK INTER + INTRA:         -10.097
REMARK INTER:                  -8.525
REMARK INTRA:                  -1.571
REMARK UNBOUND:                -1.227
REMARK  Name = 
REMARK  9 active torsions:
REMARK  status: ('A' for Active; 'I' for Inactive)
REMARK    1  A    between atoms: C_1  and  O_2
REMARK    2  A    between atoms: O_2  and  C_3
REMARK    3  A    between atoms: C_3  and  C_4
REMARK    4  A    between atoms: C_4  and  N_5
REMARK    5  A    between atoms: N_5  and  C_6
REMARK    6  A    between atoms: C_6  and  C_7
REMARK    7  A    between atoms: C_10  and  C_11
REMARK    8  A    between atoms: C_11  and  N_12
REMARK    9  A    between atoms: C_20  and  C_22
REMARK                            x       y       z     vdW  Elec       q    Type
REMARK                         _______ _______ _______ _____ _____    ______ ____
ROOT
ATOM      1  N   UNL     1      48.746   8.260  17.401  0.00  0.00    +0.000 N 
ATOM      2  C   UNL     1      49.033   7.242  18.335  0.00  0.00    +0.000 C 
ATOM      3  O   UNL     1      48.495   7.234  19.444  0.00  0.00    +0.000 OA
ENDROOT
BRANCH   2   4
ATOM      4  C   UNL     1      49.996   6.173  17.996  0.00  0.00    +0.000 A 
ATOM      5  C   UNL     1      51.374   6.280  18.119  0.00  0.00    +0.000 A 
ATOM      6  S   UNL     1      52.221   4.875  17.645  0.00  0.00    +0.000 S 
ATOM      7  C   UNL     1      50.772   4.015  17.423  0.00  0.00    +0.000 A 
ATOM      8  N   UNL     1      50.792   2.693  17.097  0.00  0.00    +0.000 NA
ATOM      9  C   UNL     1      49.622   2.155  17.018  0.00  0.00    +0.000 A 
ATOM     10  N   UNL     1      48.435   2.824  17.196  0.00  0.00    +0.000 N 
ATOM     11  C   UNL     1      48.366   4.188  17.400  0.00  0.00    +0.000 A 
ATOM     12  O   UNL     1      47.295   4.778  17.336  0.00  0.00    +0.000 OA
ATOM     13  C   UNL     1      49.660   4.817  17.608  0.00  0.00    +0.000 A 
ATOM     14  H   UNL     1      47.552   2.354  17.059  0.00  0.00    +0.000 HD
ENDBRANCH   2   4
BRANCH   1  15
ATOM     15  C   UNL     1      47.783   9.306  17.807  0.00  0.00    +0.000 C 
BRANCH  15  16
ATOM     16  C   UNL     1      48.363  10.624  18.348  0.00  0.00    +0.000 C 
BRANCH  16  18
ATOM     17  C   UNL     1      46.793  10.301  20.069  0.00  0.00    +0.000 C 
ATOM     18  O   UNL     1      48.101  10.791  19.749  0.00  0.00    +0.000 OA
ENDBRANCH  16  18
ENDBRANCH  15  16
ENDBRANCH   1  15
BRANCH   1  19
ATOM     19  C   UNL     1      49.350   8.296  16.069  0.00  0.00    +0.000 C 
BRANCH  19  20
ATOM     20  C   UNL     1      48.591   7.771  14.884  0.00  0.00    +0.000 A 
ATOM     21  C   UNL     1      47.667   8.563  14.202  0.00  0.00    +0.000 A 
ATOM     22  C   UNL     1      46.838   7.980  13.246  0.00  0.00    +0.000 A 
ATOM     23  C   UNL     1      46.975   6.623  12.968  0.00  0.00    +0.000 A 
ATOM     24  N   UNL     1      47.911   5.851  13.576  0.00  0.00    +0.000 NA
ATOM     25  C   UNL     1      48.687   6.433  14.516  0.00  0.00    +0.000 A 
BRANCH  23  26
ATOM     26  C   UNL     1      46.022   5.935  12.010  0.00  0.00    +0.000 C 
BRANCH  26  27
ATOM     27  N   UNL     1      45.116   4.918  12.546  0.00  0.00    +0.000 NA
ATOM     28  C   UNL     1      45.189   3.610  11.883  0.00  0.00    +0.000 C 
ATOM     29  C   UNL     1      44.116   3.353  10.811  0.00  0.00    +0.000 C 
ATOM     30  O   UNL     1      42.803   3.638  11.307  0.00  0.00    +0.000 OA
ATOM     31  C   UNL     1      42.717   5.009  11.705  0.00  0.00    +0.000 C 
ATOM     32  C   UNL     1      43.738   5.341  12.806  0.00  0.00    +0.000 C 
ENDBRANCH  26  27
ENDBRANCH  23  26
ENDBRANCH  19  20
ENDBRANCH   1  19
TORSDOF 8
ENDMDL
MODEL 5
REMARK VINA RESULT:    -5.712      3.055      7.774
REMARK INTER + INTRA:          -9.610
REMARK INTER:                  -7.909
REMARK INTRA:                  -1.701
REMARK UNBOUND:                -1.227
REMARK  Name = 
REMARK  9 active torsions:
REMARK  status: ('A' for Active; 'I' for Inactive)
REMARK    1  A    between atoms: C_1  and  O_2
REMARK    2  A    between atoms: O_2  and  C_3
REMARK    3  A    between atoms: C_3  and  C_4
REMARK    4  A    between atoms: C_4  and  N_5
REMARK    5  A    between atoms: N_5  and  C_6
REMARK    6  A    between atoms: C_6  and  C_7
REMARK    7  A    between atoms: C_10  and  C_11
REMARK    8  A    between atoms: C_11  and  N_12
REMARK    9  A    between atoms: C_20  and  C_22
REMARK                            x       y       z     vdW  Elec       q    Type
REMARK                         _______ _______ _______ _____ _____    ______ ____
ROOT
ATOM      1  N   UNL     1      49.519   9.269  15.008  0.00  0.00    +0.000 N 
ATOM      2  C   UNL     1      50.065   8.855  16.241  0.00  0.00    +0.000 C 
ATOM      3  O   UNL     1      51.285   8.826  16.414  0.00  0.00    +0.000 OA
ENDROOT
BRANCH   2   4
ATOM      4  C   UNL     1      49.173   8.439  17.345  0.00  0.00    +0.000 A 
ATOM      5  C   UNL     1      48.488   9.310  18.181  0.00  0.00    +0.000 A 
ATOM      6  S   UNL     1      47.539   8.527  19.365  0.00  0.00    +0.000 S 
ATOM      7  C   UNL     1      47.873   7.000  18.697  0.00  0.00    +0.000 A 
ATOM      8  N   UNL     1      47.282   5.879  19.195  0.00  0.00    +0.000 NA
ATOM      9  C   UNL     1      47.581   4.800  18.554  0.00  0.00    +0.000 A 
ATOM     10  N   UNL     1      48.444   4.732  17.488  0.00  0.00    +0.000 N 
ATOM     11  C   UNL     1      49.162   5.821  17.033  0.00  0.00    +0.000 A 
ATOM     12  O   UNL     1      50.076   5.679  16.232  0.00  0.00    +0.000 OA
ATOM     13  C   UNL     1      48.775   7.080  17.650  0.00  0.00    +0.000 A 
ATOM     14  H   UNL     1      48.680   3.844  17.071  0.00  0.00    +0.000 HD
ENDBRANCH   2   4
BRANCH   1  15
ATOM     15  C   UNL     1      50.465   9.661  13.942  0.00  0.00    +0.000 C 
BRANCH  15  16
ATOM     16  C   UNL     1      50.993   8.544  13.024  0.00  0.00    +0.000 C 
BRANCH  16  18
ATOM     17  C   UNL     1      49.809   9.751  11.391  0.00  0.00    +0.000 C 
ATOM     18  O   UNL     1      50.241   8.449  11.806  0.00  0.00    +0.000 OA
ENDBRANCH  16  18
ENDBRANCH  15  16
ENDBRANCH   1  15
BRANCH   1  19
ATOM     19  C   UNL     1      48.078   9.335  14.770  0.00  0.00    +0.000 C 
BRANCH  19  20
ATOM     20  C   UNL     1      47.414   8.319  13.884  0.00  0.00    +0.000 A 
ATOM     21  C   UNL     1      47.811   6.982  13.884  0.00  0.00    +0.000 A 
ATOM     22  C   UNL     1      47.317   6.120  12.907  0.00  0.00    +0.000 A 
ATOM     23  C   UNL     1      46.409   6.607  11.971  0.00  0.00    +0.000 A 
ATOM     24  N   UNL     1      45.963   7.889  11.995  0.00  0.00    +0.000 NA
ATOM     25  C   UNL     1      46.474   8.711  12.936  0.00  0.00    +0.000 A 
BRANCH  23  26
ATOM     26  C   UNL     1      45.932   5.725  10.834  0.00  0.00    +0.000 C 
BRANCH  26  27
ATOM     27  N   UNL     1      44.526   5.316  10.819  0.00  0.00    +0.000 NA
ATOM     28  C   UNL     1      43.972   4.950  12.129  0.00  0.00    +0.000 C 
ATOM     29  C   UNL     1      43.939   3.443  12.434  0.00  0.00    +0.000 C 
ATOM     30  O   UNL     1      43.336   2.706  11.364  0.00  0.00    +0.000 OA
ATOM     31  C   UNL     1      44.076   2.902  10.156  0.00  0.00    +0.000 C 
ATOM     32  C   UNL     1      44.127   4.387   9.760  0.00  0.00    +0.000 C 
ENDBRANCH  26  27
ENDBRANCH  23  26
ENDBRANCH  19  20
ENDBRANCH   1  19
TORSDOF 8
ENDMDL
MODEL 6
REMARK VINA RESULT:    -5.568      1.653      2.178
REMARK INTER + INTRA:          -9.399
REMARK INTER:                  -8.334
REMARK INTRA:                  -1.065
REMARK UNBOUND:                -1.227
REMARK  Name = 
REMARK  9 active torsions:
REMARK  status: ('A' for Active; 'I' for Inactive)
REMARK    1  A    between atoms: C_1  and  O_2
REMARK    2  A    between atoms: O_2  and  C_3
REMARK    3  A    between atoms: C_3  and  C_4
REMARK    4  A    between atoms: C_4  and  N_5
REMARK    5  A    between atoms: N_5  and  C_6
REMARK    6  A    between atoms: C_6  and  C_7
REMARK    7  A    between atoms: C_10  and  C_11
REMARK    8  A    between atoms: C_11  and  N_12
REMARK    9  A    between atoms: C_20  and  C_22
REMARK                            x       y       z     vdW  Elec       q    Type
REMARK                         _______ _______ _______ _____ _____    ______ ____
ROOT
ATOM      1  N   UNL     1      45.158   5.481  11.981  0.00  0.00    +0.000 N 
ATOM      2  C   UNL     1      44.246   5.035  11.002  0.00  0.00    +0.000 C 
ATOM      3  O   UNL     1      43.180   5.626  10.817  0.00  0.00    +0.000 OA
ENDROOT
BRANCH   2   4
ATOM      4  C   UNL     1      44.555   3.839  10.189  0.00  0.00    +0.000 A 
ATOM      5  C   UNL     1      43.947   2.600  10.340  0.00  0.00    +0.000 A 
ATOM      6  S   UNL     1      44.520   1.414   9.253  0.00  0.00    +0.000 S 
ATOM      7  C   UNL     1      45.474   2.555   8.429  0.00  0.00    +0.000 A 
ATOM      8  N   UNL     1      46.167   2.204   7.312  0.00  0.00    +0.000 NA
ATOM      9  C   UNL     1      46.798   3.183   6.758  0.00  0.00    +0.000 A 
ATOM     10  N   UNL     1      46.833   4.469   7.238  0.00  0.00    +0.000 N 
ATOM     11  C   UNL     1      46.251   4.838   8.435  0.00  0.00    +0.000 A 
ATOM     12  O   UNL     1      46.485   5.931   8.936  0.00  0.00    +0.000 OA
ATOM     13  C   UNL     1      45.434   3.798   9.037  0.00  0.00    +0.000 A 
ATOM     14  H   UNL     1      47.398   5.174   6.788  0.00  0.00    +0.000 HD
ENDBRANCH   2   4
BRANCH   1  15
ATOM     15  C   UNL     1      44.783   6.675  12.768  0.00  0.00    +0.000 C 
BRANCH  15  16
ATOM     16  C   UNL     1      45.268   8.040  12.249  0.00  0.00    +0.000 C 
BRANCH  16  18
ATOM     17  C   UNL     1      47.059   9.525  12.594  0.00  0.00    +0.000 C 
ATOM     18  O   UNL     1      46.040   8.745  13.232  0.00  0.00    +0.000 OA
ENDBRANCH  16  18
ENDBRANCH  15  16
ENDBRANCH   1  15
BRANCH   1  19
ATOM     19  C   UNL     1      46.440   4.818  12.220  0.00  0.00    +0.000 C 
BRANCH  19  20
ATOM     20  C   UNL     1      47.104   4.924  13.563  0.00  0.00    +0.000 A 
ATOM     21  C   UNL     1      46.769   4.067  14.611  0.00  0.00    +0.000 A 
ATOM     22  C   UNL     1      47.252   4.328  15.892  0.00  0.00    +0.000 A 
ATOM     23  C   UNL     1      48.088   5.423  16.090  0.00  0.00    +0.000 A 
ATOM     24  N   UNL     1      48.476   6.230  15.070  0.00  0.00    +0.000 NA
ATOM     25  C   UNL     1      47.976   5.971  13.842  0.00  0.00    +0.000 A 
BRANCH  23  26
ATOM     26  C   UNL     1      48.548   5.795  17.485  0.00  0.00    +0.000 C 
BRANCH  26  27
ATOM     27  N   UNL     1      49.360   4.830  18.227  0.00  0.00    +0.000 NA
ATOM     28  C   UNL     1      48.637   4.067  19.253  0.00  0.00    +0.000 C 
ATOM     29  C   UNL     1      48.771   4.601  20.689  0.00  0.00    +0.000 C 
ATOM     30  O   UNL     1      50.143   4.818  21.040  0.00  0.00    +0.000 OA
ATOM     31  C   UNL     1      50.730   5.772  20.152  0.00  0.00    +0.000 C 
ATOM     32  C   UNL     1      50.669   5.296  18.691  0.00  0.00    +0.000 C 
ENDBRANCH  26  27
ENDBRANCH  23  26
ENDBRANCH  19  20
ENDBRANCH   1  19
TORSDOF 8
ENDMDL
MODEL 7
REMARK VINA RESULT:    -5.539      3.475      8.579
REMARK INTER + INTRA:          -9.356
REMARK INTER:                  -8.096
REMARK INTRA:                  -1.260
REMARK UNBOUND:                -1.227
REMARK  Name = 
REMARK  9 active torsions:
REMARK  status: ('A' for Active; 'I' for Inactive)
REMARK    1  A    between atoms: C_1  and  O_2
REMARK    2  A    between atoms: O_2  and  C_3
REMARK    3  A    between atoms: C_3  and  C_4
REMARK    4  A    between atoms: C_4  and  N_5
REMARK    5  A    between atoms: N_5  and  C_6
REMARK    6  A    between atoms: C_6  and  C_7
REMARK    7  A    between atoms: C_10  and  C_11
REMARK    8  A    between atoms: C_11  and  N_12
REMARK    9  A    between atoms: C_20  and  C_22
REMARK                            x       y       z     vdW  Elec       q    Type
REMARK                         _______ _______ _______ _____ _____    ______ ____
ROOT
ATOM      1  N   UNL     1      49.428   6.385  18.350  0.00  0.00    +0.000 N 
ATOM      2  C   UNL     1      50.238   5.669  19.256  0.00  0.00    +0.000 C 
ATOM      3  O   UNL     1      49.967   5.639  20.458  0.00  0.00    +0.000 OA
ENDROOT
BRANCH   2   4
ATOM      4  C   UNL     1      51.436   4.950  18.772  0.00  0.00    +0.000 A 
ATOM      5  C   UNL     1      52.736   5.428  18.858  0.00  0.00    +0.000 A 
ATOM      6  S   UNL     1      53.906   4.368  18.208  0.00  0.00    +0.000 S 
ATOM      7  C   UNL     1      52.740   3.160  17.944  0.00  0.00    +0.000 A 
ATOM      8  N   UNL     1      53.103   1.933  17.479  0.00  0.00    +0.000 NA
ATOM      9  C   UNL     1      52.124   1.098  17.383  0.00  0.00    +0.000 A 
ATOM     10  N   UNL     1      50.813   1.387  17.671  0.00  0.00    +0.000 N 
ATOM     11  C   UNL     1      50.383   2.651  18.022  0.00  0.00    +0.000 A 
ATOM     12  O   UNL     1      49.189   2.920  18.059  0.00  0.00    +0.000 OA
ATOM     13  C   UNL     1      51.463   3.597  18.253  0.00  0.00    +0.000 A 
ATOM     14  H   UNL     1      50.087   0.702  17.515  0.00  0.00    +0.000 HD
ENDBRANCH   2   4
BRANCH   1  15
ATOM     15  C   UNL     1      48.252   7.092  18.901  0.00  0.00    +0.000 C 
BRANCH  15  16
ATOM     16  C   UNL     1      48.485   8.496  19.486  0.00  0.00    +0.000 C 
BRANCH  16  18
ATOM     17  C   UNL     1      47.816   9.558  17.497  0.00  0.00    +0.000 C 
ATOM     18  O   UNL     1      48.857   9.444  18.475  0.00  0.00    +0.000 OA
ENDBRANCH  16  18
ENDBRANCH  15  16
ENDBRANCH   1  15
BRANCH   1  19
ATOM     19  C   UNL     1      49.705   6.430  16.915  0.00  0.00    +0.000 C 
BRANCH  19  20
ATOM     20  C   UNL     1      48.643   6.032  15.930  0.00  0.00    +0.000 A 
ATOM     21  C   UNL     1      47.849   4.903  16.131  0.00  0.00    +0.000 A 
ATOM     22  C   UNL     1      47.024   4.452  15.103  0.00  0.00    +0.000 A 
ATOM     23  C   UNL     1      46.985   5.162  13.906  0.00  0.00    +0.000 A 
ATOM     24  N   UNL     1      47.703   6.299  13.715  0.00  0.00    +0.000 NA
ATOM     25  C   UNL     1      48.513   6.702  14.718  0.00  0.00    +0.000 A 
BRANCH  23  26
ATOM     26  C   UNL     1      46.179   4.643  12.731  0.00  0.00    +0.000 C 
BRANCH  26  27
ATOM     27  N   UNL     1      45.338   5.590  11.998  0.00  0.00    +0.000 NA
ATOM     28  C   UNL     1      44.127   6.024  12.707  0.00  0.00    +0.000 C 
ATOM     29  C   UNL     1      42.837   5.279  12.327  0.00  0.00    +0.000 C 
ATOM     30  O   UNL     1      42.652   5.245  10.906  0.00  0.00    +0.000 OA
ATOM     31  C   UNL     1      43.753   4.577  10.285  0.00  0.00    +0.000 C 
ATOM     32  C   UNL     1      45.085   5.284  10.588  0.00  0.00    +0.000 C 
ENDBRANCH  26  27
ENDBRANCH  23  26
ENDBRANCH  19  20
ENDBRANCH   1  19
TORSDOF 8
ENDMDL
MODEL 8
REMARK VINA RESULT:    -5.406      3.404      7.793
REMARK INTER + INTRA:          -9.162
REMARK INTER:                  -7.822
REMARK INTRA:                  -1.340
REMARK UNBOUND:                -1.227
REMARK  Name = 
REMARK  9 active torsions:
REMARK  status: ('A' for Active; 'I' for Inactive)
REMARK    1  A    between atoms: C_1  and  O_2
REMARK    2  A    between atoms: O_2  and  C_3
REMARK    3  A    between atoms: C_3  and  C_4
REMARK    4  A    between atoms: C_4  and  N_5
REMARK    5  A    between atoms: N_5  and  C_6
REMARK    6  A    between atoms: C_6  and  C_7
REMARK    7  A    between atoms: C_10  and  C_11
REMARK    8  A    between atoms: C_11  and  N_12
REMARK    9  A    between atoms: C_20  and  C_22
REMARK                            x       y       z     vdW  Elec       q    Type
REMARK                         _______ _______ _______ _____ _____    ______ ____
ROOT
ATOM      1  N   UNL     1      49.105   7.838  14.596  0.00  0.00    +0.000 N 
ATOM      2  C   UNL     1      49.547   9.165  14.416  0.00  0.00    +0.000 C 
ATOM      3  O   UNL     1      49.928   9.840  15.375  0.00  0.00    +0.000 OA
ENDROOT
BRANCH   2   4
ATOM      4  C   UNL     1      49.550   9.771  13.067  0.00  0.00    +0.000 A 
ATOM      5  C   UNL     1      48.512  10.523  12.534  0.00  0.00    +0.000 A 
ATOM      6  S   UNL     1      48.808  11.084  10.950  0.00  0.00    +0.000 S 
ATOM      7  C   UNL     1      50.401  10.491  10.982  0.00  0.00    +0.000 A 
ATOM      8  N   UNL     1      51.250  10.722   9.944  0.00  0.00    +0.000 NA
ATOM      9  C   UNL     1      52.443  10.265  10.130  0.00  0.00    +0.000 A 
ATOM     10  N   UNL     1      52.852   9.566  11.239  0.00  0.00    +0.000 N 
ATOM     11  C   UNL     1      51.992   9.199  12.255  0.00  0.00    +0.000 A 
ATOM     12  O   UNL     1      52.339   8.396  13.112  0.00  0.00    +0.000 OA
ATOM     13  C   UNL     1      50.667   9.787  12.144  0.00  0.00    +0.000 A 
ATOM     14  H   UNL     1      53.785   9.183  11.292  0.00  0.00    +0.000 HD
ENDBRANCH   2   4
BRANCH   1  15
ATOM     15  C   UNL     1      49.117   7.298  15.972  0.00  0.00    +0.000 C 
BRANCH  15  16
ATOM     16  C   UNL     1      50.291   6.381  16.359  0.00  0.00    +0.000 C 
BRANCH  16  18
ATOM     17  C   UNL     1      48.507   5.064  17.141  0.00  0.00    +0.000 C 
ATOM     18  O   UNL     1      49.856   5.047  16.656  0.00  0.00    +0.000 OA
ENDBRANCH  16  18
ENDBRANCH  15  16
ENDBRANCH   1  15
BRANCH   1  19
ATOM     19  C   UNL     1      48.663   7.000  13.483  0.00  0.00    +0.000 C 
BRANCH  19  20
ATOM     20  C   UNL     1      47.282   6.410  13.487  0.00  0.00    +0.000 A 
ATOM     21  C   UNL     1      47.069   5.052  13.729  0.00  0.00    +0.000 A 
ATOM     22  C   UNL     1      45.804   4.508  13.521  0.00  0.00    +0.000 A 
ATOM     23  C   UNL     1      44.769   5.341  13.106  0.00  0.00    +0.000 A 
ATOM     24  N   UNL     1      44.941   6.676  12.927  0.00  0.00    +0.000 NA
ATOM     25  C   UNL     1      46.182   7.176  13.113  0.00  0.00    +0.000 A 
BRANCH  23  26
ATOM     26  C   UNL     1      43.407   4.765  12.771  0.00  0.00    +0.000 C 
BRANCH  26  27
ATOM     27  N   UNL     1      43.171   4.297  11.405  0.00  0.00    +0.000 NA
ATOM     28  C   UNL     1      43.466   2.877  11.174  0.00  0.00    +0.000 C 
ATOM     29  C   UNL     1      44.843   2.582  10.555  0.00  0.00    +0.000 C 
ATOM     30  O   UNL     1      45.073   3.381   9.389  0.00  0.00    +0.000 OA
ATOM     31  C   UNL     1      45.024   4.769   9.729  0.00  0.00    +0.000 C 
ATOM     32  C   UNL     1      43.661   5.156  10.325  0.00  0.00    +0.000 C 
ENDBRANCH  26  27
ENDBRANCH  23  26
ENDBRANCH  19  20
ENDBRANCH   1  19
TORSDOF 8
ENDMDL
