MODEL 1
REMARK VINA RESULT:    -8.304      0.000      0.000
REMARK INTER + INTRA:         -12.966
REMARK INTER:                 -12.187
REMARK INTRA:                  -0.779
REMARK UNBOUND:                -0.779
REMARK  Name = 
REMARK  9 active torsions:
REMARK  status: ('A' for Active; 'I' for Inactive)
REMARK    1  A    between atoms: C_1  and  C_2
REMARK    2  A    between atoms: C_2  and  C_3
REMARK    3  A    between atoms: C_2  and  C_26
REMARK    4  A    between atoms: C_3  and  N_4
REMARK    5  A    between atoms: N_4  and  C_5
REMARK    6  A    between atoms: C_5  and  C_6
REMARK    7  A    between atoms: C_9  and  C_10
REMARK    8  A    between atoms: C_10  and  N_11
REMARK    9  A    between atoms: C_12  and  C_14
REMARK                            x       y       z     vdW  Elec       q    Type
REMARK                         _______ _______ _______ _____ _____    ______ ____
ROOT
ATOM      1  C   UNL     1      44.547   5.607  11.917  0.00  0.00    +0.000 A 
ATOM      2  C   UNL     1      45.128   4.790  12.900  0.00  0.00    +0.000 A 
ATOM      3  C   UNL     1      46.313   5.158  13.538  0.00  0.00    +0.000 A 
ATOM      4  C   UNL     1      46.935   6.372  13.231  0.00  0.00    +0.000 A 
ATOM      5  C   UNL     1      46.357   7.200  12.261  0.00  0.00    +0.000 A 
ATOM      6  C   UNL     1      45.174   6.825  11.615  0.00  0.00    +0.000 A 
ENDROOT
BRANCH   1   7
ATOM      7  C   UNL     1      43.281   5.222  11.172  0.00  0.00    +0.000 C 
BRANCH   7   8
ATOM      8  N   UNL     1      43.507   5.055   9.737  0.00  0.00    +0.000 NA
ATOM      9  H   UNL     1      42.763   4.457   9.375  0.00  0.00    +0.000 HD
BRANCH   8  10
ATOM     10  C   UNL     1      44.794   4.436   9.425  0.00  0.00    +0.000 C 
BRANCH  10  12
ATOM     11  C   UNL     1      44.370   1.979   9.975  0.00  0.00    +0.000 C 
ATOM     12  C   UNL     1      44.610   3.004   8.855  0.00  0.00    +0.000 C 
BRANCH  12  13
ATOM     13  C   UNL     1      45.741   2.611   7.917  0.00  0.00    +0.000 A 
ATOM     14  C   UNL     1      46.220   3.520   6.966  0.00  0.00    +0.000 A 
ATOM     15  C   UNL     1      47.253   3.151   6.108  0.00  0.00    +0.000 A 
ATOM     16  C   UNL     1      47.789   1.880   6.232  0.00  0.00    +0.000 A 
ATOM     17  N   UNL     1      47.377   0.983   7.149  0.00  0.00    +0.000 NA
ATOM     18  C   UNL     1      46.369   1.367   7.966  0.00  0.00    +0.000 A 
ENDBRANCH  12  13
ENDBRANCH  10  12
ENDBRANCH   8  10
ENDBRANCH   7   8
ENDBRANCH   1   7
BRANCH   4  19
ATOM     19  C   UNL     1      48.233   6.749  13.889  0.00  0.00    +0.000 C 
BRANCH  19  20
ATOM     20  N   UNL     1      48.052   6.935  15.307  0.00  0.00    +0.000 N 
ATOM     21  C   UNL     1      49.045   6.615  16.194  0.00  0.00    +0.000 C 
ATOM     22  O   UNL     1      50.141   6.202  15.822  0.00  0.00    +0.000 OA
ATOM     23  H   UNL     1      47.104   7.079  15.637  0.00  0.00    +0.000 HD
BRANCH  21  24
ATOM     24  C   UNL     1      48.755   6.839  17.616  0.00  0.00    +0.000 A 
ATOM     25  C   UNL     1      48.523   8.130  18.071  0.00  0.00    +0.000 A 
ATOM     26  S   UNL     1      48.174   8.217  19.737  0.00  0.00    +0.000 S 
ATOM     27  C   UNL     1      48.364   6.536  19.921  0.00  0.00    +0.000 A 
ATOM     28  N   UNL     1      48.225   5.948  21.139  0.00  0.00    +0.000 NA
ATOM     29  C   UNL     1      48.420   4.671  21.139  0.00  0.00    +0.000 A 
ATOM     30  N   UNL     1      48.736   3.930  20.030  0.00  0.00    +0.000 N 
ATOM     31  C   UNL     1      48.868   4.475  18.774  0.00  0.00    +0.000 A 
ATOM     32  O   UNL     1      49.112   3.772  17.799  0.00  0.00    +0.000 OA
ATOM     33  C   UNL     1      48.668   5.913  18.722  0.00  0.00    +0.000 A 
ATOM     34  H   UNL     1      48.865   2.931  20.095  0.00  0.00    +0.000 HD
ENDBRANCH  21  24
ENDBRANCH  19  20
ENDBRANCH   4  19
TORSDOF 8
ENDMDL
MODEL 2
REMARK VINA RESULT:    -7.824      1.720      2.405
REMARK INTER + INTRA:         -12.263
REMARK INTER:                 -10.609
REMARK INTRA:                  -1.654
REMARK UNBOUND:                -0.779
REMARK  Name = 
REMARK  9 active torsions:
REMARK  status: ('A' for Active; 'I' for Inactive)
REMARK    1  A    between atoms: C_1  and  C_2
REMARK    2  A    between atoms: C_2  and  C_3
REMARK    3  A    between atoms: C_2  and  C_26
REMARK    4  A    between atoms: C_3  and  N_4
REMARK    5  A    between atoms: N_4  and  C_5
REMARK    6  A    between atoms: C_5  and  C_6
REMARK    7  A    between atoms: C_9  and  C_10
REMARK    8  A    between atoms: C_10  and  N_11
REMARK    9  A    between atoms: C_12  and  C_14
REMARK                            x       y       z     vdW  Elec       q    Type
REMARK                         _______ _______ _______ _____ _____    ______ ____
ROOT
ATOM      1  C   UNL     1      45.542   7.368  11.914  0.00  0.00    +0.000 A 
ATOM      2  C   UNL     1      45.674   8.519  12.708  0.00  0.00    +0.000 A 
ATOM      3  C   UNL     1      46.886   8.838  13.323  0.00  0.00    +0.000 A 
ATOM      4  C   UNL     1      48.009   8.028  13.136  0.00  0.00    +0.000 A 
ATOM      5  C   UNL     1      47.892   6.884  12.336  0.00  0.00    +0.000 A 
ATOM      6  C   UNL     1      46.674   6.560  11.729  0.00  0.00    +0.000 A 
ENDROOT
BRANCH   1   7
ATOM      7  C   UNL     1      44.231   6.966  11.263  0.00  0.00    +0.000 C 
BRANCH   7   8
ATOM      8  N   UNL     1      43.724   5.692  11.770  0.00  0.00    +0.000 NA
ATOM      9  H   UNL     1      44.480   5.245  12.292  0.00  0.00    +0.000 HD
BRANCH   8  10
ATOM     10  C   UNL     1      43.290   4.783  10.711  0.00  0.00    +0.000 C 
BRANCH  10  12
ATOM     11  C   UNL     1      44.878   3.290  12.040  0.00  0.00    +0.000 C 
ATOM     12  C   UNL     1      44.118   3.470  10.717  0.00  0.00    +0.000 C 
BRANCH  12  13
ATOM     13  C   UNL     1      45.013   3.352   9.492  0.00  0.00    +0.000 A 
ATOM     14  C   UNL     1      45.396   2.094   9.014  0.00  0.00    +0.000 A 
ATOM     15  C   UNL     1      46.219   1.995   7.894  0.00  0.00    +0.000 A 
ATOM     16  C   UNL     1      46.629   3.163   7.274  0.00  0.00    +0.000 A 
ATOM     17  N   UNL     1      46.264   4.393   7.684  0.00  0.00    +0.000 NA
ATOM     18  C   UNL     1      45.468   4.459   8.776  0.00  0.00    +0.000 A 
ENDBRANCH  12  13
ENDBRANCH  10  12
ENDBRANCH   8  10
ENDBRANCH   7   8
ENDBRANCH   1   7
BRANCH   4  19
ATOM     19  C   UNL     1      49.303   8.350  13.832  0.00  0.00    +0.000 C 
BRANCH  19  20
ATOM     20  N   UNL     1      49.449   7.562  15.030  0.00  0.00    +0.000 N 
ATOM     21  C   UNL     1      48.994   8.021  16.237  0.00  0.00    +0.000 C 
ATOM     22  O   UNL     1      48.403   9.093  16.344  0.00  0.00    +0.000 OA
ATOM     23  H   UNL     1      50.100   6.785  14.996  0.00  0.00    +0.000 HD
BRANCH  21  24
ATOM     24  C   UNL     1      49.198   7.142  17.395  0.00  0.00    +0.000 A 
ATOM     25  C   UNL     1      49.776   7.654  18.549  0.00  0.00    +0.000 A 
ATOM     26  S   UNL     1      49.917   6.515  19.809  0.00  0.00    +0.000 S 
ATOM     27  C   UNL     1      49.249   5.283  18.844  0.00  0.00    +0.000 A 
ATOM     28  N   UNL     1      49.112   4.019  19.325  0.00  0.00    +0.000 NA
ATOM     29  C   UNL     1      48.615   3.178  18.479  0.00  0.00    +0.000 A 
ATOM     30  N   UNL     1      48.239   3.490  17.198  0.00  0.00    +0.000 N 
ATOM     31  C   UNL     1      48.339   4.758  16.673  0.00  0.00    +0.000 A 
ATOM     32  O   UNL     1      47.954   5.006  15.536  0.00  0.00    +0.000 OA
ATOM     33  C   UNL     1      48.902   5.740  17.583  0.00  0.00    +0.000 A 
ATOM     34  H   UNL     1      47.846   2.789  16.589  0.00  0.00    +0.000 HD
ENDBRANCH  21  24
ENDBRANCH  19  20
ENDBRANCH   4  19
TORSDOF 8
ENDMDL
MODEL 3
REMARK VINA RESULT:    -7.501      2.439      3.135
REMARK INTER + INTRA:         -11.788
REMARK INTER:                 -10.664
REMARK INTRA:                  -1.124
REMARK UNBOUND:                -0.779
REMARK  Name = 
REMARK  9 active torsions:
REMARK  status: ('A' for Active; 'I' for Inactive)
REMARK    1  A    between atoms: C_1  and  C_2
REMARK    2  A    between atoms: C_2  and  C_3
REMARK    3  A    between atoms: C_2  and  C_26
REMARK    4  A    between atoms: C_3  and  N_4
REMARK    5  A    between atoms: N_4  and  C_5
REMARK    6  A    between atoms: C_5  and  C_6
REMARK    7  A    between atoms: C_9  and  C_10
REMARK    8  A    between atoms: C_10  and  N_11
REMARK    9  A    between atoms: C_12  and  C_14
REMARK                            x       y       z     vdW  Elec       q    Type
REMARK                         _______ _______ _______ _____ _____    ______ ____
ROOT
ATOM      1  C   UNL     1      46.760   6.593  12.045  0.00  0.00    +0.000 A 
ATOM      2  C   UNL     1      46.986   7.941  12.364  0.00  0.00    +0.000 A 
ATOM      3  C   UNL     1      47.618   8.307  13.553  0.00  0.00    +0.000 A 
ATOM      4  C   UNL     1      48.069   7.329  14.444  0.00  0.00    +0.000 A 
ATOM      5  C   UNL     1      47.860   5.980  14.130  0.00  0.00    +0.000 A 
ATOM      6  C   UNL     1      47.217   5.616  12.942  0.00  0.00    +0.000 A 
ENDROOT
BRANCH   1   7
ATOM      7  C   UNL     1      46.039   6.157  10.781  0.00  0.00    +0.000 C 
BRANCH   7   8
ATOM      8  N   UNL     1      44.741   5.545  11.062  0.00  0.00    +0.000 NA
ATOM      9  H   UNL     1      44.897   4.783  11.725  0.00  0.00    +0.000 HD
BRANCH   8  10
ATOM     10  C   UNL     1      44.094   4.998   9.871  0.00  0.00    +0.000 C 
BRANCH  10  12
ATOM     11  C   UNL     1      44.321   2.881  11.280  0.00  0.00    +0.000 C 
ATOM     12  C   UNL     1      44.141   3.447   9.862  0.00  0.00    +0.000 C 
BRANCH  12  13
ATOM     13  C   UNL     1      45.161   2.909   8.869  0.00  0.00    +0.000 A 
ATOM     14  C   UNL     1      45.779   3.769   7.954  0.00  0.00    +0.000 A 
ATOM     15  C   UNL     1      46.709   3.268   7.046  0.00  0.00    +0.000 A 
ATOM     16  C   UNL     1      47.004   1.916   7.086  0.00  0.00    +0.000 A 
ATOM     17  N   UNL     1      46.453   1.057   7.966  0.00  0.00    +0.000 NA
ATOM     18  C   UNL     1      45.550   1.571   8.833  0.00  0.00    +0.000 A 
ENDBRANCH  12  13
ENDBRANCH  10  12
ENDBRANCH   8  10
ENDBRANCH   7   8
ENDBRANCH   1   7
BRANCH   4  19
ATOM     19  C   UNL     1      48.713   7.725  15.744  0.00  0.00    +0.000 C 
BRANCH  19  20
ATOM     20  N   UNL     1      49.744   6.786  16.110  0.00  0.00    +0.000 N 
ATOM     21  C   UNL     1      49.807   6.263  17.374  0.00  0.00    +0.000 C 
ATOM     22  O   UNL     1      48.967   6.530  18.231  0.00  0.00    +0.000 OA
ATOM     23  H   UNL     1      50.544   6.714  15.491  0.00  0.00    +0.000 HD
BRANCH  21  24
ATOM     24  C   UNL     1      50.900   5.320  17.643  0.00  0.00    +0.000 A 
ATOM     25  C   UNL     1      52.121   5.800  18.096  0.00  0.00    +0.000 A 
ATOM     26  S   UNL     1      53.273   4.578  18.387  0.00  0.00    +0.000 S 
ATOM     27  C   UNL     1      52.195   3.365  17.878  0.00  0.00    +0.000 A 
ATOM     28  N   UNL     1      52.576   2.059  17.855  0.00  0.00    +0.000 NA
ATOM     29  C   UNL     1      51.668   1.248  17.425  0.00  0.00    +0.000 A 
ATOM     30  N   UNL     1      50.414   1.623  17.019  0.00  0.00    +0.000 N 
ATOM     31  C   UNL     1      49.975   2.927  17.043  0.00  0.00    +0.000 A 
ATOM     32  O   UNL     1      48.831   3.219  16.711  0.00  0.00    +0.000 OA
ATOM     33  C   UNL     1      50.964   3.882  17.511  0.00  0.00    +0.000 A 
ATOM     34  H   UNL     1      49.745   0.937  16.703  0.00  0.00    +0.000 HD
ENDBRANCH  21  24
ENDBRANCH  19  20
ENDBRANCH   4  19
TORSDOF 8
ENDMDL
MODEL 4
REMARK VINA RESULT:    -7.464      3.424      9.286
REMARK INTER + INTRA:         -11.733
REMARK INTER:                  -9.966
REMARK INTRA:                  -1.767
REMARK UNBOUND:                -0.779
REMARK  Name = 
REMARK  9 active torsions:
REMARK  status: ('A' for Active; 'I' for Inactive)
REMARK    1  A    between atoms: C_1  and  C_2
REMARK    2  A    between atoms: C_2  and  C_3
REMARK    3  A    between atoms: C_2  and  C_26
REMARK    4  A    between atoms: C_3  and  N_4
REMARK    5  A    between atoms: N_4  and  C_5
REMARK    6  A    between atoms: C_5  and  C_6
REMARK    7  A    between atoms: C_9  and  C_10
REMARK    8  A    between atoms: C_10  and  N_11
REMARK    9  A    between atoms: C_12  and  C_14
REMARK                            x       y       z     vdW  Elec       q    Type
REMARK                         _______ _______ _______ _____ _____    ______ ____
ROOT
ATOM      1  C   UNL     1      49.456   7.884  15.811  0.00  0.00    +0.000 A 
ATOM      2  C   UNL     1      48.915   9.082  15.319  0.00  0.00    +0.000 A 
ATOM      3  C   UNL     1      48.162   9.107  14.144  0.00  0.00    +0.000 A 
ATOM      4  C   UNL     1      47.907   7.926  13.442  0.00  0.00    +0.000 A 
ATOM      5  C   UNL     1      48.432   6.723  13.930  0.00  0.00    +0.000 A 
ATOM      6  C   UNL     1      49.194   6.701  15.103  0.00  0.00    +0.000 A 
ENDROOT
BRANCH   1   7
ATOM      7  C   UNL     1      50.313   7.823  17.063  0.00  0.00    +0.000 C 
BRANCH   7   8
ATOM      8  N   UNL     1      49.553   8.123  18.275  0.00  0.00    +0.000 NA
ATOM      9  H   UNL     1      50.051   8.861  18.776  0.00  0.00    +0.000 HD
BRANCH   8  10
ATOM     10  C   UNL     1      49.412   6.972  19.165  0.00  0.00    +0.000 C 
BRANCH  10  12
ATOM     11  C   UNL     1      47.302   6.069  20.284  0.00  0.00    +0.000 C 
ATOM     12  C   UNL     1      48.051   6.256  18.954  0.00  0.00    +0.000 C 
BRANCH  12  13
ATOM     13  C   UNL     1      48.199   4.966  18.163  0.00  0.00    +0.000 A 
ATOM     14  C   UNL     1      49.404   4.256  18.186  0.00  0.00    +0.000 A 
ATOM     15  C   UNL     1      49.533   3.077  17.454  0.00  0.00    +0.000 A 
ATOM     16  C   UNL     1      48.442   2.632  16.727  0.00  0.00    +0.000 A 
ATOM     17  N   UNL     1      47.255   3.269  16.698  0.00  0.00    +0.000 NA
ATOM     18  C   UNL     1      47.161   4.414  17.413  0.00  0.00    +0.000 A 
ENDBRANCH  12  13
ENDBRANCH  10  12
ENDBRANCH   8  10
ENDBRANCH   7   8
ENDBRANCH   1   7
BRANCH   4  19
ATOM     19  C   UNL     1      47.131   7.960  12.154  0.00  0.00    +0.000 C 
BRANCH  19  20
ATOM     20  N   UNL     1      46.545   6.673  11.876  0.00  0.00    +0.000 N 
ATOM     21  C   UNL     1      45.198   6.539  11.672  0.00  0.00    +0.000 C 
ATOM     22  O   UNL     1      44.442   7.508  11.669  0.00  0.00    +0.000 OA
ATOM     23  H   UNL     1      47.112   5.854  12.073  0.00  0.00    +0.000 HD
BRANCH  21  24
ATOM     24  C   UNL     1      44.703   5.183  11.402  0.00  0.00    +0.000 A 
ATOM     25  C   UNL     1      43.949   4.526  12.365  0.00  0.00    +0.000 A 
ATOM     26  S   UNL     1      43.429   2.975  11.887  0.00  0.00    +0.000 S 
ATOM     27  C   UNL     1      44.229   3.107  10.391  0.00  0.00    +0.000 A 
ATOM     28  N   UNL     1      44.205   2.085   9.495  0.00  0.00    +0.000 NA
ATOM     29  C   UNL     1      44.873   2.309   8.413  0.00  0.00    +0.000 A 
ATOM     30  N   UNL     1      45.559   3.465   8.145  0.00  0.00    +0.000 N 
ATOM     31  C   UNL     1      45.597   4.535   9.010  0.00  0.00    +0.000 A 
ATOM     32  O   UNL     1      46.188   5.568   8.716  0.00  0.00    +0.000 OA
ATOM     33  C   UNL     1      44.867   4.328  10.249  0.00  0.00    +0.000 A 
ATOM     34  H   UNL     1      46.054   3.583   7.274  0.00  0.00    +0.000 HD
ENDBRANCH  21  24
ENDBRANCH  19  20
ENDBRANCH   4  19
TORSDOF 8
ENDMDL
MODEL 5
REMARK VINA RESULT:    -7.443      3.965      9.278
REMARK INTER + INTRA:         -11.703
REMARK INTER:                  -9.005
REMARK INTRA:                  -2.698
REMARK UNBOUND:                -0.779
REMARK  Name = 
REMARK  9 active torsions:
REMARK  status: ('A' for Active; 'I' for Inactive)
REMARK    1  A    between atoms: C_1  and  C_2
REMARK    2  A    between atoms: C_2  and  C_3
REMARK    3  A    between atoms: C_2  and  C_26
REMARK    4  A    between atoms: C_3  and  N_4
REMARK    5  A    between atoms: N_4  and  C_5
REMARK    6  A    between atoms: C_5  and  C_6
REMARK    7  A    between atoms: C_9  and  C_10
REMARK    8  A    between atoms: C_10  and  N_11
REMARK    9  A    between atoms: C_12  and  C_14
REMARK                            x       y       z     vdW  Elec       q    Type
REMARK                         _______ _______ _______ _____ _____    ______ ____
ROOT
ATOM      1  C   UNL     1      49.916   5.754  19.350  0.00  0.00    +0.000 A 
ATOM      2  C   UNL     1      48.519   5.718  19.483  0.00  0.00    +0.000 A 
ATOM      3  C   UNL     1      47.724   5.013  18.578  0.00  0.00    +0.000 A 
ATOM      4  C   UNL     1      48.310   4.298  17.530  0.00  0.00    +0.000 A 
ATOM      5  C   UNL     1      49.704   4.317  17.395  0.00  0.00    +0.000 A 
ATOM      6  C   UNL     1      50.498   5.033  18.297  0.00  0.00    +0.000 A 
ENDROOT
BRANCH   1   7
ATOM      7  C   UNL     1      50.810   6.544  20.289  0.00  0.00    +0.000 C 
BRANCH   7   8
ATOM      8  N   UNL     1      50.255   7.857  20.617  0.00  0.00    +0.000 NA
ATOM      9  H   UNL     1      49.251   7.822  20.428  0.00  0.00    +0.000 HD
BRANCH   8  10
ATOM     10  C   UNL     1      50.838   8.941  19.829  0.00  0.00    +0.000 C 
BRANCH  10  12
ATOM     11  C   UNL     1      48.409   9.517  19.296  0.00  0.00    +0.000 C 
ATOM     12  C   UNL     1      49.846   9.457  18.753  0.00  0.00    +0.000 C 
BRANCH  12  13
ATOM     13  C   UNL     1      49.961   8.683  17.449  0.00  0.00    +0.000 A 
ATOM     14  C   UNL     1      48.815   8.191  16.814  0.00  0.00    +0.000 A 
ATOM     15  C   UNL     1      48.930   7.479  15.622  0.00  0.00    +0.000 A 
ATOM     16  C   UNL     1      50.194   7.288  15.089  0.00  0.00    +0.000 A 
ATOM     17  N   UNL     1      51.321   7.766  15.652  0.00  0.00    +0.000 NA
ATOM     18  C   UNL     1      51.179   8.449  16.812  0.00  0.00    +0.000 A 
ENDBRANCH  12  13
ENDBRANCH  10  12
ENDBRANCH   8  10
ENDBRANCH   7   8
ENDBRANCH   1   7
BRANCH   4  19
ATOM     19  C   UNL     1      47.451   3.572  16.531  0.00  0.00    +0.000 C 
BRANCH  19  20
ATOM     20  N   UNL     1      46.825   4.501  15.624  0.00  0.00    +0.000 N 
ATOM     21  C   UNL     1      46.770   4.247  14.280  0.00  0.00    +0.000 C 
ATOM     22  O   UNL     1      47.204   3.204  13.797  0.00  0.00    +0.000 OA
ATOM     23  H   UNL     1      46.648   5.437  15.971  0.00  0.00    +0.000 HD
BRANCH  21  24
ATOM     24  C   UNL     1      46.115   5.261  13.444  0.00  0.00    +0.000 A 
ATOM     25  C   UNL     1      46.763   6.463  13.194  0.00  0.00    +0.000 A 
ATOM     26  S   UNL     1      45.883   7.520  12.186  0.00  0.00    +0.000 S 
ATOM     27  C   UNL     1      44.585   6.426  12.081  0.00  0.00    +0.000 A 
ATOM     28  N   UNL     1      43.467   6.737  11.371  0.00  0.00    +0.000 NA
ATOM     29  C   UNL     1      42.550   5.828  11.396  0.00  0.00    +0.000 A 
ATOM     30  N   UNL     1      42.652   4.634  12.063  0.00  0.00    +0.000 N 
ATOM     31  C   UNL     1      43.769   4.265  12.777  0.00  0.00    +0.000 A 
ATOM     32  O   UNL     1      43.838   3.171  13.326  0.00  0.00    +0.000 OA
ATOM     33  C   UNL     1      44.827   5.260  12.788  0.00  0.00    +0.000 A 
ATOM     34  H   UNL     1      41.903   3.960  12.034  0.00  0.00    +0.000 HD
ENDBRANCH  21  24
ENDBRANCH  19  20
ENDBRANCH   4  19
TORSDOF 8
ENDMDL
MODEL 6
REMARK VINA RESULT:    -7.320      4.489      9.835
REMARK INTER + INTRA:         -11.523
REMARK INTER:                  -9.760
REMARK INTRA:                  -1.763
REMARK UNBOUND:                -0.779
REMARK  Name = 
REMARK  9 active torsions:
REMARK  status: ('A' for Active; 'I' for Inactive)
REMARK    1  A    between atoms: C_1  and  C_2
REMARK    2  A    between atoms: C_2  and  C_3
REMARK    3  A    between atoms: C_2  and  C_26
REMARK    4  A    between atoms: C_3  and  N_4
REMARK    5  A    between atoms: N_4  and  C_5
REMARK    6  A    between atoms: C_5  and  C_6
REMARK    7  A    between atoms: C_9  and  C_10
REMARK    8  A    between atoms: C_10  and  N_11
REMARK    9  A    between atoms: C_12  and  C_14
REMARK                            x       y       z     vdW  Elec       q    Type
REMARK                         _______ _______ _______ _____ _____    ______ ____
ROOT
ATOM      1  C   UNL     1      51.200   2.240  17.472  0.00  0.00    +0.000 A 
ATOM      2  C   UNL     1      49.826   2.189  17.188  0.00  0.00    +0.000 A 
ATOM      3  C   UNL     1      49.061   3.353  17.102  0.00  0.00    +0.000 A 
ATOM      4  C   UNL     1      49.658   4.606  17.270  0.00  0.00    +0.000 A 
ATOM      5  C   UNL     1      51.031   4.669  17.542  0.00  0.00    +0.000 A 
ATOM      6  C   UNL     1      51.794   3.501  17.638  0.00  0.00    +0.000 A 
ENDROOT
BRANCH   1   7
ATOM      7  C   UNL     1      52.056   0.994  17.615  0.00  0.00    +0.000 C 
BRANCH   7   8
ATOM      8  N   UNL     1      53.066   1.127  18.664  0.00  0.00    +0.000 NA
ATOM      9  H   UNL     1      52.983   2.068  19.054  0.00  0.00    +0.000 HD
BRANCH   8  10
ATOM     10  C   UNL     1      54.431   0.946  18.175  0.00  0.00    +0.000 C 
BRANCH  10  12
ATOM     11  C   UNL     1      55.292   1.898  20.382  0.00  0.00    +0.000 C 
ATOM     12  C   UNL     1      55.412   1.942  18.850  0.00  0.00    +0.000 C 
BRANCH  12  13
ATOM     13  C   UNL     1      55.285   3.347  18.280  0.00  0.00    +0.000 A 
ATOM     14  C   UNL     1      55.004   4.429  19.120  0.00  0.00    +0.000 A 
ATOM     15  C   UNL     1      54.885   5.712  18.589  0.00  0.00    +0.000 A 
ATOM     16  C   UNL     1      55.064   5.878  17.226  0.00  0.00    +0.000 A 
ATOM     17  N   UNL     1      55.361   4.869  16.384  0.00  0.00    +0.000 NA
ATOM     18  C   UNL     1      55.465   3.634  16.927  0.00  0.00    +0.000 A 
ENDBRANCH  12  13
ENDBRANCH  10  12
ENDBRANCH   8  10
ENDBRANCH   7   8
ENDBRANCH   1   7
BRANCH   4  19
ATOM     19  C   UNL     1      48.826   5.857  17.218  0.00  0.00    +0.000 C 
BRANCH  19  20
ATOM     20  N   UNL     1      47.935   5.832  16.085  0.00  0.00    +0.000 N 
ATOM     21  C   UNL     1      48.342   6.280  14.856  0.00  0.00    +0.000 C 
ATOM     22  O   UNL     1      49.488   6.674  14.655  0.00  0.00    +0.000 OA
ATOM     23  H   UNL     1      46.947   5.704  16.277  0.00  0.00    +0.000 HD
BRANCH  21  24
ATOM     24  C   UNL     1      47.354   6.215  13.772  0.00  0.00    +0.000 A 
ATOM     25  C   UNL     1      46.965   7.384  13.131  0.00  0.00    +0.000 A 
ATOM     26  S   UNL     1      45.836   7.136  11.879  0.00  0.00    +0.000 S 
ATOM     27  C   UNL     1      45.792   5.461  12.176  0.00  0.00    +0.000 A 
ATOM     28  N   UNL     1      44.980   4.646  11.451  0.00  0.00    +0.000 NA
ATOM     29  C   UNL     1      45.027   3.403  11.797  0.00  0.00    +0.000 A 
ATOM     30  N   UNL     1      45.816   2.901  12.800  0.00  0.00    +0.000 N 
ATOM     31  C   UNL     1      46.668   3.682  13.548  0.00  0.00    +0.000 A 
ATOM     32  O   UNL     1      47.388   3.190  14.409  0.00  0.00    +0.000 OA
ATOM     33  C   UNL     1      46.645   5.092  13.203  0.00  0.00    +0.000 A 
ATOM     34  H   UNL     1      45.815   1.916  13.015  0.00  0.00    +0.000 HD
ENDBRANCH  21  24
ENDBRANCH  19  20
ENDBRANCH   4  19
TORSDOF 8
ENDMDL
MODEL 7
REMARK VINA RESULT:    -7.315      3.406      4.374
REMARK INTER + INTRA:         -11.516
REMARK INTER:                 -10.448
REMARK INTRA:                  -1.067
REMARK UNBOUND:                -0.779
REMARK  Name = 
REMARK  9 active torsions:
REMARK  status: ('A' for Active; 'I' for Inactive)
REMARK    1  A    between atoms: C_1  and  C_2
REMARK    2  A    between atoms: C_2  and  C_3
REMARK    3  A    between atoms: C_2  and  C_26
REMARK    4  A    between atoms: C_3  and  N_4
REMARK    5  A    between atoms: N_4  and  C_5
REMARK    6  A    between atoms: C_5  and  C_6
REMARK    7  A    between atoms: C_9  and  C_10
REMARK    8  A    between atoms: C_10  and  N_11
REMARK    9  A    between atoms: C_12  and  C_14
REMARK                            x       y       z     vdW  Elec       q    Type
REMARK                         _______ _______ _______ _____ _____    ______ ____
ROOT
ATOM      1  C   UNL     1      47.085   5.853  13.494  0.00  0.00    +0.000 A 
ATOM      2  C   UNL     1      46.542   4.726  14.132  0.00  0.00    +0.000 A 
ATOM      3  C   UNL     1      46.978   4.332  15.398  0.00  0.00    +0.000 A 
ATOM      4  C   UNL     1      47.951   5.073  16.074  0.00  0.00    +0.000 A 
ATOM      5  C   UNL     1      48.490   6.206  15.451  0.00  0.00    +0.000 A 
ATOM      6  C   UNL     1      48.059   6.594  14.178  0.00  0.00    +0.000 A 
ENDROOT
BRANCH   1   7
ATOM      7  C   UNL     1      46.666   6.288  12.101  0.00  0.00    +0.000 C 
BRANCH   7   8
ATOM      8  N   UNL     1      46.104   5.189  11.317  0.00  0.00    +0.000 NA
ATOM      9  H   UNL     1      46.805   4.912  10.628  0.00  0.00    +0.000 HD
BRANCH   8  10
ATOM     10  C   UNL     1      44.877   5.555  10.611  0.00  0.00    +0.000 C 
BRANCH  10  12
ATOM     11  C   UNL     1      43.567   3.427  11.134  0.00  0.00    +0.000 C 
ATOM     12  C   UNL     1      44.167   4.306  10.025  0.00  0.00    +0.000 C 
BRANCH  12  13
ATOM     13  C   UNL     1      45.064   3.533   9.068  0.00  0.00    +0.000 A 
ATOM     14  C   UNL     1      45.183   2.143   9.177  0.00  0.00    +0.000 A 
ATOM     15  C   UNL     1      46.009   1.444   8.300  0.00  0.00    +0.000 A 
ATOM     16  C   UNL     1      46.688   2.157   7.326  0.00  0.00    +0.000 A 
ATOM     17  N   UNL     1      46.582   3.491   7.168  0.00  0.00    +0.000 NA
ATOM     18  C   UNL     1      45.777   4.144   8.038  0.00  0.00    +0.000 A 
ENDBRANCH  12  13
ENDBRANCH  10  12
ENDBRANCH   8  10
ENDBRANCH   7   8
ENDBRANCH   1   7
BRANCH   4  19
ATOM     19  C   UNL     1      48.449   4.625  17.420  0.00  0.00    +0.000 C 
BRANCH  19  20
ATOM     20  N   UNL     1      49.817   4.178  17.335  0.00  0.00    +0.000 N 
ATOM     21  C   UNL     1      50.674   4.321  18.393  0.00  0.00    +0.000 C 
ATOM     22  O   UNL     1      50.307   4.789  19.469  0.00  0.00    +0.000 OA
ATOM     23  H   UNL     1      50.182   3.980  16.410  0.00  0.00    +0.000 HD
BRANCH  21  24
ATOM     24  C   UNL     1      52.046   3.837  18.200  0.00  0.00    +0.000 A 
ATOM     25  C   UNL     1      53.113   4.702  18.406  0.00  0.00    +0.000 A 
ATOM     26  S   UNL     1      54.638   3.980  18.168  0.00  0.00    +0.000 S 
ATOM     27  C   UNL     1      53.929   2.495  17.739  0.00  0.00    +0.000 A 
ATOM     28  N   UNL     1      54.699   1.432  17.383  0.00  0.00    +0.000 NA
ATOM     29  C   UNL     1      54.031   0.376  17.058  0.00  0.00    +0.000 A 
ATOM     30  N   UNL     1      52.663   0.285  17.060  0.00  0.00    +0.000 N 
ATOM     31  C   UNL     1      51.841   1.325  17.431  0.00  0.00    +0.000 A 
ATOM     32  O   UNL     1      50.623   1.193  17.459  0.00  0.00    +0.000 OA
ATOM     33  C   UNL     1      52.546   2.542  17.798  0.00  0.00    +0.000 A 
ATOM     34  H   UNL     1      52.200  -0.574  16.805  0.00  0.00    +0.000 HD
ENDBRANCH  21  24
ENDBRANCH  19  20
ENDBRANCH   4  19
TORSDOF 8
ENDMDL
MODEL 8
REMARK VINA RESULT:    -7.083      4.093      9.651
REMARK INTER + INTRA:         -11.174
REMARK INTER:                  -9.362
REMARK INTRA:                  -1.812
REMARK UNBOUND:                -0.779
REMARK  Name = 
REMARK  9 active torsions:
REMARK  status: ('A' for Active; 'I' for Inactive)
REMARK    1  A    between atoms: C_1  and  C_2
REMARK    2  A    between atoms: C_2  and  C_3
REMARK    3  A    between atoms: C_2  and  C_26
REMARK    4  A    between atoms: C_3  and  N_4
REMARK    5  A    between atoms: N_4  and  C_5
REMARK    6  A    between atoms: C_5  and  C_6
REMARK    7  A    between atoms: C_9  and  C_10
REMARK    8  A    between atoms: C_10  and  N_11
REMARK    9  A    between atoms: C_12  and  C_14
REMARK                            x       y       z     vdW  Elec       q    Type
REMARK                         _______ _______ _______ _____ _____    ______ ____
ROOT
ATOM      1  C   UNL     1      51.445   3.040  17.841  0.00  0.00    +0.000 A 
ATOM      2  C   UNL     1      50.778   2.055  17.097  0.00  0.00    +0.000 A 
ATOM      3  C   UNL     1      49.410   2.149  16.833  0.00  0.00    +0.000 A 
ATOM      4  C   UNL     1      48.678   3.251  17.283  0.00  0.00    +0.000 A 
ATOM      5  C   UNL     1      49.336   4.247  18.015  0.00  0.00    +0.000 A 
ATOM      6  C   UNL     1      50.705   4.145  18.288  0.00  0.00    +0.000 A 
ENDROOT
BRANCH   1   7
ATOM      7  C   UNL     1      52.922   2.952  18.183  0.00  0.00    +0.000 C 
BRANCH   7   8
ATOM      8  N   UNL     1      53.421   4.169  18.821  0.00  0.00    +0.000 NA
ATOM      9  H   UNL     1      52.641   4.826  18.884  0.00  0.00    +0.000 HD
BRANCH   8  10
ATOM     10  C   UNL     1      54.505   4.806  18.076  0.00  0.00    +0.000 C 
BRANCH  10  12
ATOM     11  C   UNL     1      54.782   6.937  19.454  0.00  0.00    +0.000 C 
ATOM     12  C   UNL     1      54.373   6.352  18.092  0.00  0.00    +0.000 C 
BRANCH  12  13
ATOM     13  C   UNL     1      52.999   6.814  17.630  0.00  0.00    +0.000 A 
ATOM     14  C   UNL     1      52.562   6.545  16.328  0.00  0.00    +0.000 A 
ATOM     15  C   UNL     1      51.305   6.976  15.912  0.00  0.00    +0.000 A 
ATOM     16  C   UNL     1      50.510   7.657  16.818  0.00  0.00    +0.000 A 
ATOM     17  N   UNL     1      50.879   7.916  18.087  0.00  0.00    +0.000 NA
ATOM     18  C   UNL     1      52.108   7.490  18.463  0.00  0.00    +0.000 A 
ENDBRANCH  12  13
ENDBRANCH  10  12
ENDBRANCH   8  10
ENDBRANCH   7   8
ENDBRANCH   1   7
BRANCH   4  19
ATOM     19  C   UNL     1      47.197   3.332  17.033  0.00  0.00    +0.000 C 
BRANCH  19  20
ATOM     20  N   UNL     1      46.897   4.360  16.069  0.00  0.00    +0.000 N 
ATOM     21  C   UNL     1      47.012   4.124  14.725  0.00  0.00    +0.000 C 
ATOM     22  O   UNL     1      47.327   3.022  14.284  0.00  0.00    +0.000 OA
ATOM     23  H   UNL     1      46.834   5.313  16.413  0.00  0.00    +0.000 HD
BRANCH  21  24
ATOM     24  C   UNL     1      46.687   5.241  13.829  0.00  0.00    +0.000 A 
ATOM     25  C   UNL     1      47.601   6.273  13.663  0.00  0.00    +0.000 A 
ATOM     26  S   UNL     1      47.086   7.476  12.572  0.00  0.00    +0.000 S 
ATOM     27  C   UNL     1      45.603   6.684  12.313  0.00  0.00    +0.000 A 
ATOM     28  N   UNL     1      44.664   7.216  11.485  0.00  0.00    +0.000 NA
ATOM     29  C   UNL     1      43.577   6.525  11.400  0.00  0.00    +0.000 A 
ATOM     30  N   UNL     1      43.346   5.348  12.064  0.00  0.00    +0.000 N 
ATOM     31  C   UNL     1      44.271   4.760  12.896  0.00  0.00    +0.000 A 
ATOM     32  O   UNL     1      44.043   3.686  13.441  0.00  0.00    +0.000 OA
ATOM     33  C   UNL     1      45.510   5.505  13.033  0.00  0.00    +0.000 A 
ATOM     34  H   UNL     1      42.477   4.849  11.946  0.00  0.00    +0.000 HD
ENDBRANCH  21  24
ENDBRANCH  19  20
ENDBRANCH   4  19
TORSDOF 8
ENDMDL
MODEL 9
REMARK VINA RESULT:    -6.797      3.756      8.903
REMARK INTER + INTRA:         -10.755
REMARK INTER:                  -9.231
REMARK INTRA:                  -1.524
REMARK UNBOUND:                -0.779
REMARK  Name = 
REMARK  9 active torsions:
REMARK  status: ('A' for Active; 'I' for Inactive)
REMARK    1  A    between atoms: C_1  and  C_2
REMARK    2  A    between atoms: C_2  and  C_3
REMARK    3  A    between atoms: C_2  and  C_26
REMARK    4  A    between atoms: C_3  and  N_4
REMARK    5  A    between atoms: N_4  and  C_5
REMARK    6  A    between atoms: C_5  and  C_6
REMARK    7  A    between atoms: C_9  and  C_10
REMARK    8  A    between atoms: C_10  and  N_11
REMARK    9  A    between atoms: C_12  and  C_14
REMARK                            x       y       z     vdW  Elec       q    Type
REMARK                         _______ _______ _______ _____ _____    ______ ____
ROOT
ATOM      1  C   UNL     1      49.802   7.946  15.801  0.00  0.00    +0.000 A 
ATOM      2  C   UNL     1      50.124   7.370  14.562  0.00  0.00    +0.000 A 
ATOM      3  C   UNL     1      49.347   7.611  13.428  0.00  0.00    +0.000 A 
ATOM      4  C   UNL     1      48.239   8.461  13.497  0.00  0.00    +0.000 A 
ATOM      5  C   UNL     1      47.916   9.051  14.726  0.00  0.00    +0.000 A 
ATOM      6  C   UNL     1      48.691   8.801  15.863  0.00  0.00    +0.000 A 
ENDROOT
BRANCH   1   7
ATOM      7  C   UNL     1      50.599   7.675  17.065  0.00  0.00    +0.000 C 
BRANCH   7   8
ATOM      8  N   UNL     1      49.836   7.963  18.279  0.00  0.00    +0.000 NA
ATOM      9  H   UNL     1      50.361   8.657  18.815  0.00  0.00    +0.000 HD
BRANCH   8  10
ATOM     10  C   UNL     1      49.629   6.786  19.120  0.00  0.00    +0.000 C 
BRANCH  10  12
ATOM     11  C   UNL     1      47.455   6.041  20.232  0.00  0.00    +0.000 C 
ATOM     12  C   UNL     1      48.218   6.177  18.905  0.00  0.00    +0.000 C 
BRANCH  12  13
ATOM     13  C   UNL     1      48.269   4.882  18.109  0.00  0.00    +0.000 A 
ATOM     14  C   UNL     1      49.433   4.106  18.092  0.00  0.00    +0.000 A 
ATOM     15  C   UNL     1      49.473   2.923  17.356  0.00  0.00    +0.000 A 
ATOM     16  C   UNL     1      48.336   2.541  16.664  0.00  0.00    +0.000 A 
ATOM     17  N   UNL     1      47.186   3.243  16.674  0.00  0.00    +0.000 NA
ATOM     18  C   UNL     1      47.178   4.390  17.392  0.00  0.00    +0.000 A 
ENDBRANCH  12  13
ENDBRANCH  10  12
ENDBRANCH   8  10
ENDBRANCH   7   8
ENDBRANCH   1   7
BRANCH   4  19
ATOM     19  C   UNL     1      47.378   8.688  12.286  0.00  0.00    +0.000 C 
BRANCH  19  20
ATOM     20  N   UNL     1      46.957   7.433  11.716  0.00  0.00    +0.000 N 
ATOM     21  C   UNL     1      45.653   7.224  11.353  0.00  0.00    +0.000 C 
ATOM     22  O   UNL     1      44.802   8.105  11.451  0.00  0.00    +0.000 OA
ATOM     23  H   UNL     1      47.588   6.645  11.815  0.00  0.00    +0.000 HD
BRANCH  21  24
ATOM     24  C   UNL     1      45.329   5.908  10.787  0.00  0.00    +0.000 A 
ATOM     25  C   UNL     1      45.733   5.601   9.495  0.00  0.00    +0.000 A 
ATOM     26  S   UNL     1      45.305   4.028   8.998  0.00  0.00    +0.000 S 
ATOM     27  C   UNL     1      44.526   3.714  10.477  0.00  0.00    +0.000 A 
ATOM     28  N   UNL     1      43.907   2.524  10.700  0.00  0.00    +0.000 NA
ATOM     29  C   UNL     1      43.335   2.429  11.854  0.00  0.00    +0.000 A 
ATOM     30  N   UNL     1      43.330   3.414  12.806  0.00  0.00    +0.000 N 
ATOM     31  C   UNL     1      43.959   4.627  12.636  0.00  0.00    +0.000 A 
ATOM     32  O   UNL     1      43.967   5.468  13.528  0.00  0.00    +0.000 OA
ATOM     33  C   UNL     1      44.610   4.788  11.348  0.00  0.00    +0.000 A 
ATOM     34  H   UNL     1      42.873   3.273  13.694  0.00  0.00    +0.000 HD
ENDBRANCH  21  24
ENDBRANCH  19  20
ENDBRANCH   4  19
TORSDOF 8
ENDMDL
