MODEL 1
REMARK VINA RESULT:    -8.987      0.000      0.000
REMARK INTER + INTRA:         -13.369
REMARK INTER:                 -12.664
REMARK INTRA:                  -0.704
REMARK UNBOUND:                -0.704
REMARK  Name = 
REMARK  7 active torsions:
REMARK  status: ('A' for Active; 'I' for Inactive)
REMARK    1  A    between atoms: C_2  and  C_4
REMARK    2  A    between atoms: C_7  and  C_8
REMARK    3  A    between atoms: C_8  and  C_9
REMARK    4  A    between atoms: C_9  and  C_10
REMARK    5  A    between atoms: C_14  and  C_15
REMARK    6  A    between atoms: C_19  and  O_20
REMARK    7  A    between atoms: O_20  and  C_21
REMARK                            x       y       z     vdW  Elec       q    Type
REMARK                         _______ _______ _______ _____ _____    ______ ____
ROOT
ATOM      1  C   UNL     1      44.084   4.977  11.588  0.00  0.00    +0.000 C 
ATOM      2  C   UNL     1      43.289   4.047  12.509  0.00  0.00    +0.000 C 
ATOM      3  C   UNL     1      42.917   5.485  12.416  0.00  0.00    +0.000 C 
ATOM      4  F   UNL     1      41.742   5.796  11.758  0.00  0.00    +0.000 F 
ENDROOT
BRANCH   1   5
ATOM      5  C   UNL     1      45.439   5.509  12.038  0.00  0.00    +0.000 A 
ATOM      6  C   UNL     1      46.089   6.526  11.337  0.00  0.00    +0.000 A 
ATOM      7  C   UNL     1      47.273   7.056  11.833  0.00  0.00    +0.000 A 
ATOM      8  C   UNL     1      47.779   6.578  13.034  0.00  0.00    +0.000 A 
ATOM      9  C   UNL     1      47.091   5.571  13.703  0.00  0.00    +0.000 A 
ATOM     10  N   UNL     1      45.954   5.032  13.201  0.00  0.00    +0.000 NA
BRANCH   9  11
ATOM     11  C   UNL     1      47.514   5.042  15.008  0.00  0.00    +0.000 A 
ATOM     12  C   UNL     1      47.143   3.762  15.425  0.00  0.00    +0.000 A 
ATOM     13  N   UNL     1      47.484   3.202  16.611  0.00  0.00    +0.000 NA
ATOM     14  C   UNL     1      48.235   3.962  17.440  0.00  0.00    +0.000 A 
ATOM     15  C   UNL     1      48.674   5.243  17.138  0.00  0.00    +0.000 A 
ATOM     16  C   UNL     1      48.282   5.792  15.917  0.00  0.00    +0.000 A 
BRANCH  15  17
ATOM     17  O   UNL     1      49.434   5.865  18.083  0.00  0.00    +0.000 OA
BRANCH  17  18
ATOM     18  C   UNL     1      48.932   7.112  18.539  0.00  0.00    +0.000 C 
ATOM     19  F   UNL     1      47.660   6.937  18.975  0.00  0.00    +0.000 F 
ATOM     20  F   UNL     1      49.671   7.477  19.616  0.00  0.00    +0.000 F 
ENDBRANCH  17  18
ENDBRANCH  15  17
ENDBRANCH   9  11
ENDBRANCH   1   5
BRANCH   1  21
ATOM     21  C   UNL     1      43.864   4.825  10.094  0.00  0.00    +0.000 C 
BRANCH  21  25
ATOM     22  C   UNL     1      46.493   2.458   7.706  0.00  0.00    +0.000 A 
ATOM     23  C   UNL     1      45.730   1.815   8.677  0.00  0.00    +0.000 A 
ATOM     24  C   UNL     1      44.910   2.571   9.518  0.00  0.00    +0.000 A 
ATOM     25  C   UNL     1      44.878   3.957   9.376  0.00  0.00    +0.000 A 
ATOM     26  N   UNL     1      45.657   4.598   8.465  0.00  0.00    +0.000 NA
ATOM     27  C   UNL     1      46.452   3.844   7.664  0.00  0.00    +0.000 A 
BRANCH  22  29
ATOM     28  N   UNL     1      48.285   2.445   6.071  0.00  0.00    +0.000 N 
ATOM     29  C   UNL     1      47.313   1.731   6.714  0.00  0.00    +0.000 C 
ATOM     30  O   UNL     1      47.165   0.533   6.516  0.00  0.00    +0.000 OA
ATOM     31  H   UNL     1      48.923   1.915   5.490  0.00  0.00    +0.000 HD
ATOM     32  H   UNL     1      48.598   3.350   6.398  0.00  0.00    +0.000 HD
ENDBRANCH  22  29
ENDBRANCH  21  25
ENDBRANCH   1  21
TORSDOF 7
ENDMDL
MODEL 2
REMARK VINA RESULT:    -8.403      1.794      2.127
REMARK INTER + INTRA:         -12.546
REMARK INTER:                 -12.345
REMARK INTRA:                  -0.201
REMARK UNBOUND:                -0.704
REMARK  Name = 
REMARK  7 active torsions:
REMARK  status: ('A' for Active; 'I' for Inactive)
REMARK    1  A    between atoms: C_2  and  C_4
REMARK    2  A    between atoms: C_7  and  C_8
REMARK    3  A    between atoms: C_8  and  C_9
REMARK    4  A    between atoms: C_9  and  C_10
REMARK    5  A    between atoms: C_14  and  C_15
REMARK    6  A    between atoms: C_19  and  O_20
REMARK    7  A    between atoms: O_20  and  C_21
REMARK                            x       y       z     vdW  Elec       q    Type
REMARK                         _______ _______ _______ _____ _____    ______ ____
ROOT
ATOM      1  C   UNL     1      44.270   4.817  11.639  0.00  0.00    +0.000 C 
ATOM      2  C   UNL     1      43.770   3.780  12.649  0.00  0.00    +0.000 C 
ATOM      3  C   UNL     1      43.151   5.133  12.616  0.00  0.00    +0.000 C 
ATOM      4  F   UNL     1      41.865   5.231  12.118  0.00  0.00    +0.000 F 
ENDROOT
BRANCH   1   5
ATOM      5  C   UNL     1      45.562   5.577  11.912  0.00  0.00    +0.000 A 
ATOM      6  C   UNL     1      46.016   6.572  11.045  0.00  0.00    +0.000 A 
ATOM      7  C   UNL     1      47.142   7.313  11.378  0.00  0.00    +0.000 A 
ATOM      8  C   UNL     1      47.786   7.065  12.583  0.00  0.00    +0.000 A 
ATOM      9  C   UNL     1      47.291   6.070  13.420  0.00  0.00    +0.000 A 
ATOM     10  N   UNL     1      46.212   5.325  13.078  0.00  0.00    +0.000 NA
BRANCH   9  11
ATOM     11  C   UNL     1      47.866   5.774  14.740  0.00  0.00    +0.000 A 
ATOM     12  C   UNL     1      48.821   6.613  15.318  0.00  0.00    +0.000 A 
ATOM     13  N   UNL     1      49.403   6.411  16.525  0.00  0.00    +0.000 NA
ATOM     14  C   UNL     1      49.021   5.303  17.199  0.00  0.00    +0.000 A 
ATOM     15  C   UNL     1      48.077   4.398  16.735  0.00  0.00    +0.000 A 
ATOM     16  C   UNL     1      47.517   4.629  15.479  0.00  0.00    +0.000 A 
BRANCH  15  17
ATOM     17  O   UNL     1      47.798   3.338  17.547  0.00  0.00    +0.000 OA
BRANCH  17  18
ATOM     18  C   UNL     1      48.602   2.188  17.339  0.00  0.00    +0.000 C 
ATOM     19  F   UNL     1      48.856   2.067  16.012  0.00  0.00    +0.000 F 
ATOM     20  F   UNL     1      49.792   2.408  17.949  0.00  0.00    +0.000 F 
ENDBRANCH  17  18
ENDBRANCH  15  17
ENDBRANCH   9  11
ENDBRANCH   1   5
BRANCH   1  21
ATOM     21  C   UNL     1      43.887   4.606  10.185  0.00  0.00    +0.000 C 
BRANCH  21  25
ATOM     22  C   UNL     1      46.587   2.759   7.445  0.00  0.00    +0.000 A 
ATOM     23  C   UNL     1      45.892   1.942   8.334  0.00  0.00    +0.000 A 
ATOM     24  C   UNL     1      45.052   2.523   9.287  0.00  0.00    +0.000 A 
ATOM     25  C   UNL     1      44.931   3.911   9.336  0.00  0.00    +0.000 A 
ATOM     26  N   UNL     1      45.643   4.718   8.506  0.00  0.00    +0.000 NA
ATOM     27  C   UNL     1      46.459   4.132   7.593  0.00  0.00    +0.000 A 
BRANCH  22  29
ATOM     28  N   UNL     1      47.429   2.934   5.177  0.00  0.00    +0.000 N 
ATOM     29  C   UNL     1      47.421   2.227   6.347  0.00  0.00    +0.000 C 
ATOM     30  O   UNL     1      48.115   1.230   6.494  0.00  0.00    +0.000 OA
ATOM     31  H   UNL     1      48.097   2.638   4.476  0.00  0.00    +0.000 HD
ATOM     32  H   UNL     1      47.082   3.882   5.114  0.00  0.00    +0.000 HD
ENDBRANCH  22  29
ENDBRANCH  21  25
ENDBRANCH   1  21
TORSDOF 7
ENDMDL
MODEL 3
REMARK VINA RESULT:    -8.317      2.041      2.727
REMARK INTER + INTRA:         -12.426
REMARK INTER:                 -11.950
REMARK INTRA:                  -0.476
REMARK UNBOUND:                -0.704
REMARK  Name = 
REMARK  7 active torsions:
REMARK  status: ('A' for Active; 'I' for Inactive)
REMARK    1  A    between atoms: C_2  and  C_4
REMARK    2  A    between atoms: C_7  and  C_8
REMARK    3  A    between atoms: C_8  and  C_9
REMARK    4  A    between atoms: C_9  and  C_10
REMARK    5  A    between atoms: C_14  and  C_15
REMARK    6  A    between atoms: C_19  and  O_20
REMARK    7  A    between atoms: O_20  and  C_21
REMARK                            x       y       z     vdW  Elec       q    Type
REMARK                         _______ _______ _______ _____ _____    ______ ____
ROOT
ATOM      1  C   UNL     1      44.681   4.819  11.769  0.00  0.00    +0.000 C 
ATOM      2  C   UNL     1      45.450   3.678  12.441  0.00  0.00    +0.000 C 
ATOM      3  C   UNL     1      44.198   4.189  13.064  0.00  0.00    +0.000 C 
ATOM      4  F   UNL     1      43.084   3.374  13.012  0.00  0.00    +0.000 F 
ENDROOT
BRANCH   1   5
ATOM      5  C   UNL     1      45.170   6.254  11.923  0.00  0.00    +0.000 A 
ATOM      6  C   UNL     1      44.437   7.329  11.419  0.00  0.00    +0.000 A 
ATOM      7  C   UNL     1      44.860   8.628  11.667  0.00  0.00    +0.000 A 
ATOM      8  C   UNL     1      45.998   8.835  12.435  0.00  0.00    +0.000 A 
ATOM      9  C   UNL     1      46.691   7.733  12.926  0.00  0.00    +0.000 A 
ATOM     10  N   UNL     1      46.295   6.466  12.654  0.00  0.00    +0.000 NA
BRANCH   9  11
ATOM     11  C   UNL     1      47.870   7.850  13.797  0.00  0.00    +0.000 A 
ATOM     12  C   UNL     1      48.584   9.046  13.890  0.00  0.00    +0.000 A 
ATOM     13  N   UNL     1      49.682   9.236  14.662  0.00  0.00    +0.000 NA
ATOM     14  C   UNL     1      50.102   8.172  15.382  0.00  0.00    +0.000 A 
ATOM     15  C   UNL     1      49.474   6.935  15.381  0.00  0.00    +0.000 A 
ATOM     16  C   UNL     1      48.361   6.773  14.556  0.00  0.00    +0.000 A 
BRANCH  15  17
ATOM     17  O   UNL     1      50.022   5.972  16.175  0.00  0.00    +0.000 OA
BRANCH  17  18
ATOM     18  C   UNL     1      49.101   5.256  16.983  0.00  0.00    +0.000 C 
ATOM     19  F   UNL     1      49.510   3.966  17.074  0.00  0.00    +0.000 F 
ATOM     20  F   UNL     1      49.164   5.779  18.232  0.00  0.00    +0.000 F 
ENDBRANCH  17  18
ENDBRANCH  15  17
ENDBRANCH   9  11
ENDBRANCH   1   5
BRANCH   1  21
ATOM     21  C   UNL     1      43.913   4.484  10.503  0.00  0.00    +0.000 C 
BRANCH  21  25
ATOM     22  C   UNL     1      46.490   2.548   7.706  0.00  0.00    +0.000 A 
ATOM     23  C   UNL     1      46.417   3.939   7.678  0.00  0.00    +0.000 A 
ATOM     24  C   UNL     1      45.532   4.597   8.536  0.00  0.00    +0.000 A 
ATOM     25  C   UNL     1      44.733   3.848   9.399  0.00  0.00    +0.000 A 
ATOM     26  N   UNL     1      44.762   2.490   9.398  0.00  0.00    +0.000 NA
ATOM     27  C   UNL     1      45.623   1.871   8.550  0.00  0.00    +0.000 A 
BRANCH  22  29
ATOM     28  N   UNL     1      48.532   2.463   6.400  0.00  0.00    +0.000 N 
ATOM     29  C   UNL     1      47.463   1.777   6.904  0.00  0.00    +0.000 C 
ATOM     30  O   UNL     1      47.347   0.569   6.743  0.00  0.00    +0.000 OA
ATOM     31  H   UNL     1      49.258   1.908   5.962  0.00  0.00    +0.000 HD
ATOM     32  H   UNL     1      48.789   3.384   6.729  0.00  0.00    +0.000 HD
ENDBRANCH  22  29
ENDBRANCH  21  25
ENDBRANCH   1  21
TORSDOF 7
ENDMDL
MODEL 4
REMARK VINA RESULT:    -8.068      3.782      4.653
REMARK INTER + INTRA:         -12.074
REMARK INTER:                 -11.388
REMARK INTRA:                  -0.686
REMARK UNBOUND:                -0.704
REMARK  Name = 
REMARK  7 active torsions:
REMARK  status: ('A' for Active; 'I' for Inactive)
REMARK    1  A    between atoms: C_2  and  C_4
REMARK    2  A    between atoms: C_7  and  C_8
REMARK    3  A    between atoms: C_8  and  C_9
REMARK    4  A    between atoms: C_9  and  C_10
REMARK    5  A    between atoms: C_14  and  C_15
REMARK    6  A    between atoms: C_19  and  O_20
REMARK    7  A    between atoms: O_20  and  C_21
REMARK                            x       y       z     vdW  Elec       q    Type
REMARK                         _______ _______ _______ _____ _____    ______ ____
ROOT
ATOM      1  C   UNL     1      44.794   4.755  11.703  0.00  0.00    +0.000 C 
ATOM      2  C   UNL     1      45.584   3.694  12.474  0.00  0.00    +0.000 C 
ATOM      3  C   UNL     1      44.342   4.261  13.065  0.00  0.00    +0.000 C 
ATOM      4  F   UNL     1      43.232   3.440  13.122  0.00  0.00    +0.000 F 
ENDROOT
BRANCH   1   5
ATOM      5  C   UNL     1      45.276   6.200  11.697  0.00  0.00    +0.000 A 
ATOM      6  C   UNL     1      44.378   7.265  11.610  0.00  0.00    +0.000 A 
ATOM      7  C   UNL     1      44.844   8.569  11.711  0.00  0.00    +0.000 A 
ATOM      8  C   UNL     1      46.199   8.791  11.920  0.00  0.00    +0.000 A 
ATOM      9  C   UNL     1      47.055   7.698  12.010  0.00  0.00    +0.000 A 
ATOM     10  N   UNL     1      46.603   6.428  11.878  0.00  0.00    +0.000 NA
BRANCH   9  11
ATOM     11  C   UNL     1      48.493   7.828  12.289  0.00  0.00    +0.000 A 
ATOM     12  C   UNL     1      48.983   7.793  13.596  0.00  0.00    +0.000 A 
ATOM     13  N   UNL     1      50.288   7.910  13.939  0.00  0.00    +0.000 NA
ATOM     14  C   UNL     1      51.164   8.080  12.923  0.00  0.00    +0.000 A 
ATOM     15  C   UNL     1      50.803   8.123  11.584  0.00  0.00    +0.000 A 
ATOM     16  C   UNL     1      49.447   8.021  11.274  0.00  0.00    +0.000 A 
BRANCH  15  17
ATOM     17  O   UNL     1      51.815   8.288  10.685  0.00  0.00    +0.000 OA
BRANCH  17  18
ATOM     18  C   UNL     1      52.119   7.147   9.899  0.00  0.00    +0.000 C 
ATOM     19  F   UNL     1      52.511   7.557   8.667  0.00  0.00    +0.000 F 
ATOM     20  F   UNL     1      53.186   6.535  10.468  0.00  0.00    +0.000 F 
ENDBRANCH  17  18
ENDBRANCH  15  17
ENDBRANCH   9  11
ENDBRANCH   1   5
BRANCH   1  21
ATOM     21  C   UNL     1      44.003   4.286  10.495  0.00  0.00    +0.000 C 
BRANCH  21  25
ATOM     22  C   UNL     1      46.633   2.745   7.507  0.00  0.00    +0.000 A 
ATOM     23  C   UNL     1      46.467   4.125   7.587  0.00  0.00    +0.000 A 
ATOM     24  C   UNL     1      45.563   4.656   8.510  0.00  0.00    +0.000 A 
ATOM     25  C   UNL     1      44.836   3.792   9.329  0.00  0.00    +0.000 A 
ATOM     26  N   UNL     1      44.954   2.443   9.223  0.00  0.00    +0.000 NA
ATOM     27  C   UNL     1      45.833   1.949   8.314  0.00  0.00    +0.000 A 
BRANCH  22  29
ATOM     28  N   UNL     1      48.051   2.817   5.541  0.00  0.00    +0.000 N 
ATOM     29  C   UNL     1      47.634   2.104   6.630  0.00  0.00    +0.000 C 
ATOM     30  O   UNL     1      48.110   1.007   6.893  0.00  0.00    +0.000 OA
ATOM     31  H   UNL     1      48.827   2.429   5.018  0.00  0.00    +0.000 HD
ATOM     32  H   UNL     1      47.878   3.809   5.445  0.00  0.00    +0.000 HD
ENDBRANCH  22  29
ENDBRANCH  21  25
ENDBRANCH   1  21
TORSDOF 7
ENDMDL
MODEL 5
REMARK VINA RESULT:    -8.033      3.111      8.479
REMARK INTER + INTRA:         -12.025
REMARK INTER:                 -11.004
REMARK INTRA:                  -1.022
REMARK UNBOUND:                -0.704
REMARK  Name = 
REMARK  7 active torsions:
REMARK  status: ('A' for Active; 'I' for Inactive)
REMARK    1  A    between atoms: C_2  and  C_4
REMARK    2  A    between atoms: C_7  and  C_8
REMARK    3  A    between atoms: C_8  and  C_9
REMARK    4  A    between atoms: C_9  and  C_10
REMARK    5  A    between atoms: C_14  and  C_15
REMARK    6  A    between atoms: C_19  and  O_20
REMARK    7  A    between atoms: O_20  and  C_21
REMARK                            x       y       z     vdW  Elec       q    Type
REMARK                         _______ _______ _______ _____ _____    ______ ____
ROOT
ATOM      1  C   UNL     1      47.891   7.994  12.300  0.00  0.00    +0.000 C 
ATOM      2  C   UNL     1      48.370   9.256  11.577  0.00  0.00    +0.000 C 
ATOM      3  C   UNL     1      47.879   9.352  12.979  0.00  0.00    +0.000 C 
ATOM      4  F   UNL     1      48.815   9.592  13.966  0.00  0.00    +0.000 F 
ENDROOT
BRANCH   1   5
ATOM      5  C   UNL     1      46.504   7.436  12.007  0.00  0.00    +0.000 A 
ATOM      6  C   UNL     1      45.351   8.103  12.422  0.00  0.00    +0.000 A 
ATOM      7  C   UNL     1      44.104   7.618  12.049  0.00  0.00    +0.000 A 
ATOM      8  C   UNL     1      44.027   6.487  11.248  0.00  0.00    +0.000 A 
ATOM      9  C   UNL     1      45.205   5.861  10.850  0.00  0.00    +0.000 A 
ATOM     10  N   UNL     1      46.419   6.316  11.243  0.00  0.00    +0.000 NA
BRANCH   9  11
ATOM     11  C   UNL     1      45.230   4.695   9.955  0.00  0.00    +0.000 A 
ATOM     12  C   UNL     1      44.781   3.444  10.383  0.00  0.00    +0.000 A 
ATOM     13  N   UNL     1      44.775   2.321   9.625  0.00  0.00    +0.000 NA
ATOM     14  C   UNL     1      45.250   2.443   8.365  0.00  0.00    +0.000 A 
ATOM     15  C   UNL     1      45.715   3.631   7.821  0.00  0.00    +0.000 A 
ATOM     16  C   UNL     1      45.726   4.760   8.640  0.00  0.00    +0.000 A 
BRANCH  15  17
ATOM     17  O   UNL     1      46.149   3.581   6.529  0.00  0.00    +0.000 OA
BRANCH  17  18
ATOM     18  C   UNL     1      47.108   2.573   6.251  0.00  0.00    +0.000 C 
ATOM     19  F   UNL     1      47.481   2.672   4.951  0.00  0.00    +0.000 F 
ATOM     20  F   UNL     1      48.207   2.840   6.998  0.00  0.00    +0.000 F 
ENDBRANCH  17  18
ENDBRANCH  15  17
ENDBRANCH   9  11
ENDBRANCH   1   5
BRANCH   1  21
ATOM     21  C   UNL     1      48.955   7.005  12.742  0.00  0.00    +0.000 C 
BRANCH  21  25
ATOM     22  C   UNL     1      47.687   5.045  16.315  0.00  0.00    +0.000 A 
ATOM     23  C   UNL     1      48.596   6.094  16.428  0.00  0.00    +0.000 A 
ATOM     24  C   UNL     1      49.080   6.711  15.272  0.00  0.00    +0.000 A 
ATOM     25  C   UNL     1      48.651   6.259  14.025  0.00  0.00    +0.000 A 
ATOM     26  N   UNL     1      47.803   5.203  13.903  0.00  0.00    +0.000 NA
ATOM     27  C   UNL     1      47.352   4.614  15.040  0.00  0.00    +0.000 A 
BRANCH  22  29
ATOM     28  N   UNL     1      46.830   5.185  18.579  0.00  0.00    +0.000 N 
ATOM     29  C   UNL     1      47.052   4.400  17.483  0.00  0.00    +0.000 C 
ATOM     30  O   UNL     1      46.691   3.231  17.453  0.00  0.00    +0.000 OA
ATOM     31  H   UNL     1      46.282   4.773  19.325  0.00  0.00    +0.000 HD
ATOM     32  H   UNL     1      46.873   6.195  18.540  0.00  0.00    +0.000 HD
ENDBRANCH  22  29
ENDBRANCH  21  25
ENDBRANCH   1  21
TORSDOF 7
ENDMDL
MODEL 6
REMARK VINA RESULT:    -7.449      3.447      4.476
REMARK INTER + INTRA:         -11.202
REMARK INTER:                 -10.399
REMARK INTRA:                  -0.803
REMARK UNBOUND:                -0.704
REMARK  Name = 
REMARK  7 active torsions:
REMARK  status: ('A' for Active; 'I' for Inactive)
REMARK    1  A    between atoms: C_2  and  C_4
REMARK    2  A    between atoms: C_7  and  C_8
REMARK    3  A    between atoms: C_8  and  C_9
REMARK    4  A    between atoms: C_9  and  C_10
REMARK    5  A    between atoms: C_14  and  C_15
REMARK    6  A    between atoms: C_19  and  O_20
REMARK    7  A    between atoms: O_20  and  C_21
REMARK                            x       y       z     vdW  Elec       q    Type
REMARK                         _______ _______ _______ _____ _____    ______ ____
ROOT
ATOM      1  C   UNL     1      43.923   4.537  11.977  0.00  0.00    +0.000 C 
ATOM      2  C   UNL     1      42.705   5.168  12.656  0.00  0.00    +0.000 C 
ATOM      3  C   UNL     1      43.343   5.856  11.500  0.00  0.00    +0.000 C 
ATOM      4  F   UNL     1      42.650   5.866  10.305  0.00  0.00    +0.000 F 
ENDROOT
BRANCH   1   5
ATOM      5  C   UNL     1      45.298   4.662  12.622  0.00  0.00    +0.000 A 
ATOM      6  C   UNL     1      45.877   3.595  13.309  0.00  0.00    +0.000 A 
ATOM      7  C   UNL     1      47.173   3.711  13.796  0.00  0.00    +0.000 A 
ATOM      8  C   UNL     1      47.880   4.885  13.569  0.00  0.00    +0.000 A 
ATOM      9  C   UNL     1      47.265   5.918  12.869  0.00  0.00    +0.000 A 
ATOM     10  N   UNL     1      45.989   5.815  12.424  0.00  0.00    +0.000 NA
BRANCH   9  11
ATOM     11  C   UNL     1      47.950   7.173  12.527  0.00  0.00    +0.000 A 
ATOM     12  C   UNL     1      47.230   8.329  12.219  0.00  0.00    +0.000 A 
ATOM     13  N   UNL     1      47.782   9.522  11.888  0.00  0.00    +0.000 NA
ATOM     14  C   UNL     1      49.133   9.571  11.855  0.00  0.00    +0.000 A 
ATOM     15  C   UNL     1      49.957   8.495  12.148  0.00  0.00    +0.000 A 
ATOM     16  C   UNL     1      49.351   7.278  12.461  0.00  0.00    +0.000 A 
BRANCH  15  17
ATOM     17  O   UNL     1      51.300   8.719  12.077  0.00  0.00    +0.000 OA
BRANCH  17  18
ATOM     18  C   UNL     1      51.904   8.393  10.835  0.00  0.00    +0.000 C 
ATOM     19  F   UNL     1      51.161   7.436  10.226  0.00  0.00    +0.000 F 
ATOM     20  F   UNL     1      51.844   9.497  10.052  0.00  0.00    +0.000 F 
ENDBRANCH  17  18
ENDBRANCH  15  17
ENDBRANCH   9  11
ENDBRANCH   1   5
BRANCH   1  21
ATOM     21  C   UNL     1      43.676   3.314  11.111  0.00  0.00    +0.000 C 
BRANCH  21  25
ATOM     22  C   UNL     1      46.331   2.941   7.790  0.00  0.00    +0.000 A 
ATOM     23  C   UNL     1      45.961   4.222   8.195  0.00  0.00    +0.000 A 
ATOM     24  C   UNL     1      45.042   4.374   9.235  0.00  0.00    +0.000 A 
ATOM     25  C   UNL     1      44.505   3.241   9.845  0.00  0.00    +0.000 A 
ATOM     26  N   UNL     1      44.821   1.988   9.422  0.00  0.00    +0.000 NA
ATOM     27  C   UNL     1      45.710   1.864   8.404  0.00  0.00    +0.000 A 
BRANCH  22  29
ATOM     28  N   UNL     1      47.246   3.366   5.584  0.00  0.00    +0.000 N 
ATOM     29  C   UNL     1      47.365   2.688   6.765  0.00  0.00    +0.000 C 
ATOM     30  O   UNL     1      48.315   1.947   6.982  0.00  0.00    +0.000 OA
ATOM     31  H   UNL     1      48.022   3.287   4.939  0.00  0.00    +0.000 HD
ATOM     32  H   UNL     1      46.635   4.165   5.478  0.00  0.00    +0.000 HD
ENDBRANCH  22  29
ENDBRANCH  21  25
ENDBRANCH   1  21
TORSDOF 7
ENDMDL
MODEL 7
REMARK VINA RESULT:    -7.283      3.167      8.377
REMARK INTER + INTRA:         -10.968
REMARK INTER:                  -9.477
REMARK INTRA:                  -1.491
REMARK UNBOUND:                -0.704
REMARK  Name = 
REMARK  7 active torsions:
REMARK  status: ('A' for Active; 'I' for Inactive)
REMARK    1  A    between atoms: C_2  and  C_4
REMARK    2  A    between atoms: C_7  and  C_8
REMARK    3  A    between atoms: C_8  and  C_9
REMARK    4  A    between atoms: C_9  and  C_10
REMARK    5  A    between atoms: C_14  and  C_15
REMARK    6  A    between atoms: C_19  and  O_20
REMARK    7  A    between atoms: O_20  and  C_21
REMARK                            x       y       z     vdW  Elec       q    Type
REMARK                         _______ _______ _______ _____ _____    ______ ____
ROOT
ATOM      1  C   UNL     1      49.259   8.274  17.700  0.00  0.00    +0.000 C 
ATOM      2  C   UNL     1      48.791   9.652  18.176  0.00  0.00    +0.000 C 
ATOM      3  C   UNL     1      47.829   8.517  18.149  0.00  0.00    +0.000 C 
ATOM      4  F   UNL     1      47.432   7.991  19.364  0.00  0.00    +0.000 F 
ENDROOT
BRANCH   1   5
ATOM      5  C   UNL     1      49.401   7.997  16.209  0.00  0.00    +0.000 A 
ATOM      6  C   UNL     1      50.552   8.360  15.509  0.00  0.00    +0.000 A 
ATOM      7  C   UNL     1      50.690   8.001  14.175  0.00  0.00    +0.000 A 
ATOM      8  C   UNL     1      49.684   7.263  13.564  0.00  0.00    +0.000 A 
ATOM      9  C   UNL     1      48.559   6.914  14.304  0.00  0.00    +0.000 A 
ATOM     10  N   UNL     1      48.412   7.295  15.597  0.00  0.00    +0.000 NA
BRANCH   9  11
ATOM     11  C   UNL     1      47.471   6.085  13.766  0.00  0.00    +0.000 A 
ATOM     12  C   UNL     1      47.064   4.916  14.412  0.00  0.00    +0.000 A 
ATOM     13  N   UNL     1      46.076   4.095  13.981  0.00  0.00    +0.000 NA
ATOM     14  C   UNL     1      45.456   4.450  12.833  0.00  0.00    +0.000 A 
ATOM     15  C   UNL     1      45.764   5.590  12.104  0.00  0.00    +0.000 A 
ATOM     16  C   UNL     1      46.802   6.398  12.569  0.00  0.00    +0.000 A 
BRANCH  15  17
ATOM     17  O   UNL     1      45.033   5.806  10.974  0.00  0.00    +0.000 OA
BRANCH  17  18
ATOM     18  C   UNL     1      45.081   4.763  10.013  0.00  0.00    +0.000 C 
ATOM     19  F   UNL     1      43.837   4.579   9.505  0.00  0.00    +0.000 F 
ATOM     20  F   UNL     1      45.865   5.187   8.991  0.00  0.00    +0.000 F 
ENDBRANCH  17  18
ENDBRANCH  15  17
ENDBRANCH   9  11
ENDBRANCH   1   5
BRANCH   1  21
ATOM     21  C   UNL     1      50.159   7.488  18.637  0.00  0.00    +0.000 C 
BRANCH  21  25
ATOM     22  C   UNL     1      50.235   3.359  17.557  0.00  0.00    +0.000 A 
ATOM     23  C   UNL     1      49.090   3.855  18.176  0.00  0.00    +0.000 A 
ATOM     24  C   UNL     1      49.061   5.185  18.601  0.00  0.00    +0.000 A 
ATOM     25  C   UNL     1      50.182   5.991  18.406  0.00  0.00    +0.000 A 
ATOM     26  N   UNL     1      51.322   5.501  17.849  0.00  0.00    +0.000 NA
ATOM     27  C   UNL     1      51.330   4.203  17.451  0.00  0.00    +0.000 A 
BRANCH  22  29
ATOM     28  N   UNL     1      51.075   1.087  17.678  0.00  0.00    +0.000 N 
ATOM     29  C   UNL     1      50.318   1.996  16.993  0.00  0.00    +0.000 C 
ATOM     30  O   UNL     1      49.696   1.679  15.988  0.00  0.00    +0.000 OA
ATOM     31  H   UNL     1      51.025   0.127  17.358  0.00  0.00    +0.000 HD
ATOM     32  H   UNL     1      51.379   1.243  18.630  0.00  0.00    +0.000 HD
ENDBRANCH  22  29
ENDBRANCH  21  25
ENDBRANCH   1  21
TORSDOF 7
ENDMDL
MODEL 8
REMARK VINA RESULT:    -6.880      3.337      8.364
REMARK INTER + INTRA:         -10.400
REMARK INTER:                  -9.683
REMARK INTRA:                  -0.716
REMARK UNBOUND:                -0.704
REMARK  Name = 
REMARK  7 active torsions:
REMARK  status: ('A' for Active; 'I' for Inactive)
REMARK    1  A    between atoms: C_2  and  C_4
REMARK    2  A    between atoms: C_7  and  C_8
REMARK    3  A    between atoms: C_8  and  C_9
REMARK    4  A    between atoms: C_9  and  C_10
REMARK    5  A    between atoms: C_14  and  C_15
REMARK    6  A    between atoms: C_19  and  O_20
REMARK    7  A    between atoms: O_20  and  C_21
REMARK                            x       y       z     vdW  Elec       q    Type
REMARK                         _______ _______ _______ _____ _____    ______ ____
ROOT
ATOM      1  C   UNL     1      48.703   8.077  12.972  0.00  0.00    +0.000 C 
ATOM      2  C   UNL     1      49.713   7.238  12.185  0.00  0.00    +0.000 C 
ATOM      3  C   UNL     1      49.608   8.699  11.924  0.00  0.00    +0.000 C 
ATOM      4  F   UNL     1      50.648   9.499  12.357  0.00  0.00    +0.000 F 
ENDROOT
BRANCH   1   5
ATOM      5  C   UNL     1      47.230   8.051  12.582  0.00  0.00    +0.000 A 
ATOM      6  C   UNL     1      46.563   9.211  12.189  0.00  0.00    +0.000 A 
ATOM      7  C   UNL     1      45.250   9.133  11.742  0.00  0.00    +0.000 A 
ATOM      8  C   UNL     1      44.630   7.892  11.672  0.00  0.00    +0.000 A 
ATOM      9  C   UNL     1      45.339   6.761  12.065  0.00  0.00    +0.000 A 
ATOM     10  N   UNL     1      46.608   6.844  12.533  0.00  0.00    +0.000 NA
BRANCH   9  11
ATOM     11  C   UNL     1      44.792   5.400  11.972  0.00  0.00    +0.000 A 
ATOM     12  C   UNL     1      44.021   4.858  13.002  0.00  0.00    +0.000 A 
ATOM     13  N   UNL     1      43.485   3.613  12.998  0.00  0.00    +0.000 NA
ATOM     14  C   UNL     1      43.734   2.854  11.907  0.00  0.00    +0.000 A 
ATOM     15  C   UNL     1      44.478   3.281  10.816  0.00  0.00    +0.000 A 
ATOM     16  C   UNL     1      45.031   4.561  10.869  0.00  0.00    +0.000 A 
BRANCH  15  17
ATOM     17  O   UNL     1      44.623   2.393   9.793  0.00  0.00    +0.000 OA
BRANCH  17  18
ATOM     18  C   UNL     1      45.323   2.883   8.660  0.00  0.00    +0.000 C 
ATOM     19  F   UNL     1      45.940   1.845   8.044  0.00  0.00    +0.000 F 
ATOM     20  F   UNL     1      44.402   3.366   7.791  0.00  0.00    +0.000 F 
ENDBRANCH  17  18
ENDBRANCH  15  17
ENDBRANCH   9  11
ENDBRANCH   1   5
BRANCH   1  21
ATOM     21  C   UNL     1      49.026   8.362  14.428  0.00  0.00    +0.000 C 
BRANCH  21  25
ATOM     22  C   UNL     1      49.764   5.092  17.070  0.00  0.00    +0.000 A 
ATOM     23  C   UNL     1      50.804   5.985  16.823  0.00  0.00    +0.000 A 
ATOM     24  C   UNL     1      50.613   7.027  15.912  0.00  0.00    +0.000 A 
ATOM     25  C   UNL     1      49.387   7.148  15.259  0.00  0.00    +0.000 A 
ATOM     26  N   UNL     1      48.384   6.252  15.456  0.00  0.00    +0.000 NA
ATOM     27  C   UNL     1      48.595   5.243  16.340  0.00  0.00    +0.000 A 
BRANCH  22  29
ATOM     28  N   UNL     1      50.678   4.238  19.148  0.00  0.00    +0.000 N 
ATOM     29  C   UNL     1      49.846   4.022  18.085  0.00  0.00    +0.000 C 
ATOM     30  O   UNL     1      49.161   3.011  18.008  0.00  0.00    +0.000 OA
ATOM     31  H   UNL     1      50.633   3.562  19.901  0.00  0.00    +0.000 HD
ATOM     32  H   UNL     1      51.046   5.154  19.370  0.00  0.00    +0.000 HD
ENDBRANCH  22  29
ENDBRANCH  21  25
ENDBRANCH   1  21
TORSDOF 7
ENDMDL
MODEL 9
REMARK VINA RESULT:    -6.817      4.066      7.745
REMARK INTER + INTRA:         -10.311
REMARK INTER:                  -9.199
REMARK INTRA:                  -1.113
REMARK UNBOUND:                -0.704
REMARK  Name = 
REMARK  7 active torsions:
REMARK  status: ('A' for Active; 'I' for Inactive)
REMARK    1  A    between atoms: C_2  and  C_4
REMARK    2  A    between atoms: C_7  and  C_8
REMARK    3  A    between atoms: C_8  and  C_9
REMARK    4  A    between atoms: C_9  and  C_10
REMARK    5  A    between atoms: C_14  and  C_15
REMARK    6  A    between atoms: C_19  and  O_20
REMARK    7  A    between atoms: O_20  and  C_21
REMARK                            x       y       z     vdW  Elec       q    Type
REMARK                         _______ _______ _______ _____ _____    ______ ____
ROOT
ATOM      1  C   UNL     1      49.001   7.925  13.258  0.00  0.00    +0.000 C 
ATOM      2  C   UNL     1      50.490   7.869  12.906  0.00  0.00    +0.000 C 
ATOM      3  C   UNL     1      49.473   7.753  11.826  0.00  0.00    +0.000 C 
ATOM      4  F   UNL     1      49.336   8.825  10.964  0.00  0.00    +0.000 F 
ENDROOT
BRANCH   1   5
ATOM      5  C   UNL     1      48.314   6.693  13.835  0.00  0.00    +0.000 A 
ATOM      6  C   UNL     1      48.543   6.283  15.150  0.00  0.00    +0.000 A 
ATOM      7  C   UNL     1      47.823   5.218  15.674  0.00  0.00    +0.000 A 
ATOM      8  C   UNL     1      46.868   4.591  14.885  0.00  0.00    +0.000 A 
ATOM      9  C   UNL     1      46.666   5.041  13.584  0.00  0.00    +0.000 A 
ATOM     10  N   UNL     1      47.394   6.059  13.063  0.00  0.00    +0.000 NA
BRANCH   9  11
ATOM     11  C   UNL     1      45.639   4.483  12.693  0.00  0.00    +0.000 A 
ATOM     12  C   UNL     1      44.650   3.624  13.177  0.00  0.00    +0.000 A 
ATOM     13  N   UNL     1      43.673   3.063  12.424  0.00  0.00    +0.000 NA
ATOM     14  C   UNL     1      43.679   3.367  11.107  0.00  0.00    +0.000 A 
ATOM     15  C   UNL     1      44.601   4.214  10.509  0.00  0.00    +0.000 A 
ATOM     16  C   UNL     1      45.605   4.753  11.313  0.00  0.00    +0.000 A 
BRANCH  15  17
ATOM     17  O   UNL     1      44.457   4.423   9.169  0.00  0.00    +0.000 OA
BRANCH  17  18
ATOM     18  C   UNL     1      45.362   3.708   8.343  0.00  0.00    +0.000 C 
ATOM     19  F   UNL     1      44.737   3.387   7.184  0.00  0.00    +0.000 F 
ATOM     20  F   UNL     1      46.374   4.552   8.025  0.00  0.00    +0.000 F 
ENDBRANCH  17  18
ENDBRANCH  15  17
ENDBRANCH   9  11
ENDBRANCH   1   5
BRANCH   1  21
ATOM     21  C   UNL     1      48.432   9.278  13.646  0.00  0.00    +0.000 C 
BRANCH  21  25
ATOM     22  C   UNL     1      44.805   9.957  11.501  0.00  0.00    +0.000 A 
ATOM     23  C   UNL     1      45.879  10.812  11.263  0.00  0.00    +0.000 A 
ATOM     24  C   UNL     1      47.056  10.656  11.998  0.00  0.00    +0.000 A 
ATOM     25  C   UNL     1      47.132   9.652  12.963  0.00  0.00    +0.000 A 
ATOM     26  N   UNL     1      46.072   8.847  13.237  0.00  0.00    +0.000 NA
ATOM     27  C   UNL     1      44.936   9.022  12.516  0.00  0.00    +0.000 A 
BRANCH  22  29
ATOM     28  N   UNL     1      42.767   8.877  10.753  0.00  0.00    +0.000 N 
ATOM     29  C   UNL     1      43.560   9.989  10.706  0.00  0.00    +0.000 C 
ATOM     30  O   UNL     1      43.225  10.986  10.079  0.00  0.00    +0.000 OA
ATOM     31  H   UNL     1      41.858   8.953  10.312  0.00  0.00    +0.000 HD
ATOM     32  H   UNL     1      42.882   8.158  11.454  0.00  0.00    +0.000 HD
ENDBRANCH  22  29
ENDBRANCH  21  25
ENDBRANCH   1  21
TORSDOF 7
ENDMDL
