MODEL 1
REMARK VINA RESULT:    -8.525      0.000      0.000
REMARK INTER + INTRA:         -11.289
REMARK INTER:                 -10.518
REMARK INTRA:                  -0.771
REMARK UNBOUND:                -0.771
REMARK  Name = 
REMARK  4 active torsions:
REMARK  status: ('A' for Active; 'I' for Inactive)
REMARK    1  A    between atoms: C_2  and  C_4
REMARK    2  A    between atoms: C_7  and  C_8
REMARK    3  A    between atoms: C_8  and  C_9
REMARK    4  A    between atoms: C_9  and  C_10
REMARK                            x       y       z     vdW  Elec       q    Type
REMARK                         _______ _______ _______ _____ _____    ______ ____
ROOT
ATOM      1  C   UNL     1      46.320   2.256   7.864  0.00  0.00    +0.000 A 
ATOM      2  C   UNL     1      46.323   3.638   7.666  0.00  0.00    +0.000 A 
ATOM      3  C   UNL     1      45.484   4.459   8.423  0.00  0.00    +0.000 A 
ATOM      4  C   UNL     1      44.590   3.916   9.348  0.00  0.00    +0.000 A 
ATOM      5  C   UNL     1      44.577   2.515   9.509  0.00  0.00    +0.000 A 
ATOM      6  C   UNL     1      45.428   1.690   8.774  0.00  0.00    +0.000 A 
ENDROOT
BRANCH   1   8
ATOM      7  N   UNL     1      48.351   1.979   6.563  0.00  0.00    +0.000 N 
ATOM      8  C   UNL     1      47.274   1.376   7.153  0.00  0.00    +0.000 C 
ATOM      9  O   UNL     1      47.140   0.157   7.129  0.00  0.00    +0.000 OA
ATOM     10  H   UNL     1      49.059   1.358   6.190  0.00  0.00    +0.000 HD
ATOM     11  H   UNL     1      48.631   2.923   6.795  0.00  0.00    +0.000 HD
ENDBRANCH   1   8
BRANCH   4  12
ATOM     12  C   UNL     1      43.809   4.739  10.341  0.00  0.00    +0.000 C 
BRANCH  12  13
ATOM     13  C   UNL     1      44.088   4.740  11.848  0.00  0.00    +0.000 C 
ATOM     14  C   UNL     1      43.468   3.697  12.765  0.00  0.00    +0.000 C 
ATOM     15  C   UNL     1      43.077   5.138  12.917  0.00  0.00    +0.000 C 
BRANCH  13  16
ATOM     16  C   UNL     1      45.529   5.194  12.081  0.00  0.00    +0.000 A 
ATOM     17  C   UNL     1      46.043   6.356  11.498  0.00  0.00    +0.000 A 
ATOM     18  C   UNL     1      47.243   6.898  11.949  0.00  0.00    +0.000 A 
ATOM     19  C   UNL     1      47.918   6.244  12.965  0.00  0.00    +0.000 A 
ATOM     20  N   UNL     1      47.504   5.086  13.515  0.00  0.00    +0.000 NA
ATOM     21  C   UNL     1      46.332   4.592  13.057  0.00  0.00    +0.000 A 
ENDBRANCH  13  16
ENDBRANCH  12  13
ENDBRANCH   4  12
TORSDOF 4
ENDMDL
MODEL 2
REMARK VINA RESULT:    -7.917      0.821      1.624
REMARK INTER + INTRA:         -10.540
REMARK INTER:                  -9.722
REMARK INTRA:                  -0.818
REMARK UNBOUND:                -0.771
REMARK  Name = 
REMARK  4 active torsions:
REMARK  status: ('A' for Active; 'I' for Inactive)
REMARK    1  A    between atoms: C_2  and  C_4
REMARK    2  A    between atoms: C_7  and  C_8
REMARK    3  A    between atoms: C_8  and  C_9
REMARK    4  A    between atoms: C_9  and  C_10
REMARK                            x       y       z     vdW  Elec       q    Type
REMARK                         _______ _______ _______ _____ _____    ______ ____
ROOT
ATOM      1  C   UNL     1      46.522   2.484   7.672  0.00  0.00    +0.000 A 
ATOM      2  C   UNL     1      45.759   1.814   8.631  0.00  0.00    +0.000 A 
ATOM      3  C   UNL     1      44.959   2.533   9.521  0.00  0.00    +0.000 A 
ATOM      4  C   UNL     1      44.946   3.929   9.512  0.00  0.00    +0.000 A 
ATOM      5  C   UNL     1      45.750   4.589   8.559  0.00  0.00    +0.000 A 
ATOM      6  C   UNL     1      46.534   3.878   7.651  0.00  0.00    +0.000 A 
ENDROOT
BRANCH   1   8
ATOM      7  N   UNL     1      48.272   2.438   5.990  0.00  0.00    +0.000 N 
ATOM      8  C   UNL     1      47.293   1.745   6.649  0.00  0.00    +0.000 C 
ATOM      9  O   UNL     1      47.105   0.553   6.428  0.00  0.00    +0.000 OA
ATOM     10  H   UNL     1      48.874   1.891   5.387  0.00  0.00    +0.000 HD
ATOM     11  H   UNL     1      48.630   3.319   6.336  0.00  0.00    +0.000 HD
ENDBRANCH   1   8
BRANCH   4  12
ATOM     12  C   UNL     1      43.963   4.763  10.293  0.00  0.00    +0.000 C 
BRANCH  12  13
ATOM     13  C   UNL     1      43.963   4.864  11.822  0.00  0.00    +0.000 C 
ATOM     14  C   UNL     1      43.374   3.759  12.684  0.00  0.00    +0.000 C 
ATOM     15  C   UNL     1      42.723   5.111  12.675  0.00  0.00    +0.000 C 
BRANCH  13  16
ATOM     16  C   UNL     1      45.240   5.576  12.269  0.00  0.00    +0.000 A 
ATOM     17  C   UNL     1      46.120   5.006  13.195  0.00  0.00    +0.000 A 
ATOM     18  C   UNL     1      47.399   5.529  13.363  0.00  0.00    +0.000 A 
ATOM     19  C   UNL     1      47.761   6.633  12.611  0.00  0.00    +0.000 A 
ATOM     20  N   UNL     1      46.932   7.262  11.756  0.00  0.00    +0.000 NA
ATOM     21  C   UNL     1      45.700   6.724  11.614  0.00  0.00    +0.000 A 
ENDBRANCH  13  16
ENDBRANCH  12  13
ENDBRANCH   4  12
TORSDOF 4
ENDMDL
MODEL 3
REMARK VINA RESULT:    -6.092      3.092      6.269
REMARK INTER + INTRA:          -8.287
REMARK INTER:                  -7.734
REMARK INTRA:                  -0.553
REMARK UNBOUND:                -0.771
REMARK  Name = 
REMARK  4 active torsions:
REMARK  status: ('A' for Active; 'I' for Inactive)
REMARK    1  A    between atoms: C_2  and  C_4
REMARK    2  A    between atoms: C_7  and  C_8
REMARK    3  A    between atoms: C_8  and  C_9
REMARK    4  A    between atoms: C_9  and  C_10
REMARK                            x       y       z     vdW  Elec       q    Type
REMARK                         _______ _______ _______ _____ _____    ______ ____
ROOT
ATOM      1  C   UNL     1      48.070   5.999  14.722  0.00  0.00    +0.000 A 
ATOM      2  C   UNL     1      47.797   6.407  13.415  0.00  0.00    +0.000 A 
ATOM      3  C   UNL     1      46.865   5.712  12.641  0.00  0.00    +0.000 A 
ATOM      4  C   UNL     1      46.231   4.569  13.133  0.00  0.00    +0.000 A 
ATOM      5  C   UNL     1      46.546   4.152  14.443  0.00  0.00    +0.000 A 
ATOM      6  C   UNL     1      47.458   4.854  15.231  0.00  0.00    +0.000 A 
ENDROOT
BRANCH   1   8
ATOM      7  N   UNL     1      48.382   7.551  16.563  0.00  0.00    +0.000 N 
ATOM      8  C   UNL     1      48.971   6.780  15.598  0.00  0.00    +0.000 C 
ATOM      9  O   UNL     1      50.192   6.710  15.504  0.00  0.00    +0.000 OA
ATOM     10  H   UNL     1      49.008   7.979  17.234  0.00  0.00    +0.000 HD
ATOM     11  H   UNL     1      47.417   7.419  16.841  0.00  0.00    +0.000 HD
ENDBRANCH   1   8
BRANCH   4  12
ATOM     12  C   UNL     1      45.072   3.891  12.445  0.00  0.00    +0.000 C 
BRANCH  12  13
ATOM     13  C   UNL     1      44.281   4.524  11.296  0.00  0.00    +0.000 C 
ATOM     14  C   UNL     1      43.882   5.991  11.328  0.00  0.00    +0.000 C 
ATOM     15  C   UNL     1      42.815   4.937  11.377  0.00  0.00    +0.000 C 
BRANCH  13  16
ATOM     16  C   UNL     1      44.730   3.889   9.980  0.00  0.00    +0.000 A 
ATOM     17  C   UNL     1      45.365   4.630   8.978  0.00  0.00    +0.000 A 
ATOM     18  C   UNL     1      46.016   3.984   7.932  0.00  0.00    +0.000 A 
ATOM     19  C   UNL     1      45.995   2.601   7.899  0.00  0.00    +0.000 A 
ATOM     20  N   UNL     1      45.342   1.840   8.798  0.00  0.00    +0.000 NA
ATOM     21  C   UNL     1      44.725   2.500   9.805  0.00  0.00    +0.000 A 
ENDBRANCH  13  16
ENDBRANCH  12  13
ENDBRANCH   4  12
TORSDOF 4
ENDMDL
MODEL 4
REMARK VINA RESULT:    -5.553      2.691      4.053
REMARK INTER + INTRA:          -7.623
REMARK INTER:                  -6.965
REMARK INTRA:                  -0.658
REMARK UNBOUND:                -0.771
REMARK  Name = 
REMARK  4 active torsions:
REMARK  status: ('A' for Active; 'I' for Inactive)
REMARK    1  A    between atoms: C_2  and  C_4
REMARK    2  A    between atoms: C_7  and  C_8
REMARK    3  A    between atoms: C_8  and  C_9
REMARK    4  A    between atoms: C_9  and  C_10
REMARK                            x       y       z     vdW  Elec       q    Type
REMARK                         _______ _______ _______ _____ _____    ______ ____
ROOT
ATOM      1  C   UNL     1      45.136   3.654   9.797  0.00  0.00    +0.000 A 
ATOM      2  C   UNL     1      45.406   4.996   9.522  0.00  0.00    +0.000 A 
ATOM      3  C   UNL     1      45.574   5.908  10.567  0.00  0.00    +0.000 A 
ATOM      4  C   UNL     1      45.421   5.514  11.897  0.00  0.00    +0.000 A 
ATOM      5  C   UNL     1      45.114   4.161  12.154  0.00  0.00    +0.000 A 
ATOM      6  C   UNL     1      44.968   3.239  11.118  0.00  0.00    +0.000 A 
ENDROOT
BRANCH   1   8
ATOM      7  N   UNL     1      44.606   1.403   9.057  0.00  0.00    +0.000 N 
ATOM      8  C   UNL     1      45.060   2.648   8.715  0.00  0.00    +0.000 C 
ATOM      9  O   UNL     1      45.342   2.920   7.552  0.00  0.00    +0.000 OA
ATOM     10  H   UNL     1      44.440   0.764   8.289  0.00  0.00    +0.000 HD
ATOM     11  H   UNL     1      44.115   1.231   9.925  0.00  0.00    +0.000 HD
ENDBRANCH   1   8
BRANCH   4  12
ATOM     12  C   UNL     1      45.787   6.381  13.075  0.00  0.00    +0.000 C 
BRANCH  12  13
ATOM     13  C   UNL     1      47.048   7.250  13.130  0.00  0.00    +0.000 C 
ATOM     14  C   UNL     1      48.404   6.696  12.721  0.00  0.00    +0.000 C 
ATOM     15  C   UNL     1      48.169   7.088  14.151  0.00  0.00    +0.000 C 
BRANCH  13  16
ATOM     16  C   UNL     1      46.674   8.686  12.762  0.00  0.00    +0.000 A 
ATOM     17  C   UNL     1      47.600   9.574  12.206  0.00  0.00    +0.000 A 
ATOM     18  C   UNL     1      47.171  10.760  11.619  0.00  0.00    +0.000 A 
ATOM     19  C   UNL     1      45.816  11.044  11.625  0.00  0.00    +0.000 A 
ATOM     20  N   UNL     1      44.889  10.258  12.206  0.00  0.00    +0.000 NA
ATOM     21  C   UNL     1      45.341   9.111  12.761  0.00  0.00    +0.000 A 
ENDBRANCH  13  16
ENDBRANCH  12  13
ENDBRANCH   4  12
TORSDOF 4
ENDMDL
