MODEL 1
REMARK VINA RESULT:    -8.187      0.000      0.000
REMARK INTER + INTRA:         -12.228
REMARK INTER:                 -11.298
REMARK INTRA:                  -0.931
REMARK UNBOUND:                -0.931
REMARK  Name = 
REMARK  8 active torsions:
REMARK  status: ('A' for Active; 'I' for Inactive)
REMARK    1  A    between atoms: C_1  and  C_2
REMARK    2  A    between atoms: C_4  and  C_5
REMARK    3  A    between atoms: C_10  and  O_11
REMARK    4  A    between atoms: O_11  and  C_12
REMARK    5  A    between atoms: C_12  and  C_13
REMARK    6  A    between atoms: C_18  and  C_19
REMARK    7  A    between atoms: C_23  and  C_24
REMARK    8  A    between atoms: C_24  and  O_25
REMARK                            x       y       z     vdW  Elec       q    Type
REMARK                         _______ _______ _______ _____ _____    ______ ____
ROOT
ATOM      1  C   UNL     1      44.774   5.675  11.855  0.00  0.00    +0.000 A 
ATOM      2  C   UNL     1      45.559   6.659  11.246  0.00  0.00    +0.000 A 
ATOM      3  C   UNL     1      46.829   6.937  11.739  0.00  0.00    +0.000 A 
ATOM      4  C   UNL     1      47.315   6.238  12.844  0.00  0.00    +0.000 A 
ATOM      5  F   UNL     1      48.558   6.528  13.258  0.00  0.00    +0.000 F 
ATOM      6  C   UNL     1      46.556   5.253  13.497  0.00  0.00    +0.000 A 
ATOM      7  C   UNL     1      45.270   4.998  12.983  0.00  0.00    +0.000 A 
ENDROOT
BRANCH   6   8
ATOM      8  C   UNL     1      47.063   4.506  14.667  0.00  0.00    +0.000 A 
ATOM      9  C   UNL     1      47.565   3.208  14.566  0.00  0.00    +0.000 A 
ATOM     10  N   UNL     1      48.060   2.480  15.598  0.00  0.00    +0.000 NA
ATOM     11  C   UNL     1      48.069   3.073  16.809  0.00  0.00    +0.000 A 
ATOM     12  C   UNL     1      47.622   4.366  17.046  0.00  0.00    +0.000 A 
ATOM     13  C   UNL     1      47.085   5.066  15.956  0.00  0.00    +0.000 A 
BRANCH  12  14
ATOM     14  C   UNL     1      47.655   4.940  18.431  0.00  0.00    +0.000 C 
BRANCH  14  15
ATOM     15  O   UNL     1      46.371   5.404  18.832  0.00  0.00    +0.000 OA
ATOM     16  H   UNL     1      45.745   5.140  18.136  0.00  0.00    +0.000 HD
ENDBRANCH  14  15
ENDBRANCH  12  14
ENDBRANCH   6   8
BRANCH   1  17
ATOM     17  C   UNL     1      43.438   5.290  11.271  0.00  0.00    +0.000 C 
BRANCH  17  18
ATOM     18  O   UNL     1      43.529   5.052   9.877  0.00  0.00    +0.000 OA
BRANCH  18  25
ATOM     19  C   UNL     1      43.620   2.096  11.057  0.00  0.00    +0.000 C 
ATOM     20  C   UNL     1      44.389   2.682   9.912  0.00  0.00    +0.000 A 
ATOM     21  N   UNL     1      45.224   1.764   9.345  0.00  0.00    +0.000 NA
ATOM     22  C   UNL     1      45.978   2.150   8.282  0.00  0.00    +0.000 A 
ATOM     23  C   UNL     1      45.945   3.421   7.745  0.00  0.00    +0.000 A 
ATOM     24  C   UNL     1      45.091   4.349   8.337  0.00  0.00    +0.000 A 
ATOM     25  C   UNL     1      44.293   3.999   9.440  0.00  0.00    +0.000 A 
BRANCH  22  26
ATOM     26  C   UNL     1      46.870   1.101   7.702  0.00  0.00    +0.000 C 
ATOM     27  N   UNL     1      47.913   1.570   6.944  0.00  0.00    +0.000 N 
ATOM     28  O   UNL     1      46.689  -0.098   7.878  0.00  0.00    +0.000 OA
ATOM     29  H   UNL     1      48.025   2.571   6.825  0.00  0.00    +0.000 HD
ATOM     30  H   UNL     1      48.556   0.921   6.523  0.00  0.00    +0.000 HD
ENDBRANCH  22  26
ENDBRANCH  18  25
ENDBRANCH  17  18
ENDBRANCH   1  17
TORSDOF 7
ENDMDL
MODEL 2
REMARK VINA RESULT:    -7.822      2.872      4.316
REMARK INTER + INTRA:         -11.725
REMARK INTER:                 -10.975
REMARK INTRA:                  -0.751
REMARK UNBOUND:                -0.931
REMARK  Name = 
REMARK  8 active torsions:
REMARK  status: ('A' for Active; 'I' for Inactive)
REMARK    1  A    between atoms: C_1  and  C_2
REMARK    2  A    between atoms: C_4  and  C_5
REMARK    3  A    between atoms: C_10  and  O_11
REMARK    4  A    between atoms: O_11  and  C_12
REMARK    5  A    between atoms: C_12  and  C_13
REMARK    6  A    between atoms: C_18  and  C_19
REMARK    7  A    between atoms: C_23  and  C_24
REMARK    8  A    between atoms: C_24  and  O_25
REMARK                            x       y       z     vdW  Elec       q    Type
REMARK                         _______ _______ _______ _____ _____    ______ ____
ROOT
ATOM      1  C   UNL     1      44.828   5.274  11.907  0.00  0.00    +0.000 A 
ATOM      2  C   UNL     1      45.064   4.475  13.029  0.00  0.00    +0.000 A 
ATOM      3  C   UNL     1      46.156   4.737  13.849  0.00  0.00    +0.000 A 
ATOM      4  C   UNL     1      47.016   5.792  13.547  0.00  0.00    +0.000 A 
ATOM      5  F   UNL     1      48.036   6.016  14.390  0.00  0.00    +0.000 F 
ATOM      6  C   UNL     1      46.827   6.611  12.421  0.00  0.00    +0.000 A 
ATOM      7  C   UNL     1      45.720   6.317  11.603  0.00  0.00    +0.000 A 
ENDROOT
BRANCH   6   8
ATOM      8  C   UNL     1      47.732   7.732  12.093  0.00  0.00    +0.000 A 
ATOM      9  C   UNL     1      47.313   9.063  12.114  0.00  0.00    +0.000 A 
ATOM     10  N   UNL     1      48.100  10.133  11.841  0.00  0.00    +0.000 NA
ATOM     11  C   UNL     1      49.388   9.877  11.537  0.00  0.00    +0.000 A 
ATOM     12  C   UNL     1      49.942   8.603  11.503  0.00  0.00    +0.000 A 
ATOM     13  C   UNL     1      49.081   7.526  11.756  0.00  0.00    +0.000 A 
BRANCH  12  14
ATOM     14  C   UNL     1      51.384   8.411  11.139  0.00  0.00    +0.000 C 
BRANCH  14  15
ATOM     15  O   UNL     1      51.647   7.066  10.753  0.00  0.00    +0.000 OA
ATOM     16  H   UNL     1      51.303   6.497  11.462  0.00  0.00    +0.000 HD
ENDBRANCH  14  15
ENDBRANCH  12  14
ENDBRANCH   6   8
BRANCH   1  17
ATOM     17  C   UNL     1      43.592   5.069  11.065  0.00  0.00    +0.000 C 
BRANCH  17  18
ATOM     18  O   UNL     1      43.906   5.022   9.684  0.00  0.00    +0.000 OA
BRANCH  18  25
ATOM     19  C   UNL     1      43.758   1.992  10.649  0.00  0.00    +0.000 C 
ATOM     20  C   UNL     1      44.622   2.606   9.590  0.00  0.00    +0.000 A 
ATOM     21  N   UNL     1      45.431   1.680   9.001  0.00  0.00    +0.000 NA
ATOM     22  C   UNL     1      46.264   2.090   8.009  0.00  0.00    +0.000 A 
ATOM     23  C   UNL     1      46.335   3.396   7.565  0.00  0.00    +0.000 A 
ATOM     24  C   UNL     1      45.507   4.332   8.179  0.00  0.00    +0.000 A 
ATOM     25  C   UNL     1      44.629   3.956   9.211  0.00  0.00    +0.000 A 
BRANCH  22  26
ATOM     26  C   UNL     1      47.124   1.030   7.400  0.00  0.00    +0.000 C 
ATOM     27  N   UNL     1      46.739  -0.260   7.663  0.00  0.00    +0.000 N 
ATOM     28  O   UNL     1      48.109   1.284   6.717  0.00  0.00    +0.000 OA
ATOM     29  H   UNL     1      45.916  -0.423   8.233  0.00  0.00    +0.000 HD
ATOM     30  H   UNL     1      47.270  -1.027   7.283  0.00  0.00    +0.000 HD
ENDBRANCH  22  26
ENDBRANCH  18  25
ENDBRANCH  17  18
ENDBRANCH   1  17
TORSDOF 7
ENDMDL
MODEL 3
REMARK VINA RESULT:    -7.682      2.856      4.236
REMARK INTER + INTRA:         -11.532
REMARK INTER:                 -10.617
REMARK INTRA:                  -0.915
REMARK UNBOUND:                -0.931
REMARK  Name = 
REMARK  8 active torsions:
REMARK  status: ('A' for Active; 'I' for Inactive)
REMARK    1  A    between atoms: C_1  and  C_2
REMARK    2  A    between atoms: C_4  and  C_5
REMARK    3  A    between atoms: C_10  and  O_11
REMARK    4  A    between atoms: O_11  and  C_12
REMARK    5  A    between atoms: C_12  and  C_13
REMARK    6  A    between atoms: C_18  and  C_19
REMARK    7  A    between atoms: C_23  and  C_24
REMARK    8  A    between atoms: C_24  and  O_25
REMARK                            x       y       z     vdW  Elec       q    Type
REMARK                         _______ _______ _______ _____ _____    ______ ____
ROOT
ATOM      1  C   UNL     1      44.915   4.881  11.934  0.00  0.00    +0.000 A 
ATOM      2  C   UNL     1      45.392   4.016  12.924  0.00  0.00    +0.000 A 
ATOM      3  C   UNL     1      46.512   4.367  13.670  0.00  0.00    +0.000 A 
ATOM      4  C   UNL     1      47.159   5.577  13.426  0.00  0.00    +0.000 A 
ATOM      5  F   UNL     1      48.217   5.876  14.197  0.00  0.00    +0.000 F 
ATOM      6  C   UNL     1      46.725   6.470  12.432  0.00  0.00    +0.000 A 
ATOM      7  C   UNL     1      45.595   6.085  11.685  0.00  0.00    +0.000 A 
ENDROOT
BRANCH   6   8
ATOM      8  C   UNL     1      47.404   7.755  12.167  0.00  0.00    +0.000 A 
ATOM      9  C   UNL     1      48.752   7.830  11.812  0.00  0.00    +0.000 A 
ATOM     10  N   UNL     1      49.424   8.976  11.539  0.00  0.00    +0.000 NA
ATOM     11  C   UNL     1      48.721  10.124  11.613  0.00  0.00    +0.000 A 
ATOM     12  C   UNL     1      47.371  10.191  11.931  0.00  0.00    +0.000 A 
ATOM     13  C   UNL     1      46.727   8.984  12.241  0.00  0.00    +0.000 A 
BRANCH  12  14
ATOM     14  C   UNL     1      46.672  11.516  12.004  0.00  0.00    +0.000 C 
BRANCH  14  15
ATOM     15  O   UNL     1      45.271  11.354  12.200  0.00  0.00    +0.000 OA
ATOM     16  H   UNL     1      45.096  10.397  12.211  0.00  0.00    +0.000 HD
ENDBRANCH  14  15
ENDBRANCH  12  14
ENDBRANCH   6   8
BRANCH   1  17
ATOM     17  C   UNL     1      43.643   4.564  11.187  0.00  0.00    +0.000 C 
BRANCH  17  18
ATOM     18  O   UNL     1      43.803   4.743   9.790  0.00  0.00    +0.000 OA
BRANCH  18  25
ATOM     19  C   UNL     1      43.971   1.564   9.818  0.00  0.00    +0.000 C 
ATOM     20  C   UNL     1      44.838   2.551   9.096  0.00  0.00    +0.000 A 
ATOM     21  N   UNL     1      45.813   1.929   8.372  0.00  0.00    +0.000 NA
ATOM     22  C   UNL     1      46.669   2.700   7.651  0.00  0.00    +0.000 A 
ATOM     23  C   UNL     1      46.607   4.078   7.613  0.00  0.00    +0.000 A 
ATOM     24  C   UNL     1      45.610   4.700   8.362  0.00  0.00    +0.000 A 
ATOM     25  C   UNL     1      44.701   3.946   9.125  0.00  0.00    +0.000 A 
BRANCH  22  26
ATOM     26  C   UNL     1      47.713   1.963   6.876  0.00  0.00    +0.000 C 
ATOM     27  N   UNL     1      48.670   2.748   6.286  0.00  0.00    +0.000 N 
ATOM     28  O   UNL     1      47.719   0.743   6.763  0.00  0.00    +0.000 OA
ATOM     29  H   UNL     1      48.625   3.754   6.406  0.00  0.00    +0.000 HD
ATOM     30  H   UNL     1      49.406   2.320   5.749  0.00  0.00    +0.000 HD
ENDBRANCH  22  26
ENDBRANCH  18  25
ENDBRANCH  17  18
ENDBRANCH   1  17
TORSDOF 7
ENDMDL
MODEL 4
REMARK VINA RESULT:    -7.376      3.440      7.607
REMARK INTER + INTRA:         -11.109
REMARK INTER:                 -10.029
REMARK INTRA:                  -1.080
REMARK UNBOUND:                -0.931
REMARK  Name = 
REMARK  8 active torsions:
REMARK  status: ('A' for Active; 'I' for Inactive)
REMARK    1  A    between atoms: C_1  and  C_2
REMARK    2  A    between atoms: C_4  and  C_5
REMARK    3  A    between atoms: C_10  and  O_11
REMARK    4  A    between atoms: O_11  and  C_12
REMARK    5  A    between atoms: C_12  and  C_13
REMARK    6  A    between atoms: C_18  and  C_19
REMARK    7  A    between atoms: C_23  and  C_24
REMARK    8  A    between atoms: C_24  and  O_25
REMARK                            x       y       z     vdW  Elec       q    Type
REMARK                         _______ _______ _______ _____ _____    ______ ____
ROOT
ATOM      1  C   UNL     1      49.007   6.939  14.849  0.00  0.00    +0.000 A 
ATOM      2  C   UNL     1      49.613   7.694  13.840  0.00  0.00    +0.000 A 
ATOM      3  C   UNL     1      49.087   7.679  12.552  0.00  0.00    +0.000 A 
ATOM      4  C   UNL     1      47.961   6.906  12.270  0.00  0.00    +0.000 A 
ATOM      5  F   UNL     1      47.481   6.954  11.017  0.00  0.00    +0.000 F 
ATOM      6  C   UNL     1      47.330   6.120  13.248  0.00  0.00    +0.000 A 
ATOM      7  C   UNL     1      47.889   6.146  14.540  0.00  0.00    +0.000 A 
ENDROOT
BRANCH   6   8
ATOM      8  C   UNL     1      46.136   5.299  12.958  0.00  0.00    +0.000 A 
ATOM      9  C   UNL     1      46.128   3.911  13.105  0.00  0.00    +0.000 A 
ATOM     10  N   UNL     1      45.060   3.108  12.872  0.00  0.00    +0.000 NA
ATOM     11  C   UNL     1      43.922   3.712  12.477  0.00  0.00    +0.000 A 
ATOM     12  C   UNL     1      43.785   5.085  12.314  0.00  0.00    +0.000 A 
ATOM     13  C   UNL     1      44.925   5.870  12.530  0.00  0.00    +0.000 A 
BRANCH  12  14
ATOM     14  C   UNL     1      42.482   5.669  11.855  0.00  0.00    +0.000 C 
BRANCH  14  15
ATOM     15  O   UNL     1      42.680   6.886  11.145  0.00  0.00    +0.000 OA
ATOM     16  H   UNL     1      43.099   7.509  11.764  0.00  0.00    +0.000 HD
ENDBRANCH  14  15
ENDBRANCH  12  14
ENDBRANCH   6   8
BRANCH   1  17
ATOM     17  C   UNL     1      49.502   7.024  16.272  0.00  0.00    +0.000 C 
BRANCH  17  18
ATOM     18  O   UNL     1      48.950   5.996  17.076  0.00  0.00    +0.000 OA
BRANCH  18  25
ATOM     19  C   UNL     1      47.807   3.046  16.724  0.00  0.00    +0.000 C 
ATOM     20  C   UNL     1      49.199   3.487  17.058  0.00  0.00    +0.000 A 
ATOM     21  N   UNL     1      50.039   2.424  17.221  0.00  0.00    +0.000 NA
ATOM     22  C   UNL     1      51.342   2.672  17.514  0.00  0.00    +0.000 A 
ATOM     23  C   UNL     1      51.863   3.943  17.658  0.00  0.00    +0.000 A 
ATOM     24  C   UNL     1      50.993   5.019  17.494  0.00  0.00    +0.000 A 
ATOM     25  C   UNL     1      49.636   4.813  17.192  0.00  0.00    +0.000 A 
BRANCH  22  26
ATOM     26  C   UNL     1      52.214   1.469  17.677  0.00  0.00    +0.000 C 
ATOM     27  N   UNL     1      51.567   0.325  18.071  0.00  0.00    +0.000 N 
ATOM     28  O   UNL     1      53.423   1.493  17.480  0.00  0.00    +0.000 OA
ATOM     29  H   UNL     1      50.565   0.352  18.222  0.00  0.00    +0.000 HD
ATOM     30  H   UNL     1      52.090  -0.525  18.199  0.00  0.00    +0.000 HD
ENDBRANCH  22  26
ENDBRANCH  18  25
ENDBRANCH  17  18
ENDBRANCH   1  17
TORSDOF 7
ENDMDL
MODEL 5
REMARK VINA RESULT:    -7.275      2.598      8.465
REMARK INTER + INTRA:         -10.970
REMARK INTER:                  -9.960
REMARK INTRA:                  -1.010
REMARK UNBOUND:                -0.931
REMARK  Name = 
REMARK  8 active torsions:
REMARK  status: ('A' for Active; 'I' for Inactive)
REMARK    1  A    between atoms: C_1  and  C_2
REMARK    2  A    between atoms: C_4  and  C_5
REMARK    3  A    between atoms: C_10  and  O_11
REMARK    4  A    between atoms: O_11  and  C_12
REMARK    5  A    between atoms: C_12  and  C_13
REMARK    6  A    between atoms: C_18  and  C_19
REMARK    7  A    between atoms: C_23  and  C_24
REMARK    8  A    between atoms: C_24  and  O_25
REMARK                            x       y       z     vdW  Elec       q    Type
REMARK                         _______ _______ _______ _____ _____    ______ ____
ROOT
ATOM      1  C   UNL     1      47.306   7.336  13.223  0.00  0.00    +0.000 A 
ATOM      2  C   UNL     1      46.558   8.516  13.266  0.00  0.00    +0.000 A 
ATOM      3  C   UNL     1      45.371   8.611  12.547  0.00  0.00    +0.000 A 
ATOM      4  C   UNL     1      44.933   7.531  11.782  0.00  0.00    +0.000 A 
ATOM      5  F   UNL     1      43.766   7.669  11.133  0.00  0.00    +0.000 F 
ATOM      6  C   UNL     1      45.660   6.332  11.696  0.00  0.00    +0.000 A 
ATOM      7  C   UNL     1      46.863   6.267  12.425  0.00  0.00    +0.000 A 
ENDROOT
BRANCH   6   8
ATOM      8  C   UNL     1      45.204   5.182  10.888  0.00  0.00    +0.000 A 
ATOM      9  C   UNL     1      44.245   4.279  11.348  0.00  0.00    +0.000 A 
ATOM     10  N   UNL     1      43.773   3.218  10.647  0.00  0.00    +0.000 NA
ATOM     11  C   UNL     1      44.273   3.039   9.407  0.00  0.00    +0.000 A 
ATOM     12  C   UNL     1      45.213   3.875   8.819  0.00  0.00    +0.000 A 
ATOM     13  C   UNL     1      45.698   4.937   9.595  0.00  0.00    +0.000 A 
BRANCH  12  14
ATOM     14  C   UNL     1      45.725   3.591   7.438  0.00  0.00    +0.000 C 
BRANCH  14  15
ATOM     15  O   UNL     1      46.843   4.411   7.119  0.00  0.00    +0.000 OA
ATOM     16  H   UNL     1      46.518   5.117   6.535  0.00  0.00    +0.000 HD
ENDBRANCH  14  15
ENDBRANCH  12  14
ENDBRANCH   6   8
BRANCH   1  17
ATOM     17  C   UNL     1      48.541   7.179  14.076  0.00  0.00    +0.000 C 
BRANCH  17  18
ATOM     18  O   UNL     1      48.584   5.908  14.699  0.00  0.00    +0.000 OA
BRANCH  18  25
ATOM     19  C   UNL     1      47.707   3.382  16.428  0.00  0.00    +0.000 C 
ATOM     20  C   UNL     1      48.038   4.771  16.883  0.00  0.00    +0.000 A 
ATOM     21  N   UNL     1      47.926   4.897  18.237  0.00  0.00    +0.000 NA
ATOM     22  C   UNL     1      48.210   6.102  18.797  0.00  0.00    +0.000 A 
ATOM     23  C   UNL     1      48.606   7.207  18.069  0.00  0.00    +0.000 A 
ATOM     24  C   UNL     1      48.710   7.065  16.687  0.00  0.00    +0.000 A 
ATOM     25  C   UNL     1      48.426   5.839  16.061  0.00  0.00    +0.000 A 
BRANCH  22  26
ATOM     26  C   UNL     1      48.074   6.178  20.283  0.00  0.00    +0.000 C 
ATOM     27  N   UNL     1      47.688   5.014  20.897  0.00  0.00    +0.000 N 
ATOM     28  O   UNL     1      48.283   7.205  20.918  0.00  0.00    +0.000 OA
ATOM     29  H   UNL     1      47.526   4.188  20.332  0.00  0.00    +0.000 HD
ATOM     30  H   UNL     1      47.578   4.990  21.897  0.00  0.00    +0.000 HD
ENDBRANCH  22  26
ENDBRANCH  18  25
ENDBRANCH  17  18
ENDBRANCH   1  17
TORSDOF 7
ENDMDL
MODEL 6
REMARK VINA RESULT:    -6.834      2.478      3.028
REMARK INTER + INTRA:         -10.361
REMARK INTER:                  -9.510
REMARK INTRA:                  -0.851
REMARK UNBOUND:                -0.931
REMARK  Name = 
REMARK  8 active torsions:
REMARK  status: ('A' for Active; 'I' for Inactive)
REMARK    1  A    between atoms: C_1  and  C_2
REMARK    2  A    between atoms: C_4  and  C_5
REMARK    3  A    between atoms: C_10  and  O_11
REMARK    4  A    between atoms: O_11  and  C_12
REMARK    5  A    between atoms: C_12  and  C_13
REMARK    6  A    between atoms: C_18  and  C_19
REMARK    7  A    between atoms: C_23  and  C_24
REMARK    8  A    between atoms: C_24  and  O_25
REMARK                            x       y       z     vdW  Elec       q    Type
REMARK                         _______ _______ _______ _____ _____    ______ ____
ROOT
ATOM      1  C   UNL     1      45.201   5.220  12.410  0.00  0.00    +0.000 A 
ATOM      2  C   UNL     1      44.376   6.299  12.080  0.00  0.00    +0.000 A 
ATOM      3  C   UNL     1      44.801   7.599  12.333  0.00  0.00    +0.000 A 
ATOM      4  C   UNL     1      46.046   7.822  12.921  0.00  0.00    +0.000 A 
ATOM      5  F   UNL     1      46.415   9.098  13.115  0.00  0.00    +0.000 F 
ATOM      6  C   UNL     1      46.901   6.768  13.284  0.00  0.00    +0.000 A 
ATOM      7  C   UNL     1      46.441   5.462  13.025  0.00  0.00    +0.000 A 
ENDROOT
BRANCH   6   8
ATOM      8  C   UNL     1      48.221   6.995  13.907  0.00  0.00    +0.000 A 
ATOM      9  C   UNL     1      49.208   7.775  13.304  0.00  0.00    +0.000 A 
ATOM     10  N   UNL     1      50.430   8.034  13.833  0.00  0.00    +0.000 NA
ATOM     11  C   UNL     1      50.694   7.496  15.041  0.00  0.00    +0.000 A 
ATOM     12  C   UNL     1      49.795   6.720  15.761  0.00  0.00    +0.000 A 
ATOM     13  C   UNL     1      48.559   6.449  15.157  0.00  0.00    +0.000 A 
BRANCH  12  14
ATOM     14  C   UNL     1      50.181   6.148  17.092  0.00  0.00    +0.000 C 
BRANCH  14  15
ATOM     15  O   UNL     1      50.483   4.761  16.994  0.00  0.00    +0.000 OA
ATOM     16  H   UNL     1      50.406   4.521  16.055  0.00  0.00    +0.000 HD
ENDBRANCH  14  15
ENDBRANCH  12  14
ENDBRANCH   6   8
BRANCH   1  17
ATOM     17  C   UNL     1      44.801   3.811  12.049  0.00  0.00    +0.000 C 
BRANCH  17  18
ATOM     18  O   UNL     1      44.192   3.755  10.771  0.00  0.00    +0.000 OA
BRANCH  18  25
ATOM     19  C   UNL     1      45.882   5.871   9.096  0.00  0.00    +0.000 C 
ATOM     20  C   UNL     1      45.746   4.393   8.890  0.00  0.00    +0.000 A 
ATOM     21  N   UNL     1      46.475   3.965   7.819  0.00  0.00    +0.000 NA
ATOM     22  C   UNL     1      46.459   2.640   7.518  0.00  0.00    +0.000 A 
ATOM     23  C   UNL     1      45.746   1.703   8.238  0.00  0.00    +0.000 A 
ATOM     24  C   UNL     1      45.002   2.155   9.326  0.00  0.00    +0.000 A 
ATOM     25  C   UNL     1      44.985   3.516   9.676  0.00  0.00    +0.000 A 
BRANCH  22  26
ATOM     26  C   UNL     1      47.279   2.232   6.336  0.00  0.00    +0.000 C 
ATOM     27  N   UNL     1      47.183   3.055   5.243  0.00  0.00    +0.000 N 
ATOM     28  O   UNL     1      47.985   1.231   6.332  0.00  0.00    +0.000 OA
ATOM     29  H   UNL     1      46.586   3.873   5.292  0.00  0.00    +0.000 HD
ATOM     30  H   UNL     1      47.709   2.843   4.411  0.00  0.00    +0.000 HD
ENDBRANCH  22  26
ENDBRANCH  18  25
ENDBRANCH  17  18
ENDBRANCH   1  17
TORSDOF 7
ENDMDL
MODEL 7
REMARK VINA RESULT:    -6.779      3.218      7.675
REMARK INTER + INTRA:         -10.286
REMARK INTER:                  -8.997
REMARK INTRA:                  -1.289
REMARK UNBOUND:                -0.931
REMARK  Name = 
REMARK  8 active torsions:
REMARK  status: ('A' for Active; 'I' for Inactive)
REMARK    1  A    between atoms: C_1  and  C_2
REMARK    2  A    between atoms: C_4  and  C_5
REMARK    3  A    between atoms: C_10  and  O_11
REMARK    4  A    between atoms: O_11  and  C_12
REMARK    5  A    between atoms: C_12  and  C_13
REMARK    6  A    between atoms: C_18  and  C_19
REMARK    7  A    between atoms: C_23  and  C_24
REMARK    8  A    between atoms: C_24  and  O_25
REMARK                            x       y       z     vdW  Elec       q    Type
REMARK                         _______ _______ _______ _____ _____    ______ ____
ROOT
ATOM      1  C   UNL     1      49.406   7.738  15.063  0.00  0.00    +0.000 A 
ATOM      2  C   UNL     1      50.453   8.110  14.214  0.00  0.00    +0.000 A 
ATOM      3  C   UNL     1      50.286   8.040  12.836  0.00  0.00    +0.000 A 
ATOM      4  C   UNL     1      49.077   7.594  12.303  0.00  0.00    +0.000 A 
ATOM      5  F   UNL     1      48.962   7.575  10.966  0.00  0.00    +0.000 F 
ATOM      6  C   UNL     1      48.003   7.195  13.118  0.00  0.00    +0.000 A 
ATOM      7  C   UNL     1      48.203   7.266  14.509  0.00  0.00    +0.000 A 
ENDROOT
BRANCH   6   8
ATOM      8  C   UNL     1      46.718   6.722  12.562  0.00  0.00    +0.000 A 
ATOM      9  C   UNL     1      45.740   7.598  12.089  0.00  0.00    +0.000 A 
ATOM     10  N   UNL     1      44.552   7.224  11.553  0.00  0.00    +0.000 NA
ATOM     11  C   UNL     1      44.314   5.900  11.469  0.00  0.00    +0.000 A 
ATOM     12  C   UNL     1      45.209   4.920  11.880  0.00  0.00    +0.000 A 
ATOM     13  C   UNL     1      46.408   5.355  12.462  0.00  0.00    +0.000 A 
BRANCH  12  14
ATOM     14  C   UNL     1      44.853   3.468  11.763  0.00  0.00    +0.000 C 
BRANCH  14  15
ATOM     15  O   UNL     1      45.522   2.688  12.748  0.00  0.00    +0.000 OA
ATOM     16  H   UNL     1      45.940   1.944  12.282  0.00  0.00    +0.000 HD
ENDBRANCH  14  15
ENDBRANCH  12  14
ENDBRANCH   6   8
BRANCH   1  17
ATOM     17  C   UNL     1      49.534   7.904  16.557  0.00  0.00    +0.000 C 
BRANCH  17  18
ATOM     18  O   UNL     1      48.838   6.887  17.255  0.00  0.00    +0.000 OA
BRANCH  18  25
ATOM     19  C   UNL     1      47.422   4.158  16.430  0.00  0.00    +0.000 C 
ATOM     20  C   UNL     1      48.812   4.385  16.940  0.00  0.00    +0.000 A 
ATOM     21  N   UNL     1      49.509   3.216  17.040  0.00  0.00    +0.000 NA
ATOM     22  C   UNL     1      50.794   3.268  17.479  0.00  0.00    +0.000 A 
ATOM     23  C   UNL     1      51.433   4.441  17.828  0.00  0.00    +0.000 A 
ATOM     24  C   UNL     1      50.708   5.626  17.727  0.00  0.00    +0.000 A 
ATOM     25  C   UNL     1      49.375   5.623  17.280  0.00  0.00    +0.000 A 
BRANCH  22  26
ATOM     26  C   UNL     1      51.507   1.958  17.564  0.00  0.00    +0.000 C 
ATOM     27  N   UNL     1      52.562   1.919  18.439  0.00  0.00    +0.000 N 
ATOM     28  O   UNL     1      51.183   0.981  16.898  0.00  0.00    +0.000 OA
ATOM     29  H   UNL     1      52.794   2.752  18.969  0.00  0.00    +0.000 HD
ATOM     30  H   UNL     1      53.088   1.068  18.550  0.00  0.00    +0.000 HD
ENDBRANCH  22  26
ENDBRANCH  18  25
ENDBRANCH  17  18
ENDBRANCH   1  17
TORSDOF 7
ENDMDL
MODEL 8
REMARK VINA RESULT:    -6.734      3.315      8.393
REMARK INTER + INTRA:         -10.224
REMARK INTER:                  -9.328
REMARK INTRA:                  -0.896
REMARK UNBOUND:                -0.931
REMARK  Name = 
REMARK  8 active torsions:
REMARK  status: ('A' for Active; 'I' for Inactive)
REMARK    1  A    between atoms: C_1  and  C_2
REMARK    2  A    between atoms: C_4  and  C_5
REMARK    3  A    between atoms: C_10  and  O_11
REMARK    4  A    between atoms: O_11  and  C_12
REMARK    5  A    between atoms: C_12  and  C_13
REMARK    6  A    between atoms: C_18  and  C_19
REMARK    7  A    between atoms: C_23  and  C_24
REMARK    8  A    between atoms: C_24  and  O_25
REMARK                            x       y       z     vdW  Elec       q    Type
REMARK                         _______ _______ _______ _____ _____    ______ ____
ROOT
ATOM      1  C   UNL     1      47.578   4.970  15.343  0.00  0.00    +0.000 A 
ATOM      2  C   UNL     1      48.399   6.087  15.161  0.00  0.00    +0.000 A 
ATOM      3  C   UNL     1      48.170   6.949  14.095  0.00  0.00    +0.000 A 
ATOM      4  C   UNL     1      47.125   6.695  13.207  0.00  0.00    +0.000 A 
ATOM      5  F   UNL     1      46.933   7.577  12.214  0.00  0.00    +0.000 F 
ATOM      6  C   UNL     1      46.285   5.577  13.341  0.00  0.00    +0.000 A 
ATOM      7  C   UNL     1      46.546   4.715  14.424  0.00  0.00    +0.000 A 
ENDROOT
BRANCH   6   8
ATOM      8  C   UNL     1      45.176   5.300  12.406  0.00  0.00    +0.000 A 
ATOM      9  C   UNL     1      43.839   5.502  12.750  0.00  0.00    +0.000 A 
ATOM     10  N   UNL     1      42.780   5.284  11.930  0.00  0.00    +0.000 NA
ATOM     11  C   UNL     1      43.057   4.845  10.686  0.00  0.00    +0.000 A 
ATOM     12  C   UNL     1      44.342   4.625  10.206  0.00  0.00    +0.000 A 
ATOM     13  C   UNL     1      45.401   4.829  11.101  0.00  0.00    +0.000 A 
BRANCH  12  14
ATOM     14  C   UNL     1      44.555   4.122   8.810  0.00  0.00    +0.000 C 
BRANCH  14  15
ATOM     15  O   UNL     1      45.569   4.862   8.140  0.00  0.00    +0.000 OA
ATOM     16  H   UNL     1      45.126   5.391   7.454  0.00  0.00    +0.000 HD
ENDBRANCH  14  15
ENDBRANCH  12  14
ENDBRANCH   6   8
BRANCH   1  17
ATOM     17  C   UNL     1      47.748   4.082  16.552  0.00  0.00    +0.000 C 
BRANCH  17  18
ATOM     18  O   UNL     1      48.763   4.567  17.413  0.00  0.00    +0.000 OA
BRANCH  18  25
ATOM     19  C   UNL     1      51.661   5.656  18.156  0.00  0.00    +0.000 C 
ATOM     20  C   UNL     1      51.228   4.256  17.845  0.00  0.00    +0.000 A 
ATOM     21  N   UNL     1      52.273   3.381  17.906  0.00  0.00    +0.000 NA
ATOM     22  C   UNL     1      52.027   2.067  17.660  0.00  0.00    +0.000 A 
ATOM     23  C   UNL     1      50.777   1.570  17.351  0.00  0.00    +0.000 A 
ATOM     24  C   UNL     1      49.721   2.476  17.286  0.00  0.00    +0.000 A 
ATOM     25  C   UNL     1      49.925   3.846  17.531  0.00  0.00    +0.000 A 
BRANCH  22  26
ATOM     26  C   UNL     1      53.209   1.157  17.746  0.00  0.00    +0.000 C 
ATOM     27  N   UNL     1      52.941  -0.113  18.191  0.00  0.00    +0.000 N 
ATOM     28  O   UNL     1      54.344   1.511  17.448  0.00  0.00    +0.000 OA
ATOM     29  H   UNL     1      51.987  -0.362  18.426  0.00  0.00    +0.000 HD
ATOM     30  H   UNL     1      53.689  -0.782  18.272  0.00  0.00    +0.000 HD
ENDBRANCH  22  26
ENDBRANCH  18  25
ENDBRANCH  17  18
ENDBRANCH   1  17
TORSDOF 7
ENDMDL
MODEL 9
REMARK VINA RESULT:    -6.458      2.910      4.410
REMARK INTER + INTRA:          -9.843
REMARK INTER:                  -8.980
REMARK INTRA:                  -0.863
REMARK UNBOUND:                -0.931
REMARK  Name = 
REMARK  8 active torsions:
REMARK  status: ('A' for Active; 'I' for Inactive)
REMARK    1  A    between atoms: C_1  and  C_2
REMARK    2  A    between atoms: C_4  and  C_5
REMARK    3  A    between atoms: C_10  and  O_11
REMARK    4  A    between atoms: O_11  and  C_12
REMARK    5  A    between atoms: C_12  and  C_13
REMARK    6  A    between atoms: C_18  and  C_19
REMARK    7  A    between atoms: C_23  and  C_24
REMARK    8  A    between atoms: C_24  and  O_25
REMARK                            x       y       z     vdW  Elec       q    Type
REMARK                         _______ _______ _______ _____ _____    ______ ____
ROOT
ATOM      1  C   UNL     1      49.226   7.599  13.500  0.00  0.00    +0.000 A 
ATOM      2  C   UNL     1      50.476   8.199  13.319  0.00  0.00    +0.000 A 
ATOM      3  C   UNL     1      51.418   8.158  14.341  0.00  0.00    +0.000 A 
ATOM      4  C   UNL     1      51.112   7.523  15.544  0.00  0.00    +0.000 A 
ATOM      5  F   UNL     1      52.071   7.488  16.483  0.00  0.00    +0.000 F 
ATOM      6  C   UNL     1      49.864   6.921  15.776  0.00  0.00    +0.000 A 
ATOM      7  C   UNL     1      48.925   6.986  14.728  0.00  0.00    +0.000 A 
ENDROOT
BRANCH   6   8
ATOM      8  C   UNL     1      49.531   6.245  17.047  0.00  0.00    +0.000 A 
ATOM      9  C   UNL     1      49.731   6.848  18.289  0.00  0.00    +0.000 A 
ATOM     10  N   UNL     1      49.429   6.287  19.486  0.00  0.00    +0.000 NA
ATOM     11  C   UNL     1      48.886   5.053  19.458  0.00  0.00    +0.000 A 
ATOM     12  C   UNL     1      48.612   4.350  18.292  0.00  0.00    +0.000 A 
ATOM     13  C   UNL     1      48.975   4.955  17.081  0.00  0.00    +0.000 A 
BRANCH  12  14
ATOM     14  C   UNL     1      48.019   2.973  18.357  0.00  0.00    +0.000 C 
BRANCH  14  15
ATOM     15  O   UNL     1      46.749   2.924  17.717  0.00  0.00    +0.000 OA
ATOM     16  H   UNL     1      46.383   2.039  17.885  0.00  0.00    +0.000 HD
ENDBRANCH  14  15
ENDBRANCH  12  14
ENDBRANCH   6   8
BRANCH   1  17
ATOM     17  C   UNL     1      48.231   7.546  12.366  0.00  0.00    +0.000 C 
BRANCH  17  18
ATOM     18  O   UNL     1      46.914   7.325  12.841  0.00  0.00    +0.000 OA
BRANCH  18  25
ATOM     19  C   UNL     1      46.749   4.567  14.422  0.00  0.00    +0.000 C 
ATOM     20  C   UNL     1      46.155   4.934  13.097  0.00  0.00    +0.000 A 
ATOM     21  N   UNL     1      45.461   3.894  12.551  0.00  0.00    +0.000 NA
ATOM     22  C   UNL     1      44.853   4.085  11.351  0.00  0.00    +0.000 A 
ATOM     23  C   UNL     1      44.899   5.276  10.654  0.00  0.00    +0.000 A 
ATOM     24  C   UNL     1      45.615   6.328  11.221  0.00  0.00    +0.000 A 
ATOM     25  C   UNL     1      46.263   6.178  12.460  0.00  0.00    +0.000 A 
BRANCH  22  26
ATOM     26  C   UNL     1      44.106   2.911  10.806  0.00  0.00    +0.000 C 
ATOM     27  N   UNL     1      44.716   2.260   9.764  0.00  0.00    +0.000 N 
ATOM     28  O   UNL     1      43.020   2.551  11.246  0.00  0.00    +0.000 OA
ATOM     29  H   UNL     1      45.614   2.593   9.432  0.00  0.00    +0.000 HD
ATOM     30  H   UNL     1      44.272   1.458   9.347  0.00  0.00    +0.000 HD
ENDBRANCH  22  26
ENDBRANCH  18  25
ENDBRANCH  17  18
ENDBRANCH   1  17
TORSDOF 7
ENDMDL
