MODEL 1
REMARK VINA RESULT:    -7.707      0.000      0.000
REMARK INTER + INTRA:         -11.682
REMARK INTER:                 -10.410
REMARK INTRA:                  -1.272
REMARK UNBOUND:                -1.272
REMARK  Name = 
REMARK  7 active torsions:
REMARK  status: ('A' for Active; 'I' for Inactive)
REMARK    1  A    between atoms: C_1  and  C_2
REMARK    2  A    between atoms: C_2  and  N_3
REMARK    3  A    between atoms: C_2  and  C_16
REMARK    4  A    between atoms: C_4  and  C_6
REMARK    5  A    between atoms: C_19  and  C_20
REMARK    6  A    between atoms: C_20  and  N_21
REMARK    7  A    between atoms: C_22  and  C_24
REMARK                            x       y       z     vdW  Elec       q    Type
REMARK                         _______ _______ _______ _____ _____    ______ ____
ROOT
ATOM      1  C   UNL     1      46.038   9.015  13.234  0.00  0.00    +0.000 C 
ATOM      2  C   UNL     1      46.884   7.748  13.061  0.00  0.00    +0.000 C 
ENDROOT
BRANCH   2   3
ATOM      3  C   UNL     1      46.108   6.694  12.278  0.00  0.00    +0.000 A 
ATOM      4  C   UNL     1      46.345   6.493  10.912  0.00  0.00    +0.000 A 
ATOM      5  C   UNL     1      45.665   5.490  10.209  0.00  0.00    +0.000 A 
ATOM      6  C   UNL     1      44.727   4.671  10.853  0.00  0.00    +0.000 A 
ATOM      7  C   UNL     1      44.487   4.871  12.217  0.00  0.00    +0.000 A 
ATOM      8  C   UNL     1      45.162   5.874  12.918  0.00  0.00    +0.000 A 
BRANCH   6   9
ATOM      9  C   UNL     1      44.015   3.575  10.103  0.00  0.00    +0.000 C 
BRANCH   9  10
ATOM     10  N   UNL     1      44.502   3.457   8.746  0.00  0.00    +0.000 N 
ATOM     11  C   UNL     1      45.283   2.392   8.369  0.00  0.00    +0.000 C 
ATOM     12  O   UNL     1      45.627   1.515   9.159  0.00  0.00    +0.000 OA
ATOM     13  H   UNL     1      44.049   4.018   8.033  0.00  0.00    +0.000 HD
BRANCH  11  14
ATOM     14  C   UNL     1      45.770   2.377   6.924  0.00  0.00    +0.000 C 
ATOM     15  C   UNL     1      46.787   1.290   6.660  0.00  0.00    +0.000 C 
ATOM     16  C   UNL     1      48.114   1.966   6.936  0.00  0.00    +0.000 C 
ATOM     17  O   UNL     1      47.909   3.383   6.828  0.00  0.00    +0.000 OA
ATOM     18  C   UNL     1      46.523   3.630   6.540  0.00  0.00    +0.000 C 
ENDBRANCH  11  14
ENDBRANCH   9  10
ENDBRANCH   6   9
ENDBRANCH   2   3
BRANCH   2  19
ATOM     19  N   UNL     1      47.302   7.176  14.333  0.00  0.00    +0.000 N 
ATOM     20  C   UNL     1      48.586   6.777  14.605  0.00  0.00    +0.000 C 
ATOM     21  O   UNL     1      49.510   6.919  13.811  0.00  0.00    +0.000 OA
ATOM     22  H   UNL     1      46.558   6.764  14.887  0.00  0.00    +0.000 HD
BRANCH  20  23
ATOM     23  C   UNL     1      48.817   6.226  15.946  0.00  0.00    +0.000 A 
ATOM     24  C   UNL     1      49.668   6.886  16.822  0.00  0.00    +0.000 A 
ATOM     25  S   UNL     1      49.815   6.120  18.338  0.00  0.00    +0.000 S 
ATOM     26  C   UNL     1      48.777   4.858  17.863  0.00  0.00    +0.000 A 
ATOM     27  N   UNL     1      48.500   3.825  18.703  0.00  0.00    +0.000 NA
ATOM     28  C   UNL     1      47.726   2.921  18.200  0.00  0.00    +0.000 A 
ATOM     29  N   UNL     1      47.187   2.967  16.939  0.00  0.00    +0.000 N 
ATOM     30  C   UNL     1      47.403   4.012  16.074  0.00  0.00    +0.000 A 
ATOM     31  O   UNL     1      46.849   4.065  14.981  0.00  0.00    +0.000 OA
ATOM     32  C   UNL     1      48.298   5.037  16.577  0.00  0.00    +0.000 A 
ATOM     33  H   UNL     1      46.571   2.238  16.615  0.00  0.00    +0.000 HD
ENDBRANCH  20  23
ENDBRANCH   2  19
TORSDOF 6
ENDMDL
MODEL 2
REMARK VINA RESULT:    -7.204      3.666      5.465
REMARK INTER + INTRA:         -11.003
REMARK INTER:                  -9.500
REMARK INTRA:                  -1.503
REMARK UNBOUND:                -1.272
REMARK  Name = 
REMARK  7 active torsions:
REMARK  status: ('A' for Active; 'I' for Inactive)
REMARK    1  A    between atoms: C_1  and  C_2
REMARK    2  A    between atoms: C_2  and  N_3
REMARK    3  A    between atoms: C_2  and  C_16
REMARK    4  A    between atoms: C_4  and  C_6
REMARK    5  A    between atoms: C_19  and  C_20
REMARK    6  A    between atoms: C_20  and  N_21
REMARK    7  A    between atoms: C_22  and  C_24
REMARK                            x       y       z     vdW  Elec       q    Type
REMARK                         _______ _______ _______ _____ _____    ______ ____
ROOT
ATOM      1  C   UNL     1      47.504   3.033  17.675  0.00  0.00    +0.000 C 
ATOM      2  C   UNL     1      48.361   4.268  17.373  0.00  0.00    +0.000 C 
ENDROOT
BRANCH   2   3
ATOM      3  C   UNL     1      47.979   4.861  16.020  0.00  0.00    +0.000 A 
ATOM      4  C   UNL     1      48.523   6.078  15.588  0.00  0.00    +0.000 A 
ATOM      5  C   UNL     1      48.208   6.594  14.325  0.00  0.00    +0.000 A 
ATOM      6  C   UNL     1      47.336   5.909  13.467  0.00  0.00    +0.000 A 
ATOM      7  C   UNL     1      46.790   4.694  13.896  0.00  0.00    +0.000 A 
ATOM      8  C   UNL     1      47.102   4.181  15.158  0.00  0.00    +0.000 A 
BRANCH   6   9
ATOM      9  C   UNL     1      47.017   6.450  12.097  0.00  0.00    +0.000 C 
BRANCH   9  10
ATOM     10  N   UNL     1      45.933   5.721  11.477  0.00  0.00    +0.000 N 
ATOM     11  C   UNL     1      44.680   6.275  11.377  0.00  0.00    +0.000 C 
ATOM     12  O   UNL     1      44.413   7.388  11.827  0.00  0.00    +0.000 OA
ATOM     13  H   UNL     1      46.171   4.924  10.897  0.00  0.00    +0.000 HD
BRANCH  11  14
ATOM     14  C   UNL     1      43.598   5.413  10.734  0.00  0.00    +0.000 C 
ATOM     15  C   UNL     1      42.695   4.751  11.751  0.00  0.00    +0.000 C 
ATOM     16  C   UNL     1      43.372   3.425  12.023  0.00  0.00    +0.000 C 
ATOM     17  O   UNL     1      44.230   3.139  10.908  0.00  0.00    +0.000 OA
ATOM     18  C   UNL     1      44.157   4.231   9.975  0.00  0.00    +0.000 C 
ENDBRANCH  11  14
ENDBRANCH   9  10
ENDBRANCH   6   9
ENDBRANCH   2   3
BRANCH   2  19
ATOM     19  N   UNL     1      49.787   3.974  17.371  0.00  0.00    +0.000 N 
ATOM     20  C   UNL     1      50.611   4.185  18.446  0.00  0.00    +0.000 C 
ATOM     21  O   UNL     1      50.203   4.593  19.528  0.00  0.00    +0.000 OA
ATOM     22  H   UNL     1      50.219   3.933  16.453  0.00  0.00    +0.000 HD
BRANCH  20  23
ATOM     23  C   UNL     1      52.021   3.823  18.256  0.00  0.00    +0.000 A 
ATOM     24  C   UNL     1      53.010   4.774  18.471  0.00  0.00    +0.000 A 
ATOM     25  S   UNL     1      54.590   4.185  18.218  0.00  0.00    +0.000 S 
ATOM     26  C   UNL     1      54.006   2.650  17.774  0.00  0.00    +0.000 A 
ATOM     27  N   UNL     1      54.858   1.659  17.394  0.00  0.00    +0.000 NA
ATOM     28  C   UNL     1      54.276   0.558  17.052  0.00  0.00    +0.000 A 
ATOM     29  N   UNL     1      52.921   0.351  17.071  0.00  0.00    +0.000 N 
ATOM     30  C   UNL     1      52.026   1.307  17.489  0.00  0.00    +0.000 A 
ATOM     31  O   UNL     1      50.826   1.071  17.570  0.00  0.00    +0.000 OA
ATOM     32  C   UNL     1      52.626   2.577  17.850  0.00  0.00    +0.000 A 
ATOM     33  H   UNL     1      52.532  -0.542  16.811  0.00  0.00    +0.000 HD
ENDBRANCH  20  23
ENDBRANCH   2  19
TORSDOF 6
ENDMDL
MODEL 3
REMARK VINA RESULT:    -7.087      1.851      2.341
REMARK INTER + INTRA:         -10.845
REMARK INTER:                  -9.781
REMARK INTRA:                  -1.064
REMARK UNBOUND:                -1.272
REMARK  Name = 
REMARK  7 active torsions:
REMARK  status: ('A' for Active; 'I' for Inactive)
REMARK    1  A    between atoms: C_1  and  C_2
REMARK    2  A    between atoms: C_2  and  N_3
REMARK    3  A    between atoms: C_2  and  C_16
REMARK    4  A    between atoms: C_4  and  C_6
REMARK    5  A    between atoms: C_19  and  C_20
REMARK    6  A    between atoms: C_20  and  N_21
REMARK    7  A    between atoms: C_22  and  C_24
REMARK                            x       y       z     vdW  Elec       q    Type
REMARK                         _______ _______ _______ _____ _____    ______ ____
ROOT
ATOM      1  C   UNL     1      47.679   8.532  13.665  0.00  0.00    +0.000 C 
ATOM      2  C   UNL     1      47.975   7.029  13.715  0.00  0.00    +0.000 C 
ENDROOT
BRANCH   2   3
ATOM      3  C   UNL     1      46.981   6.263  12.847  0.00  0.00    +0.000 A 
ATOM      4  C   UNL     1      46.750   6.638  11.517  0.00  0.00    +0.000 A 
ATOM      5  C   UNL     1      45.874   5.902  10.709  0.00  0.00    +0.000 A 
ATOM      6  C   UNL     1      45.203   4.779  11.214  0.00  0.00    +0.000 A 
ATOM      7  C   UNL     1      45.431   4.403  12.542  0.00  0.00    +0.000 A 
ATOM      8  C   UNL     1      46.302   5.140  13.350  0.00  0.00    +0.000 A 
BRANCH   6   9
ATOM      9  C   UNL     1      44.281   3.971  10.337  0.00  0.00    +0.000 C 
BRANCH   9  10
ATOM     10  N   UNL     1      44.749   3.931   8.970  0.00  0.00    +0.000 N 
ATOM     11  C   UNL     1      45.262   2.773   8.436  0.00  0.00    +0.000 C 
ATOM     12  O   UNL     1      45.375   1.739   9.091  0.00  0.00    +0.000 OA
ATOM     13  H   UNL     1      44.455   4.676   8.348  0.00  0.00    +0.000 HD
BRANCH  11  14
ATOM     14  C   UNL     1      45.757   2.843   6.995  0.00  0.00    +0.000 C 
ATOM     15  C   UNL     1      46.476   1.586   6.561  0.00  0.00    +0.000 C 
ATOM     16  C   UNL     1      47.924   1.863   6.907  0.00  0.00    +0.000 C 
ATOM     17  O   UNL     1      48.081   3.286   7.006  0.00  0.00    +0.000 OA
ATOM     18  C   UNL     1      46.805   3.910   6.780  0.00  0.00    +0.000 C 
ENDBRANCH  11  14
ENDBRANCH   9  10
ENDBRANCH   6   9
ENDBRANCH   2   3
BRANCH   2  19
ATOM     19  N   UNL     1      47.928   6.493  15.068  0.00  0.00    +0.000 N 
ATOM     20  C   UNL     1      49.034   6.317  15.858  0.00  0.00    +0.000 C 
ATOM     21  O   UNL     1      50.162   6.650  15.509  0.00  0.00    +0.000 OA
ATOM     22  H   UNL     1      47.107   5.936  15.284  0.00  0.00    +0.000 HD
BRANCH  20  23
ATOM     23  C   UNL     1      48.787   5.768  17.197  0.00  0.00    +0.000 A 
ATOM     24  C   UNL     1      48.968   4.410  17.426  0.00  0.00    +0.000 A 
ATOM     25  S   UNL     1      48.650   3.941  19.034  0.00  0.00    +0.000 S 
ATOM     26  C   UNL     1      48.221   5.528  19.471  0.00  0.00    +0.000 A 
ATOM     27  N   UNL     1      47.804   5.819  20.732  0.00  0.00    +0.000 NA
ATOM     28  C   UNL     1      47.479   7.056  20.915  0.00  0.00    +0.000 A 
ATOM     29  N   UNL     1      47.551   8.033  19.955  0.00  0.00    +0.000 N 
ATOM     30  C   UNL     1      48.008   7.794  18.681  0.00  0.00    +0.000 A 
ATOM     31  O   UNL     1      48.135   8.700  17.864  0.00  0.00    +0.000 OA
ATOM     32  C   UNL     1      48.352   6.411  18.413  0.00  0.00    +0.000 A 
ATOM     33  H   UNL     1      47.302   8.986  20.169  0.00  0.00    +0.000 HD
ENDBRANCH  20  23
ENDBRANCH   2  19
TORSDOF 6
ENDMDL
MODEL 4
REMARK VINA RESULT:    -6.868      2.453      3.853
REMARK INTER + INTRA:         -10.550
REMARK INTER:                  -9.205
REMARK INTRA:                  -1.345
REMARK UNBOUND:                -1.272
REMARK  Name = 
REMARK  7 active torsions:
REMARK  status: ('A' for Active; 'I' for Inactive)
REMARK    1  A    between atoms: C_1  and  C_2
REMARK    2  A    between atoms: C_2  and  N_3
REMARK    3  A    between atoms: C_2  and  C_16
REMARK    4  A    between atoms: C_4  and  C_6
REMARK    5  A    between atoms: C_19  and  C_20
REMARK    6  A    between atoms: C_20  and  N_21
REMARK    7  A    between atoms: C_22  and  C_24
REMARK                            x       y       z     vdW  Elec       q    Type
REMARK                         _______ _______ _______ _____ _____    ______ ____
ROOT
ATOM      1  C   UNL     1      47.922   2.913  15.841  0.00  0.00    +0.000 C 
ATOM      2  C   UNL     1      47.231   4.280  15.913  0.00  0.00    +0.000 C 
ENDROOT
BRANCH   2   3
ATOM      3  C   UNL     1      46.829   4.745  14.517  0.00  0.00    +0.000 A 
ATOM      4  C   UNL     1      45.822   4.084  13.801  0.00  0.00    +0.000 A 
ATOM      5  C   UNL     1      45.422   4.545  12.540  0.00  0.00    +0.000 A 
ATOM      6  C   UNL     1      46.024   5.673  11.963  0.00  0.00    +0.000 A 
ATOM      7  C   UNL     1      47.030   6.334  12.676  0.00  0.00    +0.000 A 
ATOM      8  C   UNL     1      47.433   5.871  13.932  0.00  0.00    +0.000 A 
BRANCH   6   9
ATOM      9  C   UNL     1      45.575   6.185  10.618  0.00  0.00    +0.000 C 
BRANCH   9  10
ATOM     10  N   UNL     1      45.023   5.124   9.804  0.00  0.00    +0.000 N 
ATOM     11  C   UNL     1      45.660   4.712   8.659  0.00  0.00    +0.000 C 
ATOM     12  O   UNL     1      46.698   5.235   8.258  0.00  0.00    +0.000 OA
ATOM     13  H   UNL     1      44.319   4.526  10.223  0.00  0.00    +0.000 HD
BRANCH  11  14
ATOM     14  C   UNL     1      44.981   3.609   7.856  0.00  0.00    +0.000 C 
ATOM     15  C   UNL     1      44.626   2.404   8.698  0.00  0.00    +0.000 C 
ATOM     16  C   UNL     1      45.848   1.517   8.589  0.00  0.00    +0.000 C 
ATOM     17  O   UNL     1      46.562   1.907   7.406  0.00  0.00    +0.000 OA
ATOM     18  C   UNL     1      45.877   3.012   6.794  0.00  0.00    +0.000 C 
ENDBRANCH  11  14
ENDBRANCH   9  10
ENDBRANCH   6   9
ENDBRANCH   2   3
BRANCH   2  19
ATOM     19  N   UNL     1      48.071   5.299  16.524  0.00  0.00    +0.000 N 
ATOM     20  C   UNL     1      47.996   5.657  17.846  0.00  0.00    +0.000 C 
ATOM     21  O   UNL     1      47.245   5.106  18.644  0.00  0.00    +0.000 OA
ATOM     22  H   UNL     1      48.470   5.975  15.880  0.00  0.00    +0.000 HD
BRANCH  20  23
ATOM     23  C   UNL     1      48.928   6.705  18.282  0.00  0.00    +0.000 A 
ATOM     24  C   UNL     1      48.444   7.817  18.957  0.00  0.00    +0.000 A 
ATOM     25  S   UNL     1      49.659   8.928  19.401  0.00  0.00    +0.000 S 
ATOM     26  C   UNL     1      50.869   7.981  18.671  0.00  0.00    +0.000 A 
ATOM     27  N   UNL     1      52.167   8.389  18.661  0.00  0.00    +0.000 NA
ATOM     28  C   UNL     1      52.972   7.589  18.044  0.00  0.00    +0.000 A 
ATOM     29  N   UNL     1      52.601   6.409  17.452  0.00  0.00    +0.000 N 
ATOM     30  C   UNL     1      51.311   5.936  17.477  0.00  0.00    +0.000 A 
ATOM     31  O   UNL     1      51.019   4.842  17.007  0.00  0.00    +0.000 OA
ATOM     32  C   UNL     1      50.358   6.816  18.126  0.00  0.00    +0.000 A 
ATOM     33  H   UNL     1      53.285   5.819  17.005  0.00  0.00    +0.000 HD
ENDBRANCH  20  23
ENDBRANCH   2  19
TORSDOF 6
ENDMDL
MODEL 5
REMARK VINA RESULT:    -6.845      3.516      7.887
REMARK INTER + INTRA:         -10.518
REMARK INTER:                  -9.032
REMARK INTRA:                  -1.486
REMARK UNBOUND:                -1.272
REMARK  Name = 
REMARK  7 active torsions:
REMARK  status: ('A' for Active; 'I' for Inactive)
REMARK    1  A    between atoms: C_1  and  C_2
REMARK    2  A    between atoms: C_2  and  N_3
REMARK    3  A    between atoms: C_2  and  C_16
REMARK    4  A    between atoms: C_4  and  C_6
REMARK    5  A    between atoms: C_19  and  C_20
REMARK    6  A    between atoms: C_20  and  N_21
REMARK    7  A    between atoms: C_22  and  C_24
REMARK                            x       y       z     vdW  Elec       q    Type
REMARK                         _______ _______ _______ _____ _____    ______ ____
ROOT
ATOM      1  C   UNL     1      49.029   8.947  11.381  0.00  0.00    +0.000 C 
ATOM      2  C   UNL     1      47.894   8.381  12.242  0.00  0.00    +0.000 C 
ENDROOT
BRANCH   2   3
ATOM      3  C   UNL     1      48.413   8.013  13.629  0.00  0.00    +0.000 A 
ATOM      4  C   UNL     1      48.041   6.809  14.240  0.00  0.00    +0.000 A 
ATOM      5  C   UNL     1      48.559   6.454  15.492  0.00  0.00    +0.000 A 
ATOM      6  C   UNL     1      49.455   7.296  16.165  0.00  0.00    +0.000 A 
ATOM      7  C   UNL     1      49.827   8.500  15.557  0.00  0.00    +0.000 A 
ATOM      8  C   UNL     1      49.307   8.857  14.310  0.00  0.00    +0.000 A 
BRANCH   6   9
ATOM      9  C   UNL     1      50.033   6.902  17.500  0.00  0.00    +0.000 C 
BRANCH   9  10
ATOM     10  N   UNL     1      49.622   5.568  17.882  0.00  0.00    +0.000 N 
ATOM     11  C   UNL     1      50.440   4.488  17.655  0.00  0.00    +0.000 C 
ATOM     12  O   UNL     1      51.531   4.593  17.097  0.00  0.00    +0.000 OA
ATOM     13  H   UNL     1      48.858   5.482  18.544  0.00  0.00    +0.000 HD
BRANCH  11  14
ATOM     14  C   UNL     1      49.902   3.122  18.068  0.00  0.00    +0.000 C 
ATOM     15  C   UNL     1      49.732   2.181  16.897  0.00  0.00    +0.000 C 
ATOM     16  C   UNL     1      48.310   2.430  16.440  0.00  0.00    +0.000 C 
ATOM     17  O   UNL     1      47.598   3.017  17.540  0.00  0.00    +0.000 OA
ATOM     18  C   UNL     1      48.505   3.185  18.642  0.00  0.00    +0.000 C 
ENDBRANCH  11  14
ENDBRANCH   9  10
ENDBRANCH   6   9
ENDBRANCH   2   3
BRANCH   2  19
ATOM     19  N   UNL     1      47.273   7.206  11.647  0.00  0.00    +0.000 N 
ATOM     20  C   UNL     1      45.932   7.105  11.381  0.00  0.00    +0.000 C 
ATOM     21  O   UNL     1      45.143   8.024  11.574  0.00  0.00    +0.000 OA
ATOM     22  H   UNL     1      47.794   6.341  11.751  0.00  0.00    +0.000 HD
BRANCH  20  23
ATOM     23  C   UNL     1      45.490   5.843  10.775  0.00  0.00    +0.000 A 
ATOM     24  C   UNL     1      45.779   5.583   9.442  0.00  0.00    +0.000 A 
ATOM     25  S   UNL     1      45.205   4.071   8.901  0.00  0.00    +0.000 S 
ATOM     26  C   UNL     1      44.517   3.728  10.419  0.00  0.00    +0.000 A 
ATOM     27  N   UNL     1      43.827   2.575  10.630  0.00  0.00    +0.000 NA
ATOM     28  C   UNL     1      43.330   2.460  11.817  0.00  0.00    +0.000 A 
ATOM     29  N   UNL     1      43.477   3.386  12.818  0.00  0.00    +0.000 N 
ATOM     30  C   UNL     1      44.202   4.543  12.664  0.00  0.00    +0.000 A 
ATOM     31  O   UNL     1      44.381   5.317  13.597  0.00  0.00    +0.000 OA
ATOM     32  C   UNL     1      44.750   4.738  11.335  0.00  0.00    +0.000 A 
ATOM     33  H   UNL     1      43.081   3.225  13.731  0.00  0.00    +0.000 HD
ENDBRANCH  20  23
ENDBRANCH   2  19
TORSDOF 6
ENDMDL
MODEL 6
REMARK VINA RESULT:    -6.789      2.958      8.620
REMARK INTER + INTRA:         -10.442
REMARK INTER:                  -9.019
REMARK INTRA:                  -1.423
REMARK UNBOUND:                -1.272
REMARK  Name = 
REMARK  7 active torsions:
REMARK  status: ('A' for Active; 'I' for Inactive)
REMARK    1  A    between atoms: C_1  and  C_2
REMARK    2  A    between atoms: C_2  and  N_3
REMARK    3  A    between atoms: C_2  and  C_16
REMARK    4  A    between atoms: C_4  and  C_6
REMARK    5  A    between atoms: C_19  and  C_20
REMARK    6  A    between atoms: C_20  and  N_21
REMARK    7  A    between atoms: C_22  and  C_24
REMARK                            x       y       z     vdW  Elec       q    Type
REMARK                         _______ _______ _______ _____ _____    ______ ____
ROOT
ATOM      1  C   UNL     1      48.944   7.784  11.311  0.00  0.00    +0.000 C 
ATOM      2  C   UNL     1      47.660   7.729  12.149  0.00  0.00    +0.000 C 
ENDROOT
BRANCH   2   3
ATOM      3  C   UNL     1      47.994   7.806  13.635  0.00  0.00    +0.000 A 
ATOM      4  C   UNL     1      48.363   6.659  14.349  0.00  0.00    +0.000 A 
ATOM      5  C   UNL     1      48.716   6.742  15.702  0.00  0.00    +0.000 A 
ATOM      6  C   UNL     1      48.701   7.972  16.374  0.00  0.00    +0.000 A 
ATOM      7  C   UNL     1      48.331   9.119  15.664  0.00  0.00    +0.000 A 
ATOM      8  C   UNL     1      47.975   9.036  14.315  0.00  0.00    +0.000 A 
BRANCH   6   9
ATOM      9  C   UNL     1      49.107   8.066  17.823  0.00  0.00    +0.000 C 
BRANCH   9  10
ATOM     10  N   UNL     1      49.246   6.756  18.421  0.00  0.00    +0.000 N 
ATOM     11  C   UNL     1      50.484   6.179  18.570  0.00  0.00    +0.000 C 
ATOM     12  O   UNL     1      51.516   6.724  18.183  0.00  0.00    +0.000 OA
ATOM     13  H   UNL     1      48.463   6.396  18.955  0.00  0.00    +0.000 HD
BRANCH  11  14
ATOM     14  C   UNL     1      50.521   4.784  19.184  0.00  0.00    +0.000 C 
ATOM     15  C   UNL     1      50.878   3.711  18.181  0.00  0.00    +0.000 C 
ATOM     16  C   UNL     1      49.536   3.267  17.637  0.00  0.00    +0.000 C 
ATOM     17  O   UNL     1      48.535   3.639  18.597  0.00  0.00    +0.000 OA
ATOM     18  C   UNL     1      49.172   4.324  19.689  0.00  0.00    +0.000 C 
ENDBRANCH  11  14
ENDBRANCH   9  10
ENDBRANCH   6   9
ENDBRANCH   2   3
BRANCH   2  19
ATOM     19  N   UNL     1      46.883   6.524  11.903  0.00  0.00    +0.000 N 
ATOM     20  C   UNL     1      45.516   6.508  11.789  0.00  0.00    +0.000 C 
ATOM     21  O   UNL     1      44.832   7.525  11.831  0.00  0.00    +0.000 OA
ATOM     22  H   UNL     1      47.339   5.654  12.159  0.00  0.00    +0.000 HD
BRANCH  20  23
ATOM     23  C   UNL     1      44.908   5.196  11.537  0.00  0.00    +0.000 A 
ATOM     24  C   UNL     1      44.169   4.578  12.537  0.00  0.00    +0.000 A 
ATOM     25  S   UNL     1      43.524   3.068  12.076  0.00  0.00    +0.000 S 
ATOM     26  C   UNL     1      44.242   3.169  10.537  0.00  0.00    +0.000 A 
ATOM     27  N   UNL     1      44.109   2.161   9.634  0.00  0.00    +0.000 NA
ATOM     28  C   UNL     1      44.734   2.356   8.520  0.00  0.00    +0.000 A 
ATOM     29  N   UNL     1      45.465   3.477   8.220  0.00  0.00    +0.000 N 
ATOM     30  C   UNL     1      45.590   4.539   9.083  0.00  0.00    +0.000 A 
ATOM     31  O   UNL     1      46.185   5.561   8.761  0.00  0.00    +0.000 OA
ATOM     32  C   UNL     1      44.937   4.354  10.365  0.00  0.00    +0.000 A 
ATOM     33  H   UNL     1      45.911   3.576   7.322  0.00  0.00    +0.000 HD
ENDBRANCH  20  23
ENDBRANCH   2  19
TORSDOF 6
ENDMDL
MODEL 7
REMARK VINA RESULT:    -6.624      4.021      8.428
REMARK INTER + INTRA:         -10.220
REMARK INTER:                  -9.724
REMARK INTRA:                  -0.496
REMARK UNBOUND:                -1.272
REMARK  Name = 
REMARK  7 active torsions:
REMARK  status: ('A' for Active; 'I' for Inactive)
REMARK    1  A    between atoms: C_1  and  C_2
REMARK    2  A    between atoms: C_2  and  N_3
REMARK    3  A    between atoms: C_2  and  C_16
REMARK    4  A    between atoms: C_4  and  C_6
REMARK    5  A    between atoms: C_19  and  C_20
REMARK    6  A    between atoms: C_20  and  N_21
REMARK    7  A    between atoms: C_22  and  C_24
REMARK                            x       y       z     vdW  Elec       q    Type
REMARK                         _______ _______ _______ _____ _____    ______ ____
ROOT
ATOM      1  C   UNL     1      49.818   8.221  14.289  0.00  0.00    +0.000 C 
ATOM      2  C   UNL     1      48.671   7.697  15.160  0.00  0.00    +0.000 C 
ENDROOT
BRANCH   2   3
ATOM      3  C   UNL     1      49.136   6.504  15.989  0.00  0.00    +0.000 A 
ATOM      4  C   UNL     1      50.457   6.419  16.449  0.00  0.00    +0.000 A 
ATOM      5  C   UNL     1      50.866   5.346  17.251  0.00  0.00    +0.000 A 
ATOM      6  C   UNL     1      49.967   4.331  17.606  0.00  0.00    +0.000 A 
ATOM      7  C   UNL     1      48.648   4.413  17.148  0.00  0.00    +0.000 A 
ATOM      8  C   UNL     1      48.240   5.481  16.344  0.00  0.00    +0.000 A 
BRANCH   6   9
ATOM      9  C   UNL     1      50.401   3.190  18.492  0.00  0.00    +0.000 C 
BRANCH   9  10
ATOM     10  N   UNL     1      51.805   2.889  18.319  0.00  0.00    +0.000 N 
ATOM     11  C   UNL     1      52.205   1.783  17.608  0.00  0.00    +0.000 C 
ATOM     12  O   UNL     1      51.403   0.990  17.118  0.00  0.00    +0.000 OA
ATOM     13  H   UNL     1      52.472   3.631  18.498  0.00  0.00    +0.000 HD
BRANCH  11  14
ATOM     14  C   UNL     1      53.706   1.537  17.509  0.00  0.00    +0.000 C 
ATOM     15  C   UNL     1      54.043   0.119  17.106  0.00  0.00    +0.000 C 
ATOM     16  C   UNL     1      54.168  -0.610  18.427  0.00  0.00    +0.000 C 
ATOM     17  O   UNL     1      54.419   0.374  19.442  0.00  0.00    +0.000 OA
ATOM     18  C   UNL     1      54.418   1.677  18.836  0.00  0.00    +0.000 C 
ENDBRANCH  11  14
ENDBRANCH   9  10
ENDBRANCH   6   9
ENDBRANCH   2   3
BRANCH   2  19
ATOM     19  N   UNL     1      47.509   7.301  14.377  0.00  0.00    +0.000 N 
ATOM     20  C   UNL     1      47.571   6.474  13.285  0.00  0.00    +0.000 C 
ATOM     21  O   UNL     1      48.613   5.950  12.905  0.00  0.00    +0.000 OA
ATOM     22  H   UNL     1      46.708   7.920  14.448  0.00  0.00    +0.000 HD
BRANCH  20  23
ATOM     23  C   UNL     1      46.293   6.184  12.625  0.00  0.00    +0.000 A 
ATOM     24  C   UNL     1      45.590   7.210  12.009  0.00  0.00    +0.000 A 
ATOM     25  S   UNL     1      44.134   6.700  11.282  0.00  0.00    +0.000 S 
ATOM     26  C   UNL     1      44.373   5.097  11.800  0.00  0.00    +0.000 A 
ATOM     27  N   UNL     1      43.453   4.131  11.533  0.00  0.00    +0.000 NA
ATOM     28  C   UNL     1      43.747   2.968  12.014  0.00  0.00    +0.000 A 
ATOM     29  N   UNL     1      44.886   2.680  12.722  0.00  0.00    +0.000 N 
ATOM     30  C   UNL     1      45.862   3.613  12.976  0.00  0.00    +0.000 A 
ATOM     31  O   UNL     1      46.906   3.312  13.544  0.00  0.00    +0.000 OA
ATOM     32  C   UNL     1      45.563   4.946  12.489  0.00  0.00    +0.000 A 
ATOM     33  H   UNL     1      45.065   1.744  13.051  0.00  0.00    +0.000 HD
ENDBRANCH  20  23
ENDBRANCH   2  19
TORSDOF 6
ENDMDL
MODEL 8
REMARK VINA RESULT:    -6.533      4.221      9.197
REMARK INTER + INTRA:         -10.097
REMARK INTER:                  -8.824
REMARK INTRA:                  -1.273
REMARK UNBOUND:                -1.272
REMARK  Name = 
REMARK  7 active torsions:
REMARK  status: ('A' for Active; 'I' for Inactive)
REMARK    1  A    between atoms: C_1  and  C_2
REMARK    2  A    between atoms: C_2  and  N_3
REMARK    3  A    between atoms: C_2  and  C_16
REMARK    4  A    between atoms: C_4  and  C_6
REMARK    5  A    between atoms: C_19  and  C_20
REMARK    6  A    between atoms: C_20  and  N_21
REMARK    7  A    between atoms: C_22  and  C_24
REMARK                            x       y       z     vdW  Elec       q    Type
REMARK                         _______ _______ _______ _____ _____    ______ ____
ROOT
ATOM      1  C   UNL     1      46.776   3.307  17.661  0.00  0.00    +0.000 C 
ATOM      2  C   UNL     1      47.664   3.592  16.444  0.00  0.00    +0.000 C 
ENDROOT
BRANCH   2   3
ATOM      3  C   UNL     1      48.991   4.199  16.886  0.00  0.00    +0.000 A 
ATOM      4  C   UNL     1      49.975   3.410  17.498  0.00  0.00    +0.000 A 
ATOM      5  C   UNL     1      51.211   3.961  17.857  0.00  0.00    +0.000 A 
ATOM      6  C   UNL     1      51.491   5.313  17.619  0.00  0.00    +0.000 A 
ATOM      7  C   UNL     1      50.511   6.104  17.010  0.00  0.00    +0.000 A 
ATOM      8  C   UNL     1      49.275   5.556  16.655  0.00  0.00    +0.000 A 
BRANCH   6   9
ATOM      9  C   UNL     1      52.832   5.900  17.982  0.00  0.00    +0.000 C 
BRANCH   9  10
ATOM     10  N   UNL     1      53.825   4.868  18.185  0.00  0.00    +0.000 N 
ATOM     11  C   UNL     1      54.792   4.627  17.239  0.00  0.00    +0.000 C 
ATOM     12  O   UNL     1      54.844   5.245  16.177  0.00  0.00    +0.000 OA
ATOM     13  H   UNL     1      53.954   4.517  19.127  0.00  0.00    +0.000 HD
BRANCH  11  14
ATOM     14  C   UNL     1      55.774   3.499  17.535  0.00  0.00    +0.000 C 
ATOM     15  C   UNL     1      55.581   2.302  16.631  0.00  0.00    +0.000 C 
ATOM     16  C   UNL     1      54.597   1.435  17.388  0.00  0.00    +0.000 C 
ATOM     17  O   UNL     1      54.656   1.819  18.771  0.00  0.00    +0.000 OA
ATOM     18  C   UNL     1      55.592   2.901  18.911  0.00  0.00    +0.000 C 
ENDBRANCH  11  14
ENDBRANCH   9  10
ENDBRANCH   6   9
ENDBRANCH   2   3
BRANCH   2  19
ATOM     19  N   UNL     1      47.032   4.490  15.489  0.00  0.00    +0.000 N 
ATOM     20  C   UNL     1      46.841   4.185  14.165  0.00  0.00    +0.000 C 
ATOM     21  O   UNL     1      47.141   3.098  13.682  0.00  0.00    +0.000 OA
ATOM     22  H   UNL     1      47.047   5.473  15.743  0.00  0.00    +0.000 HD
BRANCH  20  23
ATOM     23  C   UNL     1      46.182   5.217  13.356  0.00  0.00    +0.000 A 
ATOM     24  C   UNL     1      46.823   6.428  13.131  0.00  0.00    +0.000 A 
ATOM     25  S   UNL     1      45.925   7.507  12.164  0.00  0.00    +0.000 S 
ATOM     26  C   UNL     1      44.630   6.410  12.045  0.00  0.00    +0.000 A 
ATOM     27  N   UNL     1      43.497   6.734  11.366  0.00  0.00    +0.000 NA
ATOM     28  C   UNL     1      42.583   5.821  11.385  0.00  0.00    +0.000 A 
ATOM     29  N   UNL     1      42.707   4.605  12.007  0.00  0.00    +0.000 N 
ATOM     30  C   UNL     1      43.848   4.217  12.667  0.00  0.00    +0.000 A 
ATOM     31  O   UNL     1      43.962   3.096  13.149  0.00  0.00    +0.000 OA
ATOM     32  C   UNL     1      44.893   5.223  12.706  0.00  0.00    +0.000 A 
ATOM     33  H   UNL     1      41.962   3.927  11.966  0.00  0.00    +0.000 HD
ENDBRANCH  20  23
ENDBRANCH   2  19
TORSDOF 6
ENDMDL
MODEL 9
REMARK VINA RESULT:    -6.258      3.841      9.754
REMARK INTER + INTRA:          -9.726
REMARK INTER:                  -8.269
REMARK INTRA:                  -1.457
REMARK UNBOUND:                -1.272
REMARK  Name = 
REMARK  7 active torsions:
REMARK  status: ('A' for Active; 'I' for Inactive)
REMARK    1  A    between atoms: C_1  and  C_2
REMARK    2  A    between atoms: C_2  and  N_3
REMARK    3  A    between atoms: C_2  and  C_16
REMARK    4  A    between atoms: C_4  and  C_6
REMARK    5  A    between atoms: C_19  and  C_20
REMARK    6  A    between atoms: C_20  and  N_21
REMARK    7  A    between atoms: C_22  and  C_24
REMARK                            x       y       z     vdW  Elec       q    Type
REMARK                         _______ _______ _______ _____ _____    ______ ____
ROOT
ATOM      1  C   UNL     1      47.954   2.957  16.520  0.00  0.00    +0.000 C 
ATOM      2  C   UNL     1      48.147   4.420  16.106  0.00  0.00    +0.000 C 
ENDROOT
BRANCH   2   3
ATOM      3  C   UNL     1      48.049   5.333  17.324  0.00  0.00    +0.000 A 
ATOM      4  C   UNL     1      48.823   6.498  17.414  0.00  0.00    +0.000 A 
ATOM      5  C   UNL     1      48.693   7.359  18.512  0.00  0.00    +0.000 A 
ATOM      6  C   UNL     1      47.792   7.073  19.547  0.00  0.00    +0.000 A 
ATOM      7  C   UNL     1      47.019   5.910  19.460  0.00  0.00    +0.000 A 
ATOM      8  C   UNL     1      47.152   5.048  18.367  0.00  0.00    +0.000 A 
BRANCH   6   9
ATOM      9  C   UNL     1      47.633   8.012  20.715  0.00  0.00    +0.000 C 
BRANCH   9  10
ATOM     10  N   UNL     1      48.518   9.151  20.603  0.00  0.00    +0.000 N 
ATOM     11  C   UNL     1      48.065  10.348  20.103  0.00  0.00    +0.000 C 
ATOM     12  O   UNL     1      46.912  10.500  19.703  0.00  0.00    +0.000 OA
ATOM     13  H   UNL     1      49.382   9.130  21.134  0.00  0.00    +0.000 HD
BRANCH  11  14
ATOM     14  C   UNL     1      49.084  11.477  19.999  0.00  0.00    +0.000 C 
ATOM     15  C   UNL     1      49.782  11.515  18.658  0.00  0.00    +0.000 C 
ATOM     16  C   UNL     1      51.002  10.643  18.865  0.00  0.00    +0.000 C 
ATOM     17  O   UNL     1      51.254  10.577  20.277  0.00  0.00    +0.000 OA
ATOM     18  C   UNL     1      50.237  11.325  20.964  0.00  0.00    +0.000 C 
ENDBRANCH  11  14
ENDBRANCH   9  10
ENDBRANCH   6   9
ENDBRANCH   2   3
BRANCH   2  19
ATOM     19  N   UNL     1      47.175   4.855  15.114  0.00  0.00    +0.000 N 
ATOM     20  C   UNL     1      47.493   5.605  14.011  0.00  0.00    +0.000 C 
ATOM     21  O   UNL     1      48.643   5.931  13.736  0.00  0.00    +0.000 OA
ATOM     22  H   UNL     1      46.212   4.883  15.435  0.00  0.00    +0.000 HD
BRANCH  20  23
ATOM     23  C   UNL     1      46.376   5.943  13.120  0.00  0.00    +0.000 A 
ATOM     24  C   UNL     1      46.115   7.274  12.822  0.00  0.00    +0.000 A 
ATOM     25  S   UNL     1      44.793   7.490  11.766  0.00  0.00    +0.000 S 
ATOM     26  C   UNL     1      44.500   5.815  11.702  0.00  0.00    +0.000 A 
ATOM     27  N   UNL     1      43.461   5.313  10.981  0.00  0.00    +0.000 NA
ATOM     28  C   UNL     1      43.337   4.029  11.049  0.00  0.00    +0.000 A 
ATOM     29  N   UNL     1      44.168   3.199  11.756  0.00  0.00    +0.000 N 
ATOM     30  C   UNL     1      45.255   3.657  12.461  0.00  0.00    +0.000 A 
ATOM     31  O   UNL     1      46.027   2.888  13.022  0.00  0.00    +0.000 OA
ATOM     32  C   UNL     1      45.419   5.099  12.449  0.00  0.00    +0.000 A 
ATOM     33  H   UNL     1      44.028   2.201  11.750  0.00  0.00    +0.000 HD
ENDBRANCH  20  23
ENDBRANCH   2  19
TORSDOF 6
ENDMDL
