MODEL 1
REMARK VINA RESULT:    -8.554      0.000      0.000
REMARK INTER + INTRA:         -12.480
REMARK INTER:                 -11.554
REMARK INTRA:                  -0.925
REMARK UNBOUND:                -0.925
REMARK  Name = 
REMARK  6 active torsions:
REMARK  status: ('A' for Active; 'I' for Inactive)
REMARK    1  A    between atoms: C_2  and  C_25
REMARK    2  A    between atoms: N_3  and  C_4
REMARK    3  A    between atoms: C_4  and  C_5
REMARK    4  A    between atoms: C_8  and  C_9
REMARK    5  A    between atoms: C_9  and  N_10
REMARK    6  A    between atoms: C_11  and  C_13
REMARK                            x       y       z     vdW  Elec       q    Type
REMARK                         _______ _______ _______ _____ _____    ______ ____
ROOT
ATOM      1  C   UNL     1      44.875   6.199  11.225  0.00  0.00    +0.000 A 
ATOM      2  C   UNL     1      44.469   7.480  11.598  0.00  0.00    +0.000 A 
ATOM      3  C   UNL     1      45.286   8.237  12.439  0.00  0.00    +0.000 A 
ATOM      4  C   UNL     1      46.483   7.701  12.916  0.00  0.00    +0.000 A 
ATOM      5  C   UNL     1      46.806   6.415  12.496  0.00  0.00    +0.000 A 
ATOM      6  N   UNL     1      46.038   5.658  11.671  0.00  0.00    +0.000 NA
ENDROOT
BRANCH   1   7
ATOM      7  C   UNL     1      44.030   5.381  10.270  0.00  0.00    +0.000 C 
BRANCH   7  10
ATOM      8  O   UNL     1      44.332   2.569  10.192  0.00  0.00    +0.000 OA
ATOM      9  C   UNL     1      44.887   3.256   9.337  0.00  0.00    +0.000 C 
ATOM     10  N   UNL     1      44.801   4.627   9.303  0.00  0.00    +0.000 N 
ATOM     11  H   UNL     1      45.323   5.117   8.580  0.00  0.00    +0.000 HD
BRANCH   9  12
ATOM     12  C   UNL     1      45.702   2.623   8.246  0.00  0.00    +0.000 A 
ATOM     13  C   UNL     1      46.017   3.372   7.119  0.00  0.00    +0.000 A 
ATOM     14  C   UNL     1      46.784   2.778   6.122  0.00  0.00    +0.000 A 
ATOM     15  C   UNL     1      47.203   1.462   6.283  0.00  0.00    +0.000 A 
ATOM     16  C   UNL     1      46.838   0.789   7.439  0.00  0.00    +0.000 A 
ATOM     17  N   UNL     1      46.099   1.333   8.434  0.00  0.00    +0.000 NA
ENDBRANCH   9  12
ENDBRANCH   7  10
ENDBRANCH   1   7
BRANCH   4  18
ATOM     18  C   UNL     1      47.393   8.481  13.822  0.00  0.00    +0.000 C 
BRANCH  18  19
ATOM     19  N   UNL     1      47.771   7.722  14.990  0.00  0.00    +0.000 N 
ATOM     20  C   UNL     1      48.956   7.032  15.048  0.00  0.00    +0.000 C 
ATOM     21  O   UNL     1      49.777   7.063  14.135  0.00  0.00    +0.000 OA
ATOM     22  H   UNL     1      47.031   7.484  15.642  0.00  0.00    +0.000 HD
BRANCH  20  23
ATOM     23  C   UNL     1      49.218   6.286  16.288  0.00  0.00    +0.000 A 
ATOM     24  C   UNL     1      50.221   6.704  17.153  0.00  0.00    +0.000 A 
ATOM     25  S   UNL     1      50.358   5.742  18.557  0.00  0.00    +0.000 S 
ATOM     26  C   UNL     1      49.111   4.708  18.036  0.00  0.00    +0.000 A 
ATOM     27  N   UNL     1      48.736   3.633  18.781  0.00  0.00    +0.000 NA
ATOM     28  C   UNL     1      47.790   2.926  18.257  0.00  0.00    +0.000 A 
ATOM     29  N   UNL     1      47.183   3.199  17.060  0.00  0.00    +0.000 N 
ATOM     30  C   UNL     1      47.511   4.286  16.288  0.00  0.00    +0.000 A 
ATOM     31  O   UNL     1      46.915   4.530  15.243  0.00  0.00    +0.000 OA
ATOM     32  C   UNL     1      48.581   5.106  16.823  0.00  0.00    +0.000 A 
ATOM     33  H   UNL     1      46.434   2.616  16.714  0.00  0.00    +0.000 HD
ENDBRANCH  20  23
ENDBRANCH  18  19
ENDBRANCH   4  18
TORSDOF 6
ENDMDL
MODEL 2
REMARK VINA RESULT:    -7.693      1.780      2.111
REMARK INTER + INTRA:         -11.317
REMARK INTER:                 -10.364
REMARK INTRA:                  -0.953
REMARK UNBOUND:                -0.925
REMARK  Name = 
REMARK  6 active torsions:
REMARK  status: ('A' for Active; 'I' for Inactive)
REMARK    1  A    between atoms: C_2  and  C_25
REMARK    2  A    between atoms: N_3  and  C_4
REMARK    3  A    between atoms: C_4  and  C_5
REMARK    4  A    between atoms: C_8  and  C_9
REMARK    5  A    between atoms: C_9  and  N_10
REMARK    6  A    between atoms: C_11  and  C_13
REMARK                            x       y       z     vdW  Elec       q    Type
REMARK                         _______ _______ _______ _____ _____    ______ ____
ROOT
ATOM      1  C   UNL     1      45.104   6.109  11.418  0.00  0.00    +0.000 A 
ATOM      2  C   UNL     1      45.031   7.502  11.422  0.00  0.00    +0.000 A 
ATOM      3  C   UNL     1      45.888   8.229  12.249  0.00  0.00    +0.000 A 
ATOM      4  C   UNL     1      46.788   7.559  13.080  0.00  0.00    +0.000 A 
ATOM      5  C   UNL     1      46.789   6.170  13.013  0.00  0.00    +0.000 A 
ATOM      6  N   UNL     1      45.976   5.436  12.212  0.00  0.00    +0.000 NA
ENDROOT
BRANCH   1   7
ATOM      7  C   UNL     1      44.221   5.303  10.487  0.00  0.00    +0.000 C 
BRANCH   7  10
ATOM      8  O   UNL     1      44.465   2.497  10.225  0.00  0.00    +0.000 OA
ATOM      9  C   UNL     1      45.009   3.226   9.398  0.00  0.00    +0.000 C 
ATOM     10  N   UNL     1      44.949   4.598   9.453  0.00  0.00    +0.000 N 
ATOM     11  H   UNL     1      45.459   5.123   8.746  0.00  0.00    +0.000 HD
BRANCH   9  12
ATOM     12  C   UNL     1      45.779   2.649   8.246  0.00  0.00    +0.000 A 
ATOM     13  C   UNL     1      46.008   3.438   7.125  0.00  0.00    +0.000 A 
ATOM     14  C   UNL     1      46.735   2.896   6.071  0.00  0.00    +0.000 A 
ATOM     15  C   UNL     1      47.201   1.588   6.170  0.00  0.00    +0.000 A 
ATOM     16  C   UNL     1      46.921   0.873   7.324  0.00  0.00    +0.000 A 
ATOM     17  N   UNL     1      46.223   1.367   8.374  0.00  0.00    +0.000 NA
ENDBRANCH   9  12
ENDBRANCH   7  10
ENDBRANCH   1   7
BRANCH   4  18
ATOM     18  C   UNL     1      47.730   8.301  13.985  0.00  0.00    +0.000 C 
BRANCH  18  19
ATOM     19  N   UNL     1      47.883   7.642  15.261  0.00  0.00    +0.000 N 
ATOM     20  C   UNL     1      49.092   7.134  15.667  0.00  0.00    +0.000 C 
ATOM     21  O   UNL     1      50.113   7.257  14.996  0.00  0.00    +0.000 OA
ATOM     22  H   UNL     1      47.036   7.319  15.715  0.00  0.00    +0.000 HD
BRANCH  20  23
ATOM     23  C   UNL     1      49.114   6.473  16.981  0.00  0.00    +0.000 A 
ATOM     24  C   UNL     1      49.682   5.213  17.117  0.00  0.00    +0.000 A 
ATOM     25  S   UNL     1      49.651   4.617  18.716  0.00  0.00    +0.000 S 
ATOM     26  C   UNL     1      48.837   6.003  19.275  0.00  0.00    +0.000 A 
ATOM     27  N   UNL     1      48.476   6.125  20.581  0.00  0.00    +0.000 NA
ATOM     28  C   UNL     1      47.850   7.221  20.860  0.00  0.00    +0.000 A 
ATOM     29  N   UNL     1      47.556   8.205  19.955  0.00  0.00    +0.000 N 
ATOM     30  C   UNL     1      47.923   8.136  18.633  0.00  0.00    +0.000 A 
ATOM     31  O   UNL     1      47.687   9.057  17.857  0.00  0.00    +0.000 OA
ATOM     32  C   UNL     1      48.616   6.918  18.261  0.00  0.00    +0.000 A 
ATOM     33  H   UNL     1      47.080   9.047  20.242  0.00  0.00    +0.000 HD
ENDBRANCH  20  23
ENDBRANCH  18  19
ENDBRANCH   4  18
TORSDOF 6
ENDMDL
MODEL 3
REMARK VINA RESULT:    -7.257      2.289      2.941
REMARK INTER + INTRA:         -10.728
REMARK INTER:                 -10.421
REMARK INTRA:                  -0.307
REMARK UNBOUND:                -0.925
REMARK  Name = 
REMARK  6 active torsions:
REMARK  status: ('A' for Active; 'I' for Inactive)
REMARK    1  A    between atoms: C_2  and  C_25
REMARK    2  A    between atoms: N_3  and  C_4
REMARK    3  A    between atoms: C_4  and  C_5
REMARK    4  A    between atoms: C_8  and  C_9
REMARK    5  A    between atoms: C_9  and  N_10
REMARK    6  A    between atoms: C_11  and  C_13
REMARK                            x       y       z     vdW  Elec       q    Type
REMARK                         _______ _______ _______ _____ _____    ______ ____
ROOT
ATOM      1  C   UNL     1      44.621   4.760  11.925  0.00  0.00    +0.000 A 
ATOM      2  C   UNL     1      43.991   5.920  11.478  0.00  0.00    +0.000 A 
ATOM      3  C   UNL     1      44.472   7.162  11.895  0.00  0.00    +0.000 A 
ATOM      4  C   UNL     1      45.558   7.231  12.770  0.00  0.00    +0.000 A 
ATOM      5  C   UNL     1      46.121   6.023  13.166  0.00  0.00    +0.000 A 
ATOM      6  N   UNL     1      45.683   4.800  12.770  0.00  0.00    +0.000 NA
ENDROOT
BRANCH   1   7
ATOM      7  C   UNL     1      44.148   3.403  11.441  0.00  0.00    +0.000 C 
BRANCH   7  10
ATOM      8  O   UNL     1      44.143   4.229   8.735  0.00  0.00    +0.000 OA
ATOM      9  C   UNL     1      44.892   3.318   9.082  0.00  0.00    +0.000 C 
ATOM     10  N   UNL     1      44.954   2.849  10.372  0.00  0.00    +0.000 N 
ATOM     11  H   UNL     1      45.577   2.067  10.563  0.00  0.00    +0.000 HD
BRANCH   9  12
ATOM     12  C   UNL     1      45.813   2.657   8.099  0.00  0.00    +0.000 A 
ATOM     13  C   UNL     1      46.263   3.383   7.003  0.00  0.00    +0.000 A 
ATOM     14  C   UNL     1      47.127   2.763   6.106  0.00  0.00    +0.000 A 
ATOM     15  C   UNL     1      47.506   1.444   6.333  0.00  0.00    +0.000 A 
ATOM     16  C   UNL     1      47.005   0.795   7.450  0.00  0.00    +0.000 A 
ATOM     17  N   UNL     1      46.168   1.365   8.349  0.00  0.00    +0.000 NA
ENDBRANCH   9  12
ENDBRANCH   7  10
ENDBRANCH   1   7
BRANCH   4  18
ATOM     18  C   UNL     1      46.110   8.546  13.243  0.00  0.00    +0.000 C 
BRANCH  18  19
ATOM     19  N   UNL     1      47.465   8.419  13.726  0.00  0.00    +0.000 N 
ATOM     20  C   UNL     1      48.544   8.612  12.900  0.00  0.00    +0.000 C 
ATOM     21  O   UNL     1      48.417   8.951  11.726  0.00  0.00    +0.000 OA
ATOM     22  H   UNL     1      47.596   7.918  14.598  0.00  0.00    +0.000 HD
BRANCH  20  23
ATOM     23  C   UNL     1      49.871   8.440  13.509  0.00  0.00    +0.000 A 
ATOM     24  C   UNL     1      50.974   9.092  12.972  0.00  0.00    +0.000 A 
ATOM     25  S   UNL     1      52.422   8.805  13.828  0.00  0.00    +0.000 S 
ATOM     26  C   UNL     1      51.635   7.764  14.920  0.00  0.00    +0.000 A 
ATOM     27  N   UNL     1      52.324   7.142  15.915  0.00  0.00    +0.000 NA
ATOM     28  C   UNL     1      51.603   6.368  16.658  0.00  0.00    +0.000 A 
ATOM     29  N   UNL     1      50.259   6.163  16.499  0.00  0.00    +0.000 N 
ATOM     30  C   UNL     1      49.519   6.788  15.525  0.00  0.00    +0.000 A 
ATOM     31  O   UNL     1      48.306   6.620  15.438  0.00  0.00    +0.000 OA
ATOM     32  C   UNL     1      50.283   7.658  14.651  0.00  0.00    +0.000 A 
ATOM     33  H   UNL     1      49.749   5.559  17.126  0.00  0.00    +0.000 HD
ENDBRANCH  20  23
ENDBRANCH  18  19
ENDBRANCH   4  18
TORSDOF 6
ENDMDL
MODEL 4
REMARK VINA RESULT:    -7.211      3.181      8.594
REMARK INTER + INTRA:         -10.666
REMARK INTER:                  -9.774
REMARK INTRA:                  -0.892
REMARK UNBOUND:                -0.925
REMARK  Name = 
REMARK  6 active torsions:
REMARK  status: ('A' for Active; 'I' for Inactive)
REMARK    1  A    between atoms: C_2  and  C_25
REMARK    2  A    between atoms: N_3  and  C_4
REMARK    3  A    between atoms: C_4  and  C_5
REMARK    4  A    between atoms: C_8  and  C_9
REMARK    5  A    between atoms: C_9  and  N_10
REMARK    6  A    between atoms: C_11  and  C_13
REMARK                            x       y       z     vdW  Elec       q    Type
REMARK                         _______ _______ _______ _____ _____    ______ ____
ROOT
ATOM      1  C   UNL     1      49.791   7.416  15.424  0.00  0.00    +0.000 A 
ATOM      2  C   UNL     1      49.811   8.618  14.718  0.00  0.00    +0.000 A 
ATOM      3  C   UNL     1      49.016   8.755  13.579  0.00  0.00    +0.000 A 
ATOM      4  C   UNL     1      48.232   7.685  13.145  0.00  0.00    +0.000 A 
ATOM      5  C   UNL     1      48.277   6.524  13.908  0.00  0.00    +0.000 A 
ATOM      6  N   UNL     1      49.032   6.364  15.025  0.00  0.00    +0.000 NA
ENDROOT
BRANCH   1   7
ATOM      7  C   UNL     1      50.606   7.265  16.693  0.00  0.00    +0.000 C 
BRANCH   7  10
ATOM      8  O   UNL     1      49.524   5.160  18.243  0.00  0.00    +0.000 OA
ATOM      9  C   UNL     1      50.579   4.978  17.637  0.00  0.00    +0.000 C 
ATOM     10  N   UNL     1      51.178   5.947  16.869  0.00  0.00    +0.000 N 
ATOM     11  H   UNL     1      52.070   5.721  16.432  0.00  0.00    +0.000 HD
BRANCH   9  12
ATOM     12  C   UNL     1      51.284   3.655  17.693  0.00  0.00    +0.000 A 
ATOM     13  C   UNL     1      52.570   3.598  18.219  0.00  0.00    +0.000 A 
ATOM     14  C   UNL     1      53.207   2.363  18.278  0.00  0.00    +0.000 A 
ATOM     15  C   UNL     1      52.543   1.234  17.808  0.00  0.00    +0.000 A 
ATOM     16  C   UNL     1      51.264   1.385  17.296  0.00  0.00    +0.000 A 
ATOM     17  N   UNL     1      50.607   2.568  17.228  0.00  0.00    +0.000 NA
ENDBRANCH   9  12
ENDBRANCH   7  10
ENDBRANCH   1   7
BRANCH   4  18
ATOM     18  C   UNL     1      47.360   7.789  11.926  0.00  0.00    +0.000 C 
BRANCH  18  19
ATOM     19  N   UNL     1      46.692   6.542  11.634  0.00  0.00    +0.000 N 
ATOM     20  C   UNL     1      45.323   6.439  11.650  0.00  0.00    +0.000 C 
ATOM     21  O   UNL     1      44.595   7.406  11.861  0.00  0.00    +0.000 OA
ATOM     22  H   UNL     1      47.249   5.697  11.694  0.00  0.00    +0.000 HD
BRANCH  20  23
ATOM     23  C   UNL     1      44.765   5.112  11.349  0.00  0.00    +0.000 A 
ATOM     24  C   UNL     1      43.972   4.462  12.287  0.00  0.00    +0.000 A 
ATOM     25  S   UNL     1      43.383   2.951  11.753  0.00  0.00    +0.000 S 
ATOM     26  C   UNL     1      44.203   3.093  10.269  0.00  0.00    +0.000 A 
ATOM     27  N   UNL     1      44.141   2.104   9.337  0.00  0.00    +0.000 NA
ATOM     28  C   UNL     1      44.825   2.338   8.266  0.00  0.00    +0.000 A 
ATOM     29  N   UNL     1      45.561   3.470   8.042  0.00  0.00    +0.000 N 
ATOM     30  C   UNL     1      45.633   4.504   8.943  0.00  0.00    +0.000 A 
ATOM     31  O   UNL     1      46.263   5.527   8.691  0.00  0.00    +0.000 OA
ATOM     32  C   UNL     1      44.894   4.286  10.172  0.00  0.00    +0.000 A 
ATOM     33  H   UNL     1      46.060   3.601   7.174  0.00  0.00    +0.000 HD
ENDBRANCH  20  23
ENDBRANCH  18  19
ENDBRANCH   4  18
TORSDOF 6
ENDMDL
MODEL 5
REMARK VINA RESULT:    -7.026      3.607      8.415
REMARK INTER + INTRA:         -10.416
REMARK INTER:                  -9.474
REMARK INTRA:                  -0.942
REMARK UNBOUND:                -0.925
REMARK  Name = 
REMARK  6 active torsions:
REMARK  status: ('A' for Active; 'I' for Inactive)
REMARK    1  A    between atoms: C_2  and  C_25
REMARK    2  A    between atoms: N_3  and  C_4
REMARK    3  A    between atoms: C_4  and  C_5
REMARK    4  A    between atoms: C_8  and  C_9
REMARK    5  A    between atoms: C_9  and  N_10
REMARK    6  A    between atoms: C_11  and  C_13
REMARK                            x       y       z     vdW  Elec       q    Type
REMARK                         _______ _______ _______ _____ _____    ______ ____
ROOT
ATOM      1  C   UNL     1      49.629   6.615  16.262  0.00  0.00    +0.000 A 
ATOM      2  C   UNL     1      50.310   7.650  15.624  0.00  0.00    +0.000 A 
ATOM      3  C   UNL     1      49.911   8.046  14.347  0.00  0.00    +0.000 A 
ATOM      4  C   UNL     1      48.854   7.390  13.713  0.00  0.00    +0.000 A 
ATOM      5  C   UNL     1      48.236   6.366  14.423  0.00  0.00    +0.000 A 
ATOM      6  N   UNL     1      48.595   5.965  15.669  0.00  0.00    +0.000 NA
ENDROOT
BRANCH   1   7
ATOM      7  C   UNL     1      50.012   6.205  17.670  0.00  0.00    +0.000 C 
BRANCH   7  10
ATOM      8  O   UNL     1      49.503   3.425  17.793  0.00  0.00    +0.000 OA
ATOM      9  C   UNL     1      50.667   3.821  17.776  0.00  0.00    +0.000 C 
ATOM     10  N   UNL     1      51.005   5.152  17.725  0.00  0.00    +0.000 N 
ATOM     11  H   UNL     1      51.995   5.391  17.750  0.00  0.00    +0.000 HD
BRANCH   9  12
ATOM     12  C   UNL     1      51.814   2.853  17.798  0.00  0.00    +0.000 A 
ATOM     13  C   UNL     1      51.582   1.526  17.454  0.00  0.00    +0.000 A 
ATOM     14  C   UNL     1      52.656   0.642  17.465  0.00  0.00    +0.000 A 
ATOM     15  C   UNL     1      53.917   1.112  17.821  0.00  0.00    +0.000 A 
ATOM     16  C   UNL     1      54.054   2.450  18.154  0.00  0.00    +0.000 A 
ATOM     17  N   UNL     1      53.036   3.343  18.149  0.00  0.00    +0.000 NA
ENDBRANCH   9  12
ENDBRANCH   7  10
ENDBRANCH   1   7
BRANCH   4  18
ATOM     18  C   UNL     1      48.389   7.784  12.340  0.00  0.00    +0.000 C 
BRANCH  18  19
ATOM     19  N   UNL     1      47.639   6.728  11.701  0.00  0.00    +0.000 N 
ATOM     20  C   UNL     1      46.290   6.839  11.477  0.00  0.00    +0.000 C 
ATOM     21  O   UNL     1      45.660   7.855  11.760  0.00  0.00    +0.000 OA
ATOM     22  H   UNL     1      48.068   5.809  11.679  0.00  0.00    +0.000 HD
BRANCH  20  23
ATOM     23  C   UNL     1      45.639   5.689  10.832  0.00  0.00    +0.000 A 
ATOM     24  C   UNL     1      45.730   5.519   9.456  0.00  0.00    +0.000 A 
ATOM     25  S   UNL     1      44.946   4.114   8.887  0.00  0.00    +0.000 S 
ATOM     26  C   UNL     1      44.420   3.706  10.454  0.00  0.00    +0.000 A 
ATOM     27  N   UNL     1      43.659   2.600  10.672  0.00  0.00    +0.000 NA
ATOM     28  C   UNL     1      43.317   2.423  11.905  0.00  0.00    +0.000 A 
ATOM     29  N   UNL     1      43.672   3.248  12.940  0.00  0.00    +0.000 N 
ATOM     30  C   UNL     1      44.460   4.360  12.771  0.00  0.00    +0.000 A 
ATOM     31  O   UNL     1      44.800   5.052  13.725  0.00  0.00    +0.000 OA
ATOM     32  C   UNL     1      44.858   4.615  11.400  0.00  0.00    +0.000 A 
ATOM     33  H   UNL     1      43.388   3.043  13.886  0.00  0.00    +0.000 HD
ENDBRANCH  20  23
ENDBRANCH  18  19
ENDBRANCH   4  18
TORSDOF 6
ENDMDL
MODEL 6
REMARK VINA RESULT:    -6.889      2.174      3.296
REMARK INTER + INTRA:         -10.231
REMARK INTER:                  -9.981
REMARK INTRA:                  -0.250
REMARK UNBOUND:                -0.925
REMARK  Name = 
REMARK  6 active torsions:
REMARK  status: ('A' for Active; 'I' for Inactive)
REMARK    1  A    between atoms: C_2  and  C_25
REMARK    2  A    between atoms: N_3  and  C_4
REMARK    3  A    between atoms: C_4  and  C_5
REMARK    4  A    between atoms: C_8  and  C_9
REMARK    5  A    between atoms: C_9  and  N_10
REMARK    6  A    between atoms: C_11  and  C_13
REMARK                            x       y       z     vdW  Elec       q    Type
REMARK                         _______ _______ _______ _____ _____    ______ ____
ROOT
ATOM      1  C   UNL     1      44.369   4.773  11.766  0.00  0.00    +0.000 A 
ATOM      2  C   UNL     1      43.984   5.972  11.169  0.00  0.00    +0.000 A 
ATOM      3  C   UNL     1      44.544   7.169  11.617  0.00  0.00    +0.000 A 
ATOM      4  C   UNL     1      45.461   7.158  12.671  0.00  0.00    +0.000 A 
ATOM      5  C   UNL     1      45.783   5.917  13.208  0.00  0.00    +0.000 A 
ATOM      6  N   UNL     1      45.263   4.735  12.787  0.00  0.00    +0.000 NA
ENDROOT
BRANCH   1   7
ATOM      7  C   UNL     1      43.814   3.457  11.258  0.00  0.00    +0.000 C 
BRANCH   7  10
ATOM      8  O   UNL     1      44.181   4.321   8.588  0.00  0.00    +0.000 OA
ATOM      9  C   UNL     1      44.769   3.314   8.979  0.00  0.00    +0.000 C 
ATOM     10  N   UNL     1      44.642   2.820  10.255  0.00  0.00    +0.000 N 
ATOM     11  H   UNL     1      45.138   1.960  10.481  0.00  0.00    +0.000 HD
BRANCH   9  12
ATOM     12  C   UNL     1      45.689   2.554   8.069  0.00  0.00    +0.000 A 
ATOM     13  C   UNL     1      46.106   3.148   6.884  0.00  0.00    +0.000 A 
ATOM     14  C   UNL     1      46.970   2.439   6.056  0.00  0.00    +0.000 A 
ATOM     15  C   UNL     1      47.381   1.165   6.437  0.00  0.00    +0.000 A 
ATOM     16  C   UNL     1      46.911   0.650   7.635  0.00  0.00    +0.000 A 
ATOM     17  N   UNL     1      46.075   1.311   8.471  0.00  0.00    +0.000 NA
ENDBRANCH   9  12
ENDBRANCH   7  10
ENDBRANCH   1   7
BRANCH   4  18
ATOM     18  C   UNL     1      46.090   8.422  13.184  0.00  0.00    +0.000 C 
BRANCH  18  19
ATOM     19  N   UNL     1      47.012   8.164  14.265  0.00  0.00    +0.000 N 
ATOM     20  C   UNL     1      48.331   7.865  14.029  0.00  0.00    +0.000 C 
ATOM     21  O   UNL     1      48.807   7.850  12.896  0.00  0.00    +0.000 OA
ATOM     22  H   UNL     1      46.610   7.935  15.168  0.00  0.00    +0.000 HD
BRANCH  20  23
ATOM     23  C   UNL     1      49.164   7.609  15.214  0.00  0.00    +0.000 A 
ATOM     24  C   UNL     1      48.942   6.478  15.990  0.00  0.00    +0.000 A 
ATOM     25  S   UNL     1      50.025   6.325  17.300  0.00  0.00    +0.000 S 
ATOM     26  C   UNL     1      50.800   7.786  16.902  0.00  0.00    +0.000 A 
ATOM     27  N   UNL     1      51.827   8.263  17.657  0.00  0.00    +0.000 NA
ATOM     28  C   UNL     1      52.309   9.391  17.249  0.00  0.00    +0.000 A 
ATOM     29  N   UNL     1      51.862  10.080  16.153  0.00  0.00    +0.000 N 
ATOM     30  C   UNL     1      50.847   9.625  15.348  0.00  0.00    +0.000 A 
ATOM     31  O   UNL     1      50.501  10.243  14.346  0.00  0.00    +0.000 OA
ATOM     32  C   UNL     1      50.258   8.369  15.771  0.00  0.00    +0.000 A 
ATOM     33  H   UNL     1      52.295  10.948  15.876  0.00  0.00    +0.000 HD
ENDBRANCH  20  23
ENDBRANCH  18  19
ENDBRANCH   4  18
TORSDOF 6
ENDMDL
MODEL 7
REMARK VINA RESULT:    -6.570      1.596      2.340
REMARK INTER + INTRA:          -9.800
REMARK INTER:                  -8.926
REMARK INTRA:                  -0.873
REMARK UNBOUND:                -0.925
REMARK  Name = 
REMARK  6 active torsions:
REMARK  status: ('A' for Active; 'I' for Inactive)
REMARK    1  A    between atoms: C_2  and  C_25
REMARK    2  A    between atoms: N_3  and  C_4
REMARK    3  A    between atoms: C_4  and  C_5
REMARK    4  A    between atoms: C_8  and  C_9
REMARK    5  A    between atoms: C_9  and  N_10
REMARK    6  A    between atoms: C_11  and  C_13
REMARK                            x       y       z     vdW  Elec       q    Type
REMARK                         _______ _______ _______ _____ _____    ______ ____
ROOT
ATOM      1  C   UNL     1      46.396   7.332  12.270  0.00  0.00    +0.000 A 
ATOM      2  C   UNL     1      47.653   6.731  12.283  0.00  0.00    +0.000 A 
ATOM      3  C   UNL     1      48.668   7.286  13.064  0.00  0.00    +0.000 A 
ATOM      4  C   UNL     1      48.424   8.446  13.801  0.00  0.00    +0.000 A 
ATOM      5  C   UNL     1      47.142   8.979  13.724  0.00  0.00    +0.000 A 
ATOM      6  N   UNL     1      46.132   8.457  12.983  0.00  0.00    +0.000 NA
ENDROOT
BRANCH   1   7
ATOM      7  C   UNL     1      45.265   6.715  11.472  0.00  0.00    +0.000 C 
BRANCH   7  10
ATOM      8  O   UNL     1      43.688   4.644  10.361  0.00  0.00    +0.000 OA
ATOM      9  C   UNL     1      44.862   4.758  10.011  0.00  0.00    +0.000 C 
ATOM     10  N   UNL     1      45.700   5.729  10.505  0.00  0.00    +0.000 N 
ATOM     11  H   UNL     1      46.667   5.726  10.186  0.00  0.00    +0.000 HD
BRANCH   9  12
ATOM     12  C   UNL     1      45.458   3.831   8.993  0.00  0.00    +0.000 A 
ATOM     13  C   UNL     1      45.454   2.463   9.242  0.00  0.00    +0.000 A 
ATOM     14  C   UNL     1      45.998   1.614   8.284  0.00  0.00    +0.000 A 
ATOM     15  C   UNL     1      46.527   2.158   7.118  0.00  0.00    +0.000 A 
ATOM     16  C   UNL     1      46.492   3.534   6.956  0.00  0.00    +0.000 A 
ATOM     17  N   UNL     1      45.966   4.393   7.861  0.00  0.00    +0.000 NA
ENDBRANCH   9  12
ENDBRANCH   7  10
ENDBRANCH   1   7
BRANCH   4  18
ATOM     18  C   UNL     1      49.487   9.076  14.656  0.00  0.00    +0.000 C 
BRANCH  18  19
ATOM     19  N   UNL     1      49.452   8.579  16.011  0.00  0.00    +0.000 N 
ATOM     20  C   UNL     1      50.268   7.554  16.422  0.00  0.00    +0.000 C 
ATOM     21  O   UNL     1      51.101   7.042  15.678  0.00  0.00    +0.000 OA
ATOM     22  H   UNL     1      48.633   8.807  16.564  0.00  0.00    +0.000 HD
BRANCH  20  23
ATOM     23  C   UNL     1      50.128   7.129  17.823  0.00  0.00    +0.000 A 
ATOM     24  C   UNL     1      50.672   7.901  18.842  0.00  0.00    +0.000 A 
ATOM     25  S   UNL     1      50.381   7.274  20.403  0.00  0.00    +0.000 S 
ATOM     26  C   UNL     1      49.556   5.927  19.769  0.00  0.00    +0.000 A 
ATOM     27  N   UNL     1      49.058   4.961  20.587  0.00  0.00    +0.000 NA
ATOM     28  C   UNL     1      48.472   3.989  19.969  0.00  0.00    +0.000 A 
ATOM     29  N   UNL     1      48.336   3.899  18.610  0.00  0.00    +0.000 N 
ATOM     30  C   UNL     1      48.800   4.861  17.747  0.00  0.00    +0.000 A 
ATOM     31  O   UNL     1      48.619   4.773  16.536  0.00  0.00    +0.000 OA
ATOM     32  C   UNL     1      49.481   5.969  18.389  0.00  0.00    +0.000 A 
ATOM     33  H   UNL     1      47.849   3.121  18.189  0.00  0.00    +0.000 HD
ENDBRANCH  20  23
ENDBRANCH  18  19
ENDBRANCH   4  18
TORSDOF 6
ENDMDL
MODEL 8
REMARK VINA RESULT:    -6.483      2.817      4.129
REMARK INTER + INTRA:          -9.682
REMARK INTER:                  -8.833
REMARK INTRA:                  -0.850
REMARK UNBOUND:                -0.925
REMARK  Name = 
REMARK  6 active torsions:
REMARK  status: ('A' for Active; 'I' for Inactive)
REMARK    1  A    between atoms: C_2  and  C_25
REMARK    2  A    between atoms: N_3  and  C_4
REMARK    3  A    between atoms: C_4  and  C_5
REMARK    4  A    between atoms: C_8  and  C_9
REMARK    5  A    between atoms: C_9  and  N_10
REMARK    6  A    between atoms: C_11  and  C_13
REMARK                            x       y       z     vdW  Elec       q    Type
REMARK                         _______ _______ _______ _____ _____    ______ ____
ROOT
ATOM      1  C   UNL     1      47.959   7.697  13.405  0.00  0.00    +0.000 A 
ATOM      2  C   UNL     1      47.934   8.840  14.202  0.00  0.00    +0.000 A 
ATOM      3  C   UNL     1      48.299   8.745  15.545  0.00  0.00    +0.000 A 
ATOM      4  C   UNL     1      48.660   7.508  16.083  0.00  0.00    +0.000 A 
ATOM      5  C   UNL     1      48.653   6.421  15.216  0.00  0.00    +0.000 A 
ATOM      6  N   UNL     1      48.313   6.484  13.903  0.00  0.00    +0.000 NA
ENDROOT
BRANCH   1   7
ATOM      7  C   UNL     1      47.619   7.789  11.931  0.00  0.00    +0.000 C 
BRANCH   7  10
ATOM      8  O   UNL     1      44.879   7.341  11.386  0.00  0.00    +0.000 OA
ATOM      9  C   UNL     1      45.692   6.450  11.146  0.00  0.00    +0.000 C 
ATOM     10  N   UNL     1      47.038   6.579  11.387  0.00  0.00    +0.000 N 
ATOM     11  H   UNL     1      47.634   5.776  11.191  0.00  0.00    +0.000 HD
BRANCH   9  12
ATOM     12  C   UNL     1      45.253   5.144  10.552  0.00  0.00    +0.000 A 
ATOM     13  C   UNL     1      45.533   4.883   9.216  0.00  0.00    +0.000 A 
ATOM     14  C   UNL     1      45.133   3.662   8.681  0.00  0.00    +0.000 A 
ATOM     15  C   UNL     1      44.468   2.751   9.495  0.00  0.00    +0.000 A 
ATOM     16  C   UNL     1      44.227   3.098  10.816  0.00  0.00    +0.000 A 
ATOM     17  N   UNL     1      44.606   4.272  11.375  0.00  0.00    +0.000 NA
ENDBRANCH   9  12
ENDBRANCH   7  10
ENDBRANCH   1   7
BRANCH   4  18
ATOM     18  C   UNL     1      49.062   7.359  17.523  0.00  0.00    +0.000 C 
BRANCH  18  19
ATOM     19  N   UNL     1      50.164   6.440  17.682  0.00  0.00    +0.000 N 
ATOM     20  C   UNL     1      50.093   5.373  18.543  0.00  0.00    +0.000 C 
ATOM     21  O   UNL     1      49.076   5.115  19.183  0.00  0.00    +0.000 OA
ATOM     22  H   UNL     1      51.074   6.755  17.364  0.00  0.00    +0.000 HD
BRANCH  20  23
ATOM     23  C   UNL     1      51.288   4.519  18.625  0.00  0.00    +0.000 A 
ATOM     24  C   UNL     1      52.418   4.967  19.297  0.00  0.00    +0.000 A 
ATOM     25  S   UNL     1      53.693   3.832  19.322  0.00  0.00    +0.000 S 
ATOM     26  C   UNL     1      52.794   2.720  18.399  0.00  0.00    +0.000 A 
ATOM     27  N   UNL     1      53.324   1.521  18.035  0.00  0.00    +0.000 NA
ATOM     28  C   UNL     1      52.537   0.785  17.321  0.00  0.00    +0.000 A 
ATOM     29  N   UNL     1      51.269   1.137  16.944  0.00  0.00    +0.000 N 
ATOM     30  C   UNL     1      50.684   2.325  17.308  0.00  0.00    +0.000 A 
ATOM     31  O   UNL     1      49.528   2.590  16.994  0.00  0.00    +0.000 OA
ATOM     32  C   UNL     1      51.531   3.197  18.098  0.00  0.00    +0.000 A 
ATOM     33  H   UNL     1      50.697   0.507  16.401  0.00  0.00    +0.000 HD
ENDBRANCH  20  23
ENDBRANCH  18  19
ENDBRANCH   4  18
TORSDOF 6
ENDMDL
MODEL 9
REMARK VINA RESULT:    -6.194      3.273      9.060
REMARK INTER + INTRA:          -9.292
REMARK INTER:                  -8.405
REMARK INTRA:                  -0.886
REMARK UNBOUND:                -0.925
REMARK  Name = 
REMARK  6 active torsions:
REMARK  status: ('A' for Active; 'I' for Inactive)
REMARK    1  A    between atoms: C_2  and  C_25
REMARK    2  A    between atoms: N_3  and  C_4
REMARK    3  A    between atoms: C_4  and  C_5
REMARK    4  A    between atoms: C_8  and  C_9
REMARK    5  A    between atoms: C_9  and  N_10
REMARK    6  A    between atoms: C_11  and  C_13
REMARK                            x       y       z     vdW  Elec       q    Type
REMARK                         _______ _______ _______ _____ _____    ______ ____
ROOT
ATOM      1  C   UNL     1      48.196   6.618  15.004  0.00  0.00    +0.000 A 
ATOM      2  C   UNL     1      47.990   7.796  14.287  0.00  0.00    +0.000 A 
ATOM      3  C   UNL     1      47.114   7.791  13.201  0.00  0.00    +0.000 A 
ATOM      4  C   UNL     1      46.475   6.607  12.827  0.00  0.00    +0.000 A 
ATOM      5  C   UNL     1      46.743   5.480  13.596  0.00  0.00    +0.000 A 
ATOM      6  N   UNL     1      47.581   5.456  14.664  0.00  0.00    +0.000 NA
ENDROOT
BRANCH   1   7
ATOM      7  C   UNL     1      49.101   6.615  16.219  0.00  0.00    +0.000 C 
BRANCH   7  10
ATOM      8  O   UNL     1      50.728   5.952  18.437  0.00  0.00    +0.000 OA
ATOM      9  C   UNL     1      50.560   5.121  17.547  0.00  0.00    +0.000 C 
ATOM     10  N   UNL     1      49.793   5.361  16.432  0.00  0.00    +0.000 N 
ATOM     11  H   UNL     1      49.739   4.628  15.727  0.00  0.00    +0.000 HD
BRANCH   9  12
ATOM     12  C   UNL     1      51.187   3.760  17.631  0.00  0.00    +0.000 A 
ATOM     13  C   UNL     1      50.419   2.644  17.319  0.00  0.00    +0.000 A 
ATOM     14  C   UNL     1      51.016   1.389  17.388  0.00  0.00    +0.000 A 
ATOM     15  C   UNL     1      52.351   1.293  17.769  0.00  0.00    +0.000 A 
ATOM     16  C   UNL     1      53.038   2.459  18.067  0.00  0.00    +0.000 A 
ATOM     17  N   UNL     1      52.495   3.699  18.006  0.00  0.00    +0.000 NA
ENDBRANCH   9  12
ENDBRANCH   7  10
ENDBRANCH   1   7
BRANCH   4  18
ATOM     18  C   UNL     1      45.523   6.556  11.666  0.00  0.00    +0.000 C 
BRANCH  18  19
ATOM     19  N   UNL     1      45.698   5.358  10.879  0.00  0.00    +0.000 N 
ATOM     20  C   UNL     1      44.638   4.741  10.263  0.00  0.00    +0.000 C 
ATOM     21  O   UNL     1      43.499   5.199  10.305  0.00  0.00    +0.000 OA
ATOM     22  H   UNL     1      46.556   4.836  11.021  0.00  0.00    +0.000 HD
BRANCH  20  23
ATOM     23  C   UNL     1      44.945   3.520   9.502  0.00  0.00    +0.000 A 
ATOM     24  C   UNL     1      44.297   2.330   9.805  0.00  0.00    +0.000 A 
ATOM     25  S   UNL     1      44.751   1.029   8.797  0.00  0.00    +0.000 S 
ATOM     26  C   UNL     1      45.863   2.000   7.950  0.00  0.00    +0.000 A 
ATOM     27  N   UNL     1      46.624   1.483   6.948  0.00  0.00    +0.000 NA
ATOM     28  C   UNL     1      47.436   2.330   6.406  0.00  0.00    +0.000 A 
ATOM     29  N   UNL     1      47.551   3.645   6.770  0.00  0.00    +0.000 N 
ATOM     30  C   UNL     1      46.786   4.215   7.757  0.00  0.00    +0.000 A 
ATOM     31  O   UNL     1      46.880   5.409   8.027  0.00  0.00    +0.000 OA
ATOM     32  C   UNL     1      45.868   3.304   8.412  0.00  0.00    +0.000 A 
ATOM     33  H   UNL     1      48.193   4.260   6.292  0.00  0.00    +0.000 HD
ENDBRANCH  20  23
ENDBRANCH  18  19
ENDBRANCH   4  18
TORSDOF 6
ENDMDL
