MODEL 1
REMARK VINA RESULT:    -6.778      0.000      0.000
REMARK INTER + INTRA:         -10.369
REMARK INTER:                  -9.353
REMARK INTRA:                  -1.015
REMARK UNBOUND:                -1.015
REMARK  Name = 
REMARK  7 active torsions:
REMARK  status: ('A' for Active; 'I' for Inactive)
REMARK    1  A    between atoms: N_1  and  C_2
REMARK    2  A    between atoms: C_2  and  C_3
REMARK    3  A    between atoms: N_7  and  C_8
REMARK    4  A    between atoms: C_8  and  C_9
REMARK    5  A    between atoms: C_12  and  C_13
REMARK    6  A    between atoms: C_13  and  N_14
REMARK    7  A    between atoms: C_15  and  C_17
REMARK                            x       y       z     vdW  Elec       q    Type
REMARK                         _______ _______ _______ _____ _____    ______ ____
ROOT
ATOM      1  C   UNL     1      51.390   3.355  17.482  0.00  0.00    +0.000 A 
ATOM      2  C   UNL     1      50.677   2.176  17.205  0.00  0.00    +0.000 A 
ATOM      3  C   UNL     1      49.286   2.194  17.058  0.00  0.00    +0.000 A 
ATOM      4  C   UNL     1      48.573   3.388  17.207  0.00  0.00    +0.000 A 
ATOM      5  C   UNL     1      49.271   4.547  17.574  0.00  0.00    +0.000 A 
ATOM      6  C   UNL     1      50.666   4.534  17.694  0.00  0.00    +0.000 A 
ENDROOT
BRANCH   1   7
ATOM      7  C   UNL     1      52.909   3.349  17.529  0.00  0.00    +0.000 C 
BRANCH   7  12
ATOM      8  C   UNL     1      55.761   1.939  19.679  0.00  0.00    +0.000 C 
ATOM      9  C   UNL     1      55.630   2.979  20.798  0.00  0.00    +0.000 C 
ATOM     10  C   UNL     1      54.165   3.207  21.137  0.00  0.00    +0.000 C 
ATOM     11  C   UNL     1      53.391   3.652  19.899  0.00  0.00    +0.000 C 
ATOM     12  N   UNL     1      53.506   2.736  18.750  0.00  0.00    +0.000 NA
ATOM     13  C   UNL     1      54.919   2.397  18.464  0.00  0.00    +0.000 C 
BRANCH   8  14
ATOM     14  C   UNL     1      55.408   0.509  20.133  0.00  0.00    +0.000 C 
BRANCH  14  15
ATOM     15  N   UNL     1      54.404  -0.104  19.256  0.00  0.00    +0.000 NA
ATOM     16  H   UNL     1      54.794  -0.944  18.831  0.00  0.00    +0.000 HD
ATOM     17  H   UNL     1      54.199   0.525  18.479  0.00  0.00    +0.000 HD
ENDBRANCH  14  15
ENDBRANCH   8  14
ENDBRANCH   7  12
ENDBRANCH   1   7
BRANCH   4  18
ATOM     18  C   UNL     1      47.085   3.426  16.978  0.00  0.00    +0.000 C 
BRANCH  18  19
ATOM     19  N   UNL     1      46.724   4.385  15.968  0.00  0.00    +0.000 N 
ATOM     20  C   UNL     1      46.918   4.109  14.636  0.00  0.00    +0.000 C 
ATOM     21  O   UNL     1      47.335   3.019  14.252  0.00  0.00    +0.000 OA
ATOM     22  H   UNL     1      46.598   5.346  16.269  0.00  0.00    +0.000 HD
BRANCH  20  23
ATOM     23  C   UNL     1      46.546   5.161  13.685  0.00  0.00    +0.000 A 
ATOM     24  C   UNL     1      47.449   6.176  13.395  0.00  0.00    +0.000 A 
ATOM     25  S   UNL     1      46.880   7.294  12.241  0.00  0.00    +0.000 S 
ATOM     26  C   UNL     1      45.382   6.495  12.127  0.00  0.00    +0.000 A 
ATOM     27  N   UNL     1      44.401   6.964  11.309  0.00  0.00    +0.000 NA
ATOM     28  C   UNL     1      43.305   6.281  11.343  0.00  0.00    +0.000 A 
ATOM     29  N   UNL     1      43.106   5.165  12.112  0.00  0.00    +0.000 N 
ATOM     30  C   UNL     1      44.077   4.638  12.930  0.00  0.00    +0.000 A 
ATOM     31  O   UNL     1      43.878   3.615  13.578  0.00  0.00    +0.000 OA
ATOM     32  C   UNL     1      45.326   5.377  12.941  0.00  0.00    +0.000 A 
ATOM     33  H   UNL     1      42.225   4.673  12.092  0.00  0.00    +0.000 HD
ENDBRANCH  20  23
ENDBRANCH  18  19
ENDBRANCH   4  18
TORSDOF 7
ENDMDL
MODEL 2
REMARK VINA RESULT:    -6.731      3.161      9.944
REMARK INTER + INTRA:         -10.304
REMARK INTER:                  -9.734
REMARK INTRA:                  -0.570
REMARK UNBOUND:                -1.015
REMARK  Name = 
REMARK  7 active torsions:
REMARK  status: ('A' for Active; 'I' for Inactive)
REMARK    1  A    between atoms: N_1  and  C_2
REMARK    2  A    between atoms: C_2  and  C_3
REMARK    3  A    between atoms: N_7  and  C_8
REMARK    4  A    between atoms: C_8  and  C_9
REMARK    5  A    between atoms: C_12  and  C_13
REMARK    6  A    between atoms: C_13  and  N_14
REMARK    7  A    between atoms: C_15  and  C_17
REMARK                            x       y       z     vdW  Elec       q    Type
REMARK                         _______ _______ _______ _____ _____    ______ ____
ROOT
ATOM      1  C   UNL     1      47.452   5.512  14.140  0.00  0.00    +0.000 A 
ATOM      2  C   UNL     1      47.125   4.451  15.001  0.00  0.00    +0.000 A 
ATOM      3  C   UNL     1      47.533   4.459  16.339  0.00  0.00    +0.000 A 
ATOM      4  C   UNL     1      48.297   5.518  16.840  0.00  0.00    +0.000 A 
ATOM      5  C   UNL     1      48.702   6.531  15.960  0.00  0.00    +0.000 A 
ATOM      6  C   UNL     1      48.271   6.536  14.629  0.00  0.00    +0.000 A 
ENDROOT
BRANCH   1   7
ATOM      7  C   UNL     1      46.912   5.551  12.720  0.00  0.00    +0.000 C 
BRANCH   7  12
ATOM      8  C   UNL     1      43.554   5.127  10.905  0.00  0.00    +0.000 C 
ATOM      9  C   UNL     1      43.660   3.605  10.754  0.00  0.00    +0.000 C 
ATOM     10  C   UNL     1      44.164   2.980  12.046  0.00  0.00    +0.000 C 
ATOM     11  C   UNL     1      45.515   3.575  12.437  0.00  0.00    +0.000 C 
ATOM     12  N   UNL     1      45.520   5.045  12.552  0.00  0.00    +0.000 NA
ATOM     13  C   UNL     1      44.925   5.685  11.357  0.00  0.00    +0.000 C 
BRANCH   8  14
ATOM     14  C   UNL     1      42.405   5.568  11.833  0.00  0.00    +0.000 C 
BRANCH  14  15
ATOM     15  N   UNL     1      42.845   5.659  13.230  0.00  0.00    +0.000 NA
ATOM     16  H   UNL     1      43.086   4.728  13.568  0.00  0.00    +0.000 HD
ATOM     17  H   UNL     1      42.068   5.969  13.814  0.00  0.00    +0.000 HD
ENDBRANCH  14  15
ENDBRANCH   8  14
ENDBRANCH   7  12
ENDBRANCH   1   7
BRANCH   4  18
ATOM     18  C   UNL     1      48.677   5.568  18.297  0.00  0.00    +0.000 C 
BRANCH  18  19
ATOM     19  N   UNL     1      49.786   4.700  18.591  0.00  0.00    +0.000 N 
ATOM     20  C   UNL     1      51.080   5.139  18.445  0.00  0.00    +0.000 C 
ATOM     21  O   UNL     1      51.341   6.297  18.130  0.00  0.00    +0.000 OA
ATOM     22  H   UNL     1      49.595   3.703  18.627  0.00  0.00    +0.000 HD
BRANCH  20  23
ATOM     23  C   UNL     1      52.141   4.171  18.740  0.00  0.00    +0.000 A 
ATOM     24  C   UNL     1      53.210   4.546  19.542  0.00  0.00    +0.000 A 
ATOM     25  S   UNL     1      54.333   3.294  19.822  0.00  0.00    +0.000 S 
ATOM     26  C   UNL     1      53.461   2.218  18.833  0.00  0.00    +0.000 A 
ATOM     27  N   UNL     1      53.904   0.950  18.623  0.00  0.00    +0.000 NA
ATOM     28  C   UNL     1      53.163   0.251  17.827  0.00  0.00    +0.000 A 
ATOM     29  N   UNL     1      52.015   0.703  17.234  0.00  0.00    +0.000 N 
ATOM     30  C   UNL     1      51.514   1.966  17.441  0.00  0.00    +0.000 A 
ATOM     31  O   UNL     1      50.461   2.327  16.922  0.00  0.00    +0.000 OA
ATOM     32  C   UNL     1      52.317   2.799  18.317  0.00  0.00    +0.000 A 
ATOM     33  H   UNL     1      51.478   0.106  16.622  0.00  0.00    +0.000 HD
ENDBRANCH  20  23
ENDBRANCH  18  19
ENDBRANCH   4  18
TORSDOF 7
ENDMDL
MODEL 3
REMARK VINA RESULT:    -6.671      4.198      5.764
REMARK INTER + INTRA:         -10.222
REMARK INTER:                  -9.227
REMARK INTRA:                  -0.995
REMARK UNBOUND:                -1.015
REMARK  Name = 
REMARK  7 active torsions:
REMARK  status: ('A' for Active; 'I' for Inactive)
REMARK    1  A    between atoms: N_1  and  C_2
REMARK    2  A    between atoms: C_2  and  C_3
REMARK    3  A    between atoms: N_7  and  C_8
REMARK    4  A    between atoms: C_8  and  C_9
REMARK    5  A    between atoms: C_12  and  C_13
REMARK    6  A    between atoms: C_13  and  N_14
REMARK    7  A    between atoms: C_15  and  C_17
REMARK                            x       y       z     vdW  Elec       q    Type
REMARK                         _______ _______ _______ _____ _____    ______ ____
ROOT
ATOM      1  C   UNL     1      48.851   8.076  15.920  0.00  0.00    +0.000 A 
ATOM      2  C   UNL     1      48.131   9.120  15.314  0.00  0.00    +0.000 A 
ATOM      3  C   UNL     1      47.744   9.041  13.972  0.00  0.00    +0.000 A 
ATOM      4  C   UNL     1      48.087   7.928  13.199  0.00  0.00    +0.000 A 
ATOM      5  C   UNL     1      48.884   6.929  13.775  0.00  0.00    +0.000 A 
ATOM      6  C   UNL     1      49.248   6.994  15.125  0.00  0.00    +0.000 A 
ENDROOT
BRANCH   1   7
ATOM      7  C   UNL     1      49.172   8.116  17.405  0.00  0.00    +0.000 C 
BRANCH   7  12
ATOM      8  C   UNL     1      49.521   5.011  19.637  0.00  0.00    +0.000 C 
ATOM      9  C   UNL     1      48.750   5.597  20.825  0.00  0.00    +0.000 C 
ATOM     10  C   UNL     1      47.505   6.322  20.341  0.00  0.00    +0.000 C 
ATOM     11  C   UNL     1      47.877   7.422  19.349  0.00  0.00    +0.000 C 
ATOM     12  N   UNL     1      48.671   6.957  18.197  0.00  0.00    +0.000 NA
ATOM     13  C   UNL     1      49.830   6.144  18.629  0.00  0.00    +0.000 C 
BRANCH   8  14
ATOM     14  C   UNL     1      48.805   3.816  18.976  0.00  0.00    +0.000 C 
BRANCH  14  15
ATOM     15  N   UNL     1      48.239   2.905  19.978  0.00  0.00    +0.000 NA
ATOM     16  H   UNL     1      48.230   1.957  19.604  0.00  0.00    +0.000 HD
ATOM     17  H   UNL     1      47.261   3.143  20.143  0.00  0.00    +0.000 HD
ENDBRANCH  14  15
ENDBRANCH   8  14
ENDBRANCH   7  12
ENDBRANCH   1   7
BRANCH   4  18
ATOM     18  C   UNL     1      47.610   7.805  11.775  0.00  0.00    +0.000 C 
BRANCH  18  19
ATOM     19  N   UNL     1      46.915   6.566  11.548  0.00  0.00    +0.000 N 
ATOM     20  C   UNL     1      45.549   6.493  11.674  0.00  0.00    +0.000 C 
ATOM     21  O   UNL     1      44.865   7.484  11.911  0.00  0.00    +0.000 OA
ATOM     22  H   UNL     1      47.469   5.715  11.578  0.00  0.00    +0.000 HD
BRANCH  20  23
ATOM     23  C   UNL     1      44.937   5.179  11.452  0.00  0.00    +0.000 A 
ATOM     24  C   UNL     1      44.227   4.569  12.478  0.00  0.00    +0.000 A 
ATOM     25  S   UNL     1      43.546   3.068  12.045  0.00  0.00    +0.000 S 
ATOM     26  C   UNL     1      44.222   3.150  10.486  0.00  0.00    +0.000 A 
ATOM     27  N   UNL     1      44.036   2.142   9.591  0.00  0.00    +0.000 NA
ATOM     28  C   UNL     1      44.630   2.319   8.457  0.00  0.00    +0.000 A 
ATOM     29  N   UNL     1      45.382   3.416   8.135  0.00  0.00    +0.000 N 
ATOM     30  C   UNL     1      45.572   4.472   8.995  0.00  0.00    +0.000 A 
ATOM     31  O   UNL     1      46.223   5.458   8.660  0.00  0.00    +0.000 OA
ATOM     32  C   UNL     1      44.938   4.318  10.291  0.00  0.00    +0.000 A 
ATOM     33  H   UNL     1      45.820   3.497   7.228  0.00  0.00    +0.000 HD
ENDBRANCH  20  23
ENDBRANCH  18  19
ENDBRANCH   4  18
TORSDOF 7
ENDMDL
MODEL 4
REMARK VINA RESULT:    -6.469      2.006      3.116
REMARK INTER + INTRA:          -9.942
REMARK INTER:                  -8.787
REMARK INTRA:                  -1.155
REMARK UNBOUND:                -1.015
REMARK  Name = 
REMARK  7 active torsions:
REMARK  status: ('A' for Active; 'I' for Inactive)
REMARK    1  A    between atoms: N_1  and  C_2
REMARK    2  A    between atoms: C_2  and  C_3
REMARK    3  A    between atoms: N_7  and  C_8
REMARK    4  A    between atoms: C_8  and  C_9
REMARK    5  A    between atoms: C_12  and  C_13
REMARK    6  A    between atoms: C_13  and  N_14
REMARK    7  A    between atoms: C_15  and  C_17
REMARK                            x       y       z     vdW  Elec       q    Type
REMARK                         _______ _______ _______ _____ _____    ______ ____
ROOT
ATOM      1  C   UNL     1      50.601   4.749  17.706  0.00  0.00    +0.000 A 
ATOM      2  C   UNL     1      49.218   4.905  17.510  0.00  0.00    +0.000 A 
ATOM      3  C   UNL     1      48.719   5.928  16.697  0.00  0.00    +0.000 A 
ATOM      4  C   UNL     1      49.588   6.833  16.081  0.00  0.00    +0.000 A 
ATOM      5  C   UNL     1      50.961   6.736  16.350  0.00  0.00    +0.000 A 
ATOM      6  C   UNL     1      51.463   5.696  17.141  0.00  0.00    +0.000 A 
ENDROOT
BRANCH   1   7
ATOM      7  C   UNL     1      51.143   3.570  18.498  0.00  0.00    +0.000 C 
BRANCH   7  12
ATOM      8  C   UNL     1      54.738   2.219  18.484  0.00  0.00    +0.000 C 
ATOM      9  C   UNL     1      54.344   0.754  18.267  0.00  0.00    +0.000 C 
ATOM     10  C   UNL     1      53.253   0.652  17.213  0.00  0.00    +0.000 C 
ATOM     11  C   UNL     1      52.036   1.479  17.620  0.00  0.00    +0.000 C 
ATOM     12  N   UNL     1      52.332   2.895  17.903  0.00  0.00    +0.000 NA
ATOM     13  C   UNL     1      53.472   3.035  18.838  0.00  0.00    +0.000 C 
BRANCH   8  14
ATOM     14  C   UNL     1      55.513   2.823  17.296  0.00  0.00    +0.000 C 
BRANCH  14  15
ATOM     15  N   UNL     1      55.019   4.162  16.953  0.00  0.00    +0.000 NA
ATOM     16  H   UNL     1      54.428   4.506  17.709  0.00  0.00    +0.000 HD
ATOM     17  H   UNL     1      54.412   4.104  16.137  0.00  0.00    +0.000 HD
ENDBRANCH  14  15
ENDBRANCH   8  14
ENDBRANCH   7  12
ENDBRANCH   1   7
BRANCH   4  18
ATOM     18  C   UNL     1      49.060   7.891  15.148  0.00  0.00    +0.000 C 
BRANCH  18  19
ATOM     19  N   UNL     1      47.856   7.466  14.484  0.00  0.00    +0.000 N 
ATOM     20  C   UNL     1      47.915   6.715  13.335  0.00  0.00    +0.000 C 
ATOM     21  O   UNL     1      48.981   6.319  12.872  0.00  0.00    +0.000 OA
ATOM     22  H   UNL     1      47.002   7.963  14.717  0.00  0.00    +0.000 HD
BRANCH  20  23
ATOM     23  C   UNL     1      46.634   6.357  12.717  0.00  0.00    +0.000 A 
ATOM     24  C   UNL     1      45.854   7.346  12.132  0.00  0.00    +0.000 A 
ATOM     25  S   UNL     1      44.419   6.759  11.423  0.00  0.00    +0.000 S 
ATOM     26  C   UNL     1      44.760   5.168  11.921  0.00  0.00    +0.000 A 
ATOM     27  N   UNL     1      43.898   4.152  11.648  0.00  0.00    +0.000 NA
ATOM     28  C   UNL     1      44.264   3.002  12.111  0.00  0.00    +0.000 A 
ATOM     29  N   UNL     1      45.419   2.776  12.811  0.00  0.00    +0.000 N 
ATOM     30  C   UNL     1      46.334   3.766  13.084  0.00  0.00    +0.000 A 
ATOM     31  O   UNL     1      47.378   3.522  13.682  0.00  0.00    +0.000 OA
ATOM     32  C   UNL     1      45.963   5.083  12.598  0.00  0.00    +0.000 A 
ATOM     33  H   UNL     1      45.651   1.852  13.145  0.00  0.00    +0.000 HD
ENDBRANCH  20  23
ENDBRANCH  18  19
ENDBRANCH   4  18
TORSDOF 7
ENDMDL
MODEL 5
REMARK VINA RESULT:    -6.466      3.400      9.903
REMARK INTER + INTRA:          -9.938
REMARK INTER:                  -9.447
REMARK INTRA:                  -0.491
REMARK UNBOUND:                -1.015
REMARK  Name = 
REMARK  7 active torsions:
REMARK  status: ('A' for Active; 'I' for Inactive)
REMARK    1  A    between atoms: N_1  and  C_2
REMARK    2  A    between atoms: C_2  and  C_3
REMARK    3  A    between atoms: N_7  and  C_8
REMARK    4  A    between atoms: C_8  and  C_9
REMARK    5  A    between atoms: C_12  and  C_13
REMARK    6  A    between atoms: C_13  and  N_14
REMARK    7  A    between atoms: C_15  and  C_17
REMARK                            x       y       z     vdW  Elec       q    Type
REMARK                         _______ _______ _______ _____ _____    ______ ____
ROOT
ATOM      1  C   UNL     1      46.102   5.547  12.960  0.00  0.00    +0.000 A 
ATOM      2  C   UNL     1      46.686   4.805  14.001  0.00  0.00    +0.000 A 
ATOM      3  C   UNL     1      47.647   5.378  14.840  0.00  0.00    +0.000 A 
ATOM      4  C   UNL     1      48.064   6.698  14.644  0.00  0.00    +0.000 A 
ATOM      5  C   UNL     1      47.551   7.410  13.551  0.00  0.00    +0.000 A 
ATOM      6  C   UNL     1      46.569   6.846  12.727  0.00  0.00    +0.000 A 
ENDROOT
BRANCH   1   7
ATOM      7  C   UNL     1      44.979   4.957  12.123  0.00  0.00    +0.000 C 
BRANCH   7  12
ATOM      8  C   UNL     1      44.514   2.781   8.993  0.00  0.00    +0.000 C 
ATOM      9  C   UNL     1      44.737   3.918   7.989  0.00  0.00    +0.000 C 
ATOM     10  C   UNL     1      45.915   4.779   8.420  0.00  0.00    +0.000 C 
ATOM     11  C   UNL     1      45.683   5.340   9.822  0.00  0.00    +0.000 C 
ATOM     12  N   UNL     1      45.405   4.317  10.846  0.00  0.00    +0.000 NA
ATOM     13  C   UNL     1      44.341   3.385  10.407  0.00  0.00    +0.000 C 
BRANCH   8  14
ATOM     14  C   UNL     1      45.614   1.702   8.945  0.00  0.00    +0.000 C 
BRANCH  14  15
ATOM     15  N   UNL     1      46.318   1.705   7.658  0.00  0.00    +0.000 NA
ATOM     16  H   UNL     1      47.234   2.136   7.777  0.00  0.00    +0.000 HD
ATOM     17  H   UNL     1      45.820   2.300   6.997  0.00  0.00    +0.000 HD
ENDBRANCH  14  15
ENDBRANCH   8  14
ENDBRANCH   7  12
ENDBRANCH   1   7
BRANCH   4  18
ATOM     18  C   UNL     1      49.044   7.342  15.589  0.00  0.00    +0.000 C 
BRANCH  18  19
ATOM     19  N   UNL     1      50.041   6.409  16.044  0.00  0.00    +0.000 N 
ATOM     20  C   UNL     1      50.014   5.924  17.330  0.00  0.00    +0.000 C 
ATOM     21  O   UNL     1      49.111   6.206  18.112  0.00  0.00    +0.000 OA
ATOM     22  H   UNL     1      50.896   6.348  15.502  0.00  0.00    +0.000 HD
BRANCH  20  23
ATOM     23  C   UNL     1      51.090   5.002  17.707  0.00  0.00    +0.000 A 
ATOM     24  C   UNL     1      52.272   5.504  18.236  0.00  0.00    +0.000 A 
ATOM     25  S   UNL     1      53.402   4.300  18.660  0.00  0.00    +0.000 S 
ATOM     26  C   UNL     1      52.375   3.064  18.100  0.00  0.00    +0.000 A 
ATOM     27  N   UNL     1      52.761   1.761  18.153  0.00  0.00    +0.000 NA
ATOM     28  C   UNL     1      51.899   0.930  17.665  0.00  0.00    +0.000 A 
ATOM     29  N   UNL     1      50.685   1.284  17.142  0.00  0.00    +0.000 N 
ATOM     30  C   UNL     1      50.241   2.584  17.097  0.00  0.00    +0.000 A 
ATOM     31  O   UNL     1      49.130   2.863  16.654  0.00  0.00    +0.000 OA
ATOM     32  C   UNL     1      51.178   3.562  17.618  0.00  0.00    +0.000 A 
ATOM     33  H   UNL     1      50.053   0.585  16.779  0.00  0.00    +0.000 HD
ENDBRANCH  20  23
ENDBRANCH  18  19
ENDBRANCH   4  18
TORSDOF 7
ENDMDL
MODEL 6
REMARK VINA RESULT:    -6.445      7.110     10.649
REMARK INTER + INTRA:          -9.910
REMARK INTER:                  -9.018
REMARK INTRA:                  -0.892
REMARK UNBOUND:                -1.015
REMARK  Name = 
REMARK  7 active torsions:
REMARK  status: ('A' for Active; 'I' for Inactive)
REMARK    1  A    between atoms: N_1  and  C_2
REMARK    2  A    between atoms: C_2  and  C_3
REMARK    3  A    between atoms: N_7  and  C_8
REMARK    4  A    between atoms: C_8  and  C_9
REMARK    5  A    between atoms: C_12  and  C_13
REMARK    6  A    between atoms: C_13  and  N_14
REMARK    7  A    between atoms: C_15  and  C_17
REMARK                            x       y       z     vdW  Elec       q    Type
REMARK                         _______ _______ _______ _____ _____    ______ ____
ROOT
ATOM      1  C   UNL     1      47.194   7.614  12.643  0.00  0.00    +0.000 A 
ATOM      2  C   UNL     1      47.547   8.855  12.086  0.00  0.00    +0.000 A 
ATOM      3  C   UNL     1      48.884   9.175  11.833  0.00  0.00    +0.000 A 
ATOM      4  C   UNL     1      49.902   8.271  12.153  0.00  0.00    +0.000 A 
ATOM      5  C   UNL     1      49.560   7.072  12.793  0.00  0.00    +0.000 A 
ATOM      6  C   UNL     1      48.220   6.740  13.022  0.00  0.00    +0.000 A 
ENDROOT
BRANCH   1   7
ATOM      7  C   UNL     1      45.734   7.227  12.812  0.00  0.00    +0.000 C 
BRANCH   7  12
ATOM      8  C   UNL     1      43.276   4.481  11.734  0.00  0.00    +0.000 C 
ATOM      9  C   UNL     1      43.585   4.587  10.236  0.00  0.00    +0.000 C 
ATOM     10  C   UNL     1      45.085   4.704  10.014  0.00  0.00    +0.000 C 
ATOM     11  C   UNL     1      45.645   5.911  10.763  0.00  0.00    +0.000 C 
ATOM     12  N   UNL     1      45.346   5.921  12.207  0.00  0.00    +0.000 NA
ATOM     13  C   UNL     1      43.906   5.690  12.465  0.00  0.00    +0.000 C 
BRANCH   8  14
ATOM     14  C   UNL     1      43.702   3.134  12.350  0.00  0.00    +0.000 C 
BRANCH  14  15
ATOM     15  N   UNL     1      43.053   2.003  11.677  0.00  0.00    +0.000 NA
ATOM     16  H   UNL     1      43.752   1.475  11.156  0.00  0.00    +0.000 HD
ATOM     17  H   UNL     1      42.396   2.351  10.980  0.00  0.00    +0.000 HD
ENDBRANCH  14  15
ENDBRANCH   8  14
ENDBRANCH   7  12
ENDBRANCH   1   7
BRANCH   4  18
ATOM     18  C   UNL     1      51.337   8.581  11.815  0.00  0.00    +0.000 C 
BRANCH  18  19
ATOM     19  N   UNL     1      51.685   8.134  10.492  0.00  0.00    +0.000 N 
ATOM     20  C   UNL     1      52.733   8.703   9.811  0.00  0.00    +0.000 C 
ATOM     21  O   UNL     1      53.454   9.556  10.322  0.00  0.00    +0.000 OA
ATOM     22  H   UNL     1      50.980   7.610   9.983  0.00  0.00    +0.000 HD
BRANCH  20  23
ATOM     23  C   UNL     1      52.989   8.199   8.458  0.00  0.00    +0.000 A 
ATOM     24  C   UNL     1      52.878   9.058   7.372  0.00  0.00    +0.000 A 
ATOM     25  S   UNL     1      53.248   8.328   5.877  0.00  0.00    +0.000 S 
ATOM     26  C   UNL     1      53.516   6.820   6.618  0.00  0.00    +0.000 A 
ATOM     27  N   UNL     1      53.853   5.729   5.878  0.00  0.00    +0.000 NA
ATOM     28  C   UNL     1      53.996   4.643   6.564  0.00  0.00    +0.000 A 
ATOM     29  N   UNL     1      53.846   4.554   7.922  0.00  0.00    +0.000 N 
ATOM     30  C   UNL     1      53.537   5.635   8.713  0.00  0.00    +0.000 A 
ATOM     31  O   UNL     1      53.445   5.527   9.933  0.00  0.00    +0.000 OA
ATOM     32  C   UNL     1      53.349   6.879   7.990  0.00  0.00    +0.000 A 
ATOM     33  H   UNL     1      53.974   3.674   8.401  0.00  0.00    +0.000 HD
ENDBRANCH  20  23
ENDBRANCH  18  19
ENDBRANCH   4  18
TORSDOF 7
ENDMDL
MODEL 7
REMARK VINA RESULT:    -6.405      7.160      8.305
REMARK INTER + INTRA:          -9.854
REMARK INTER:                  -8.948
REMARK INTRA:                  -0.906
REMARK UNBOUND:                -1.015
REMARK  Name = 
REMARK  7 active torsions:
REMARK  status: ('A' for Active; 'I' for Inactive)
REMARK    1  A    between atoms: N_1  and  C_2
REMARK    2  A    between atoms: C_2  and  C_3
REMARK    3  A    between atoms: N_7  and  C_8
REMARK    4  A    between atoms: C_8  and  C_9
REMARK    5  A    between atoms: C_12  and  C_13
REMARK    6  A    between atoms: C_13  and  N_14
REMARK    7  A    between atoms: C_15  and  C_17
REMARK                            x       y       z     vdW  Elec       q    Type
REMARK                         _______ _______ _______ _____ _____    ______ ____
ROOT
ATOM      1  C   UNL     1      50.497   8.886  11.426  0.00  0.00    +0.000 A 
ATOM      2  C   UNL     1      49.665   9.971  11.752  0.00  0.00    +0.000 A 
ATOM      3  C   UNL     1      48.393   9.764  12.295  0.00  0.00    +0.000 A 
ATOM      4  C   UNL     1      47.913   8.467  12.503  0.00  0.00    +0.000 A 
ATOM      5  C   UNL     1      48.704   7.384  12.093  0.00  0.00    +0.000 A 
ATOM      6  C   UNL     1      49.988   7.590  11.575  0.00  0.00    +0.000 A 
ENDROOT
BRANCH   1   7
ATOM      7  C   UNL     1      51.919   9.117  10.942  0.00  0.00    +0.000 C 
BRANCH   7  12
ATOM      8  C   UNL     1      53.551   7.742   7.749  0.00  0.00    +0.000 C 
ATOM      9  C   UNL     1      54.807   7.207   8.446  0.00  0.00    +0.000 C 
ATOM     10  C   UNL     1      54.434   6.501   9.740  0.00  0.00    +0.000 C 
ATOM     11  C   UNL     1      53.671   7.446  10.665  0.00  0.00    +0.000 C 
ATOM     12  N   UNL     1      52.472   8.053  10.057  0.00  0.00    +0.000 NA
ATOM     13  C   UNL     1      52.776   8.649   8.736  0.00  0.00    +0.000 C 
BRANCH   8  14
ATOM     14  C   UNL     1      52.665   6.630   7.154  0.00  0.00    +0.000 C 
BRANCH  14  15
ATOM     15  N   UNL     1      53.450   5.686   6.351  0.00  0.00    +0.000 NA
ATOM     16  H   UNL     1      53.623   6.088   5.431  0.00  0.00    +0.000 HD
ATOM     17  H   UNL     1      52.903   4.842   6.182  0.00  0.00    +0.000 HD
ENDBRANCH  14  15
ENDBRANCH   8  14
ENDBRANCH   7  12
ENDBRANCH   1   7
BRANCH   4  18
ATOM     18  C   UNL     1      46.575   8.239  13.154  0.00  0.00    +0.000 C 
BRANCH  18  19
ATOM     19  N   UNL     1      46.054   6.929  12.863  0.00  0.00    +0.000 N 
ATOM     20  C   UNL     1      45.118   6.749  11.874  0.00  0.00    +0.000 C 
ATOM     21  O   UNL     1      44.744   7.674  11.157  0.00  0.00    +0.000 OA
ATOM     22  H   UNL     1      46.175   6.216  13.576  0.00  0.00    +0.000 HD
BRANCH  20  23
ATOM     23  C   UNL     1      44.627   5.382  11.673  0.00  0.00    +0.000 A 
ATOM     24  C   UNL     1      43.907   4.756  12.682  0.00  0.00    +0.000 A 
ATOM     25  S   UNL     1      43.374   3.188  12.276  0.00  0.00    +0.000 S 
ATOM     26  C   UNL     1      44.133   3.267  10.755  0.00  0.00    +0.000 A 
ATOM     27  N   UNL     1      44.082   2.214   9.895  0.00  0.00    +0.000 NA
ATOM     28  C   UNL     1      44.727   2.396   8.790  0.00  0.00    +0.000 A 
ATOM     29  N   UNL     1      45.408   3.538   8.464  0.00  0.00    +0.000 N 
ATOM     30  C   UNL     1      45.462   4.637   9.288  0.00  0.00    +0.000 A 
ATOM     31  O   UNL     1      46.051   5.660   8.949  0.00  0.00    +0.000 OA
ATOM     32  C   UNL     1      44.765   4.481  10.552  0.00  0.00    +0.000 A 
ATOM     33  H   UNL     1      45.891   3.620   7.582  0.00  0.00    +0.000 HD
ENDBRANCH  20  23
ENDBRANCH  18  19
ENDBRANCH   4  18
TORSDOF 7
ENDMDL
MODEL 8
REMARK VINA RESULT:    -6.320      3.185      9.685
REMARK INTER + INTRA:          -9.737
REMARK INTER:                  -8.677
REMARK INTRA:                  -1.060
REMARK UNBOUND:                -1.015
REMARK  Name = 
REMARK  7 active torsions:
REMARK  status: ('A' for Active; 'I' for Inactive)
REMARK    1  A    between atoms: N_1  and  C_2
REMARK    2  A    between atoms: C_2  and  C_3
REMARK    3  A    between atoms: N_7  and  C_8
REMARK    4  A    between atoms: C_8  and  C_9
REMARK    5  A    between atoms: C_12  and  C_13
REMARK    6  A    between atoms: C_13  and  N_14
REMARK    7  A    between atoms: C_15  and  C_17
REMARK                            x       y       z     vdW  Elec       q    Type
REMARK                         _______ _______ _______ _____ _____    ______ ____
ROOT
ATOM      1  C   UNL     1      47.877   7.596  13.067  0.00  0.00    +0.000 A 
ATOM      2  C   UNL     1      49.090   6.945  13.351  0.00  0.00    +0.000 A 
ATOM      3  C   UNL     1      49.747   7.149  14.568  0.00  0.00    +0.000 A 
ATOM      4  C   UNL     1      49.219   8.026  15.521  0.00  0.00    +0.000 A 
ATOM      5  C   UNL     1      48.059   8.745  15.203  0.00  0.00    +0.000 A 
ATOM      6  C   UNL     1      47.386   8.521  13.996  0.00  0.00    +0.000 A 
ENDROOT
BRANCH   1   7
ATOM      7  C   UNL     1      47.111   7.285  11.792  0.00  0.00    +0.000 C 
BRANCH   7  12
ATOM      8  C   UNL     1      44.445   4.794  10.594  0.00  0.00    +0.000 C 
ATOM      9  C   UNL     1      44.924   3.633  11.472  0.00  0.00    +0.000 C 
ATOM     10  C   UNL     1      45.245   4.129  12.874  0.00  0.00    +0.000 C 
ATOM     11  C   UNL     1      46.300   5.232  12.823  0.00  0.00    +0.000 C 
ATOM     12  N   UNL     1      45.946   6.369  11.954  0.00  0.00    +0.000 NA
ATOM     13  C   UNL     1      45.513   5.914  10.613  0.00  0.00    +0.000 C 
BRANCH   8  14
ATOM     14  C   UNL     1      43.044   5.311  10.978  0.00  0.00    +0.000 C 
BRANCH  14  15
ATOM     15  N   UNL     1      43.056   6.754  11.246  0.00  0.00    +0.000 NA
ATOM     16  H   UNL     1      43.769   6.960  11.945  0.00  0.00    +0.000 HD
ATOM     17  H   UNL     1      42.171   7.030  11.669  0.00  0.00    +0.000 HD
ENDBRANCH  14  15
ENDBRANCH   8  14
ENDBRANCH   7  12
ENDBRANCH   1   7
BRANCH   4  18
ATOM     18  C   UNL     1      49.884   8.193  16.862  0.00  0.00    +0.000 C 
BRANCH  18  19
ATOM     19  N   UNL     1      50.773   7.101  17.159  0.00  0.00    +0.000 N 
ATOM     20  C   UNL     1      50.404   6.114  18.041  0.00  0.00    +0.000 C 
ATOM     21  O   UNL     1      49.287   6.084  18.551  0.00  0.00    +0.000 OA
ATOM     22  H   UNL     1      51.754   7.230  16.931  0.00  0.00    +0.000 HD
BRANCH  20  23
ATOM     23  C   UNL     1      51.390   5.060  18.300  0.00  0.00    +0.000 A 
ATOM     24  C   UNL     1      52.572   5.372  18.958  0.00  0.00    +0.000 A 
ATOM     25  S   UNL     1      53.590   4.030  19.217  0.00  0.00    +0.000 S 
ATOM     26  C   UNL     1      52.513   2.990  18.408  0.00  0.00    +0.000 A 
ATOM     27  N   UNL     1      52.804   1.670  18.252  0.00  0.00    +0.000 NA
ATOM     28  C   UNL     1      51.915   1.003  17.592  0.00  0.00    +0.000 A 
ATOM     29  N   UNL     1      50.759   1.534  17.086  0.00  0.00    +0.000 N 
ATOM     30  C   UNL     1      50.410   2.854  17.246  0.00  0.00    +0.000 A 
ATOM     31  O   UNL     1      49.348   3.289  16.810  0.00  0.00    +0.000 OA
ATOM     32  C   UNL     1      51.382   3.653  17.968  0.00  0.00    +0.000 A 
ATOM     33  H   UNL     1      50.102   0.958  16.580  0.00  0.00    +0.000 HD
ENDBRANCH  20  23
ENDBRANCH  18  19
ENDBRANCH   4  18
TORSDOF 7
ENDMDL
MODEL 9
REMARK VINA RESULT:    -6.106      2.624      3.501
REMARK INTER + INTRA:          -9.442
REMARK INTER:                  -8.269
REMARK INTRA:                  -1.173
REMARK UNBOUND:                -1.015
REMARK  Name = 
REMARK  7 active torsions:
REMARK  status: ('A' for Active; 'I' for Inactive)
REMARK    1  A    between atoms: N_1  and  C_2
REMARK    2  A    between atoms: C_2  and  C_3
REMARK    3  A    between atoms: N_7  and  C_8
REMARK    4  A    between atoms: C_8  and  C_9
REMARK    5  A    between atoms: C_12  and  C_13
REMARK    6  A    between atoms: C_13  and  N_14
REMARK    7  A    between atoms: C_15  and  C_17
REMARK                            x       y       z     vdW  Elec       q    Type
REMARK                         _______ _______ _______ _____ _____    ______ ____
ROOT
ATOM      1  C   UNL     1      50.597   5.005  19.001  0.00  0.00    +0.000 A 
ATOM      2  C   UNL     1      50.788   3.981  18.058  0.00  0.00    +0.000 A 
ATOM      3  C   UNL     1      49.706   3.442  17.353  0.00  0.00    +0.000 A 
ATOM      4  C   UNL     1      48.407   3.899  17.591  0.00  0.00    +0.000 A 
ATOM      5  C   UNL     1      48.203   4.854  18.597  0.00  0.00    +0.000 A 
ATOM      6  C   UNL     1      49.288   5.413  19.283  0.00  0.00    +0.000 A 
ENDROOT
BRANCH   1   7
ATOM      7  C   UNL     1      51.786   5.663  19.681  0.00  0.00    +0.000 C 
BRANCH   7  12
ATOM      8  C   UNL     1      52.830   8.483  17.293  0.00  0.00    +0.000 C 
ATOM      9  C   UNL     1      53.975   9.002  18.170  0.00  0.00    +0.000 C 
ATOM     10  C   UNL     1      54.781   7.840  18.728  0.00  0.00    +0.000 C 
ATOM     11  C   UNL     1      53.881   6.898  19.525  0.00  0.00    +0.000 C 
ATOM     12  N   UNL     1      52.718   6.391  18.774  0.00  0.00    +0.000 NA
ATOM     13  C   UNL     1      51.976   7.490  18.116  0.00  0.00    +0.000 C 
BRANCH   8  14
ATOM     14  C   UNL     1      53.311   7.879  15.959  0.00  0.00    +0.000 C 
BRANCH  14  15
ATOM     15  N   UNL     1      52.971   6.455  15.857  0.00  0.00    +0.000 NA
ATOM     16  H   UNL     1      53.024   6.165  14.881  0.00  0.00    +0.000 HD
ATOM     17  H   UNL     1      52.000   6.315  16.132  0.00  0.00    +0.000 HD
ENDBRANCH  14  15
ENDBRANCH   8  14
ENDBRANCH   7  12
ENDBRANCH   1   7
BRANCH   4  18
ATOM     18  C   UNL     1      47.249   3.374  16.784  0.00  0.00    +0.000 C 
BRANCH  18  19
ATOM     19  N   UNL     1      46.749   4.359  15.861  0.00  0.00    +0.000 N 
ATOM     20  C   UNL     1      46.839   4.161  14.505  0.00  0.00    +0.000 C 
ATOM     21  O   UNL     1      47.278   3.118  14.028  0.00  0.00    +0.000 OA
ATOM     22  H   UNL     1      46.600   5.296  16.224  0.00  0.00    +0.000 HD
BRANCH  20  23
ATOM     23  C   UNL     1      46.329   5.236  13.648  0.00  0.00    +0.000 A 
ATOM     24  C   UNL     1      47.074   6.397  13.485  0.00  0.00    +0.000 A 
ATOM     25  S   UNL     1      46.363   7.528  12.426  0.00  0.00    +0.000 S 
ATOM     26  C   UNL     1      45.004   6.532  12.190  0.00  0.00    +0.000 A 
ATOM     27  N   UNL     1      43.978   6.930  11.390  0.00  0.00    +0.000 NA
ATOM     28  C   UNL     1      42.996   6.092  11.324  0.00  0.00    +0.000 A 
ATOM     29  N   UNL     1      42.954   4.888  11.976  0.00  0.00    +0.000 N 
ATOM     30  C   UNL     1      43.980   4.432  12.769  0.00  0.00    +0.000 A 
ATOM     31  O   UNL     1      43.925   3.331  13.310  0.00  0.00    +0.000 OA
ATOM     32  C   UNL     1      45.103   5.343  12.890  0.00  0.00    +0.000 A 
ATOM     33  H   UNL     1      42.158   4.275  11.881  0.00  0.00    +0.000 HD
ENDBRANCH  20  23
ENDBRANCH  18  19
ENDBRANCH   4  18
TORSDOF 7
ENDMDL
