MODEL 1
REMARK VINA RESULT:    -7.884      0.000      0.000
REMARK INTER + INTRA:         -12.100
REMARK INTER:                 -11.571
REMARK INTRA:                  -0.529
REMARK UNBOUND:                -0.529
REMARK  Name = 
REMARK  8 active torsions:
REMARK  status: ('A' for Active; 'I' for Inactive)
REMARK    1  A    between atoms: C_2  and  C_4
REMARK    2  A    between atoms: C_7  and  N_8
REMARK    3  A    between atoms: N_8  and  C_9
REMARK    4  A    between atoms: C_9  and  C_10
REMARK    5  A    between atoms: C_10  and  S_11
REMARK    6  A    between atoms: S_11  and  C_12
REMARK    7  A    between atoms: C_16  and  N_17
REMARK    8  A    between atoms: N_17  and  C_18
REMARK                            x       y       z     vdW  Elec       q    Type
REMARK                         _______ _______ _______ _____ _____    ______ ____
ROOT
ATOM      1  C   UNL     1      43.097   4.316  11.193  0.00  0.00    +0.000 C 
ENDROOT
BRANCH   1   2
ATOM      2  N   UNL     1      43.700   4.825   9.960  0.00  0.00    +0.000 N 
ATOM      3  H   UNL     1      43.051   5.268   9.313  0.00  0.00    +0.000 HD
BRANCH   2   7
ATOM      4  C   UNL     1      46.399   2.335   7.854  0.00  0.00    +0.000 A 
ATOM      5  C   UNL     1      46.455   3.717   7.671  0.00  0.00    +0.000 A 
ATOM      6  C   UNL     1      45.573   4.553   8.369  0.00  0.00    +0.000 A 
ATOM      7  C   UNL     1      44.644   4.039   9.284  0.00  0.00    +0.000 A 
ATOM      8  C   UNL     1      44.585   2.646   9.434  0.00  0.00    +0.000 A 
ATOM      9  C   UNL     1      45.447   1.800   8.725  0.00  0.00    +0.000 A 
BRANCH   4  11
ATOM     10  N   UNL     1      48.308   1.971   6.385  0.00  0.00    +0.000 N 
ATOM     11  C   UNL     1      47.299   1.410   7.117  0.00  0.00    +0.000 C 
ATOM     12  O   UNL     1      47.172   0.195   7.191  0.00  0.00    +0.000 OA
ATOM     13  H   UNL     1      48.975   1.328   5.976  0.00  0.00    +0.000 HD
ATOM     14  H   UNL     1      48.593   2.933   6.502  0.00  0.00    +0.000 HD
ENDBRANCH   4  11
ENDBRANCH   2   7
ENDBRANCH   1   2
BRANCH   1  15
ATOM     15  C   UNL     1      43.163   5.339  12.334  0.00  0.00    +0.000 C 
BRANCH  15  16
ATOM     16  S   UNL     1      44.254   6.715  11.804  0.00  0.00    +0.000 S 
BRANCH  16  17
ATOM     17  C   UNL     1      45.794   6.309  12.596  0.00  0.00    +0.000 A 
ATOM     18  C   UNL     1      46.938   7.088  12.462  0.00  0.00    +0.000 A 
ATOM     19  N   UNL     1      48.087   6.876  13.143  0.00  0.00    +0.000 NA
ATOM     20  C   UNL     1      48.080   5.845  14.020  0.00  0.00    +0.000 A 
ATOM     21  C   UNL     1      47.006   4.976  14.232  0.00  0.00    +0.000 A 
ATOM     22  C   UNL     1      45.843   5.240  13.503  0.00  0.00    +0.000 A 
BRANCH  21  23
ATOM     23  N   UNL     1      47.087   3.969  15.218  0.00  0.00    +0.000 N 
ATOM     24  H   UNL     1      46.595   3.121  14.936  0.00  0.00    +0.000 HD
BRANCH  23  25
ATOM     25  C   UNL     1      47.055   4.174  16.646  0.00  0.00    +0.000 C 
ATOM     26  C   UNL     1      48.375   4.734  17.201  0.00  0.00    +0.000 C 
ATOM     27  O   UNL     1      48.514   3.619  18.116  0.00  0.00    +0.000 OA
ATOM     28  C   UNL     1      47.424   2.924  17.460  0.00  0.00    +0.000 C 
ENDBRANCH  23  25
ENDBRANCH  21  23
ENDBRANCH  16  17
ENDBRANCH  15  16
ENDBRANCH   1  15
TORSDOF 8
ENDMDL
MODEL 2
REMARK VINA RESULT:    -7.864      3.301      4.709
REMARK INTER + INTRA:         -12.070
REMARK INTER:                 -11.306
REMARK INTRA:                  -0.765
REMARK UNBOUND:                -0.529
REMARK  Name = 
REMARK  8 active torsions:
REMARK  status: ('A' for Active; 'I' for Inactive)
REMARK    1  A    between atoms: C_2  and  C_4
REMARK    2  A    between atoms: C_7  and  N_8
REMARK    3  A    between atoms: N_8  and  C_9
REMARK    4  A    between atoms: C_9  and  C_10
REMARK    5  A    between atoms: C_10  and  S_11
REMARK    6  A    between atoms: S_11  and  C_12
REMARK    7  A    between atoms: C_16  and  N_17
REMARK    8  A    between atoms: N_17  and  C_18
REMARK                            x       y       z     vdW  Elec       q    Type
REMARK                         _______ _______ _______ _____ _____    ______ ____
ROOT
ATOM      1  C   UNL     1      43.180   4.056  11.338  0.00  0.00    +0.000 C 
ENDROOT
BRANCH   1   2
ATOM      2  N   UNL     1      43.788   4.697  10.171  0.00  0.00    +0.000 N 
ATOM      3  H   UNL     1      43.145   5.230   9.587  0.00  0.00    +0.000 HD
BRANCH   2   7
ATOM      4  C   UNL     1      46.420   2.405   7.776  0.00  0.00    +0.000 A 
ATOM      5  C   UNL     1      46.403   3.793   7.640  0.00  0.00    +0.000 A 
ATOM      6  C   UNL     1      45.543   4.565   8.434  0.00  0.00    +0.000 A 
ATOM      7  C   UNL     1      44.709   3.979   9.396  0.00  0.00    +0.000 A 
ATOM      8  C   UNL     1      44.721   2.579   9.498  0.00  0.00    +0.000 A 
ATOM      9  C   UNL     1      45.561   1.799   8.695  0.00  0.00    +0.000 A 
BRANCH   4  11
ATOM     10  N   UNL     1      48.342   2.158   6.299  0.00  0.00    +0.000 N 
ATOM     11  C   UNL     1      47.299   1.548   6.939  0.00  0.00    +0.000 C 
ATOM     12  O   UNL     1      47.125   0.339   6.853  0.00  0.00    +0.000 OA
ATOM     13  H   UNL     1      48.993   1.546   5.821  0.00  0.00    +0.000 HD
ATOM     14  H   UNL     1      48.661   3.084   6.544  0.00  0.00    +0.000 HD
ENDBRANCH   4  11
ENDBRANCH   2   7
ENDBRANCH   1   2
BRANCH   1  15
ATOM     15  C   UNL     1      43.484   4.814  12.637  0.00  0.00    +0.000 C 
BRANCH  15  16
ATOM     16  S   UNL     1      45.265   4.601  13.018  0.00  0.00    +0.000 S 
BRANCH  16  17
ATOM     17  C   UNL     1      45.890   6.260  12.869  0.00  0.00    +0.000 A 
ATOM     18  C   UNL     1      47.232   6.541  12.638  0.00  0.00    +0.000 A 
ATOM     19  N   UNL     1      47.719   7.780  12.401  0.00  0.00    +0.000 NA
ATOM     20  C   UNL     1      46.812   8.783  12.371  0.00  0.00    +0.000 A 
ATOM     21  C   UNL     1      45.442   8.638  12.607  0.00  0.00    +0.000 A 
ATOM     22  C   UNL     1      44.991   7.337  12.847  0.00  0.00    +0.000 A 
BRANCH  21  23
ATOM     23  N   UNL     1      44.576   9.746  12.491  0.00  0.00    +0.000 N 
ATOM     24  H   UNL     1      43.871   9.756  13.228  0.00  0.00    +0.000 HD
BRANCH  23  25
ATOM     25  C   UNL     1      44.090  10.318  11.258  0.00  0.00    +0.000 C 
ATOM     26  C   UNL     1      42.972  11.351  11.477  0.00  0.00    +0.000 C 
ATOM     27  O   UNL     1      42.065  10.613  10.621  0.00  0.00    +0.000 OA
ATOM     28  C   UNL     1      42.984   9.492  10.585  0.00  0.00    +0.000 C 
ENDBRANCH  23  25
ENDBRANCH  21  23
ENDBRANCH  16  17
ENDBRANCH  15  16
ENDBRANCH   1  15
TORSDOF 8
ENDMDL
MODEL 3
REMARK VINA RESULT:    -7.499      2.377      3.797
REMARK INTER + INTRA:         -11.534
REMARK INTER:                 -10.792
REMARK INTRA:                  -0.742
REMARK UNBOUND:                -0.529
REMARK  Name = 
REMARK  8 active torsions:
REMARK  status: ('A' for Active; 'I' for Inactive)
REMARK    1  A    between atoms: C_2  and  C_4
REMARK    2  A    between atoms: C_7  and  N_8
REMARK    3  A    between atoms: N_8  and  C_9
REMARK    4  A    between atoms: C_9  and  C_10
REMARK    5  A    between atoms: C_10  and  S_11
REMARK    6  A    between atoms: S_11  and  C_12
REMARK    7  A    between atoms: C_16  and  N_17
REMARK    8  A    between atoms: N_17  and  C_18
REMARK                            x       y       z     vdW  Elec       q    Type
REMARK                         _______ _______ _______ _____ _____    ______ ____
ROOT
ATOM      1  C   UNL     1      43.258   4.352  11.199  0.00  0.00    +0.000 C 
ENDROOT
BRANCH   1   2
ATOM      2  N   UNL     1      43.764   4.839   9.914  0.00  0.00    +0.000 N 
ATOM      3  H   UNL     1      43.073   5.302   9.326  0.00  0.00    +0.000 HD
BRANCH   2   7
ATOM      4  C   UNL     1      46.499   2.480   7.707  0.00  0.00    +0.000 A 
ATOM      5  C   UNL     1      45.542   1.854   8.506  0.00  0.00    +0.000 A 
ATOM      6  C   UNL     1      44.624   2.623   9.234  0.00  0.00    +0.000 A 
ATOM      7  C   UNL     1      44.618   4.022   9.160  0.00  0.00    +0.000 A 
ATOM      8  C   UNL     1      45.605   4.635   8.372  0.00  0.00    +0.000 A 
ATOM      9  C   UNL     1      46.539   3.875   7.658  0.00  0.00    +0.000 A 
BRANCH   4  11
ATOM     10  N   UNL     1      48.421   2.413   6.212  0.00  0.00    +0.000 N 
ATOM     11  C   UNL     1      47.504   1.704   6.936  0.00  0.00    +0.000 C 
ATOM     12  O   UNL     1      47.539   0.481   6.975  0.00  0.00    +0.000 OA
ATOM     13  H   UNL     1      49.162   1.875   5.779  0.00  0.00    +0.000 HD
ATOM     14  H   UNL     1      48.579   3.400   6.355  0.00  0.00    +0.000 HD
ENDBRANCH   4  11
ENDBRANCH   2   7
ENDBRANCH   1   2
BRANCH   1  15
ATOM     15  C   UNL     1      43.990   4.989  12.387  0.00  0.00    +0.000 C 
BRANCH  15  16
ATOM     16  S   UNL     1      45.389   3.896  12.847  0.00  0.00    +0.000 S 
BRANCH  16  17
ATOM     17  C   UNL     1      46.511   5.024  13.643  0.00  0.00    +0.000 A 
ATOM     18  C   UNL     1      47.224   4.693  14.790  0.00  0.00    +0.000 A 
ATOM     19  N   UNL     1      48.171   5.479  15.350  0.00  0.00    +0.000 NA
ATOM     20  C   UNL     1      48.431   6.646  14.715  0.00  0.00    +0.000 A 
ATOM     21  C   UNL     1      47.773   7.104  13.571  0.00  0.00    +0.000 A 
ATOM     22  C   UNL     1      46.803   6.253  13.032  0.00  0.00    +0.000 A 
BRANCH  21  23
ATOM     23  N   UNL     1      48.168   8.311  12.955  0.00  0.00    +0.000 N 
ATOM     24  H   UNL     1      47.505   9.064  13.136  0.00  0.00    +0.000 HD
BRANCH  23  25
ATOM     25  C   UNL     1      48.806   8.438  11.667  0.00  0.00    +0.000 C 
ATOM     26  C   UNL     1      50.126   7.654  11.572  0.00  0.00    +0.000 C 
ATOM     27  O   UNL     1      50.861   8.852  11.221  0.00  0.00    +0.000 OA
ATOM     28  C   UNL     1      49.711   9.673  11.542  0.00  0.00    +0.000 C 
ENDBRANCH  23  25
ENDBRANCH  21  23
ENDBRANCH  16  17
ENDBRANCH  15  16
ENDBRANCH   1  15
TORSDOF 8
ENDMDL
MODEL 4
REMARK VINA RESULT:    -7.372      1.416      2.019
REMARK INTER + INTRA:         -11.348
REMARK INTER:                 -11.154
REMARK INTRA:                  -0.194
REMARK UNBOUND:                -0.529
REMARK  Name = 
REMARK  8 active torsions:
REMARK  status: ('A' for Active; 'I' for Inactive)
REMARK    1  A    between atoms: C_2  and  C_4
REMARK    2  A    between atoms: C_7  and  N_8
REMARK    3  A    between atoms: N_8  and  C_9
REMARK    4  A    between atoms: C_9  and  C_10
REMARK    5  A    between atoms: C_10  and  S_11
REMARK    6  A    between atoms: S_11  and  C_12
REMARK    7  A    between atoms: C_16  and  N_17
REMARK    8  A    between atoms: N_17  and  C_18
REMARK                            x       y       z     vdW  Elec       q    Type
REMARK                         _______ _______ _______ _____ _____    ______ ____
ROOT
ATOM      1  C   UNL     1      44.566   6.132  10.724  0.00  0.00    +0.000 C 
ENDROOT
BRANCH   1   2
ATOM      2  N   UNL     1      44.010   4.851  10.284  0.00  0.00    +0.000 N 
ATOM      3  H   UNL     1      43.549   4.308  11.012  0.00  0.00    +0.000 HD
BRANCH   2   7
ATOM      4  C   UNL     1      46.450   2.493   7.754  0.00  0.00    +0.000 A 
ATOM      5  C   UNL     1      45.652   1.868   8.714  0.00  0.00    +0.000 A 
ATOM      6  C   UNL     1      44.833   2.637   9.552  0.00  0.00    +0.000 A 
ATOM      7  C   UNL     1      44.765   4.032   9.433  0.00  0.00    +0.000 A 
ATOM      8  C   UNL     1      45.595   4.643   8.480  0.00  0.00    +0.000 A 
ATOM      9  C   UNL     1      46.433   3.885   7.653  0.00  0.00    +0.000 A 
BRANCH   4  11
ATOM     10  N   UNL     1      48.470   2.351   6.399  0.00  0.00    +0.000 N 
ATOM     11  C   UNL     1      47.350   1.718   6.861  0.00  0.00    +0.000 C 
ATOM     12  O   UNL     1      47.124   0.548   6.579  0.00  0.00    +0.000 OA
ATOM     13  H   UNL     1      49.126   1.779   5.881  0.00  0.00    +0.000 HD
ATOM     14  H   UNL     1      48.814   3.209   6.805  0.00  0.00    +0.000 HD
ENDBRANCH   4  11
ENDBRANCH   2   7
ENDBRANCH   1   2
BRANCH   1  15
ATOM     15  C   UNL     1      45.871   5.955  11.510  0.00  0.00    +0.000 C 
BRANCH  15  16
ATOM     16  S   UNL     1      45.571   4.737  12.848  0.00  0.00    +0.000 S 
BRANCH  16  17
ATOM     17  C   UNL     1      46.861   5.121  14.012  0.00  0.00    +0.000 A 
ATOM     18  C   UNL     1      47.738   6.186  13.839  0.00  0.00    +0.000 A 
ATOM     19  N   UNL     1      48.649   6.578  14.759  0.00  0.00    +0.000 NA
ATOM     20  C   UNL     1      48.664   5.881  15.919  0.00  0.00    +0.000 A 
ATOM     21  C   UNL     1      47.853   4.780  16.208  0.00  0.00    +0.000 A 
ATOM     22  C   UNL     1      46.929   4.417  15.223  0.00  0.00    +0.000 A 
BRANCH  21  23
ATOM     23  N   UNL     1      47.911   4.164  17.477  0.00  0.00    +0.000 N 
ATOM     24  H   UNL     1      47.769   4.836  18.231  0.00  0.00    +0.000 HD
BRANCH  23  25
ATOM     25  C   UNL     1      48.790   3.085  17.857  0.00  0.00    +0.000 C 
ATOM     26  C   UNL     1      50.277   3.468  17.778  0.00  0.00    +0.000 C 
ATOM     27  O   UNL     1      50.553   2.376  16.865  0.00  0.00    +0.000 OA
ATOM     28  C   UNL     1      49.134   2.130  16.704  0.00  0.00    +0.000 C 
ENDBRANCH  23  25
ENDBRANCH  21  23
ENDBRANCH  16  17
ENDBRANCH  15  16
ENDBRANCH   1  15
TORSDOF 8
ENDMDL
MODEL 5
REMARK VINA RESULT:    -7.315      1.708      2.147
REMARK INTER + INTRA:         -11.265
REMARK INTER:                 -10.577
REMARK INTRA:                  -0.689
REMARK UNBOUND:                -0.529
REMARK  Name = 
REMARK  8 active torsions:
REMARK  status: ('A' for Active; 'I' for Inactive)
REMARK    1  A    between atoms: C_2  and  C_4
REMARK    2  A    between atoms: C_7  and  N_8
REMARK    3  A    between atoms: N_8  and  C_9
REMARK    4  A    between atoms: C_9  and  C_10
REMARK    5  A    between atoms: C_10  and  S_11
REMARK    6  A    between atoms: S_11  and  C_12
REMARK    7  A    between atoms: C_16  and  N_17
REMARK    8  A    between atoms: N_17  and  C_18
REMARK                            x       y       z     vdW  Elec       q    Type
REMARK                         _______ _______ _______ _____ _____    ______ ____
ROOT
ATOM      1  C   UNL     1      43.961   3.210  11.877  0.00  0.00    +0.000 C 
ENDROOT
BRANCH   1   2
ATOM      2  N   UNL     1      43.698   3.570  10.483  0.00  0.00    +0.000 N 
ATOM      3  H   UNL     1      42.771   3.323  10.140  0.00  0.00    +0.000 HD
BRANCH   2   7
ATOM      4  C   UNL     1      46.558   2.701   7.487  0.00  0.00    +0.000 A 
ATOM      5  C   UNL     1      46.152   4.021   7.684  0.00  0.00    +0.000 A 
ATOM      6  C   UNL     1      45.213   4.323   8.680  0.00  0.00    +0.000 A 
ATOM      7  C   UNL     1      44.684   3.331   9.516  0.00  0.00    +0.000 A 
ATOM      8  C   UNL     1      45.084   2.006   9.283  0.00  0.00    +0.000 A 
ATOM      9  C   UNL     1      46.006   1.691   8.277  0.00  0.00    +0.000 A 
BRANCH   4  11
ATOM     10  N   UNL     1      47.543   3.095   5.293  0.00  0.00    +0.000 N 
ATOM     11  C   UNL     1      47.534   2.333   6.428  0.00  0.00    +0.000 C 
ATOM     12  O   UNL     1      48.327   1.411   6.577  0.00  0.00    +0.000 OA
ATOM     13  H   UNL     1      48.282   2.900   4.629  0.00  0.00    +0.000 HD
ATOM     14  H   UNL     1      47.092   3.996   5.242  0.00  0.00    +0.000 HD
ENDBRANCH   4  11
ENDBRANCH   2   7
ENDBRANCH   1   2
BRANCH   1  15
ATOM     15  C   UNL     1      43.581   4.337  12.846  0.00  0.00    +0.000 C 
BRANCH  15  16
ATOM     16  S   UNL     1      43.246   5.847  11.861  0.00  0.00    +0.000 S 
BRANCH  16  17
ATOM     17  C   UNL     1      44.745   6.782  12.071  0.00  0.00    +0.000 A 
ATOM     18  C   UNL     1      44.851   8.123  11.720  0.00  0.00    +0.000 A 
ATOM     19  N   UNL     1      45.933   8.893  11.976  0.00  0.00    +0.000 NA
ATOM     20  C   UNL     1      46.950   8.293  12.636  0.00  0.00    +0.000 A 
ATOM     21  C   UNL     1      46.977   6.951  13.025  0.00  0.00    +0.000 A 
ATOM     22  C   UNL     1      45.834   6.200  12.737  0.00  0.00    +0.000 A 
BRANCH  21  23
ATOM     23  N   UNL     1      48.067   6.444  13.765  0.00  0.00    +0.000 N 
ATOM     24  H   UNL     1      48.132   5.428  13.697  0.00  0.00    +0.000 HD
BRANCH  23  25
ATOM     25  C   UNL     1      48.536   6.942  15.036  0.00  0.00    +0.000 C 
ATOM     26  C   UNL     1      50.067   7.071  15.100  0.00  0.00    +0.000 C 
ATOM     27  O   UNL     1      50.134   6.205  16.260  0.00  0.00    +0.000 OA
ATOM     28  C   UNL     1      48.740   5.846  16.094  0.00  0.00    +0.000 C 
ENDBRANCH  23  25
ENDBRANCH  21  23
ENDBRANCH  16  17
ENDBRANCH  15  16
ENDBRANCH   1  15
TORSDOF 8
ENDMDL
MODEL 6
REMARK VINA RESULT:    -6.809      1.746      8.583
REMARK INTER + INTRA:         -10.523
REMARK INTER:                 -10.083
REMARK INTRA:                  -0.439
REMARK UNBOUND:                -0.529
REMARK  Name = 
REMARK  8 active torsions:
REMARK  status: ('A' for Active; 'I' for Inactive)
REMARK    1  A    between atoms: C_2  and  C_4
REMARK    2  A    between atoms: C_7  and  N_8
REMARK    3  A    between atoms: N_8  and  C_9
REMARK    4  A    between atoms: C_9  and  C_10
REMARK    5  A    between atoms: C_10  and  S_11
REMARK    6  A    between atoms: S_11  and  C_12
REMARK    7  A    between atoms: C_16  and  N_17
REMARK    8  A    between atoms: N_17  and  C_18
REMARK                            x       y       z     vdW  Elec       q    Type
REMARK                         _______ _______ _______ _____ _____    ______ ____
ROOT
ATOM      1  C   UNL     1      46.388   5.214  13.147  0.00  0.00    +0.000 C 
ENDROOT
BRANCH   1   2
ATOM      2  N   UNL     1      47.436   5.943  13.862  0.00  0.00    +0.000 N 
ATOM      3  H   UNL     1      48.279   6.129  13.321  0.00  0.00    +0.000 HD
BRANCH   2   7
ATOM      4  C   UNL     1      48.396   4.672  17.784  0.00  0.00    +0.000 A 
ATOM      5  C   UNL     1      48.996   5.822  17.270  0.00  0.00    +0.000 A 
ATOM      6  C   UNL     1      48.680   6.259  15.976  0.00  0.00    +0.000 A 
ATOM      7  C   UNL     1      47.742   5.584  15.183  0.00  0.00    +0.000 A 
ATOM      8  C   UNL     1      47.169   4.416  15.707  0.00  0.00    +0.000 A 
ATOM      9  C   UNL     1      47.495   3.959  16.990  0.00  0.00    +0.000 A 
BRANCH   4  11
ATOM     10  N   UNL     1      48.256   2.917  19.468  0.00  0.00    +0.000 N 
ATOM     11  C   UNL     1      48.719   4.161  19.142  0.00  0.00    +0.000 C 
ATOM     12  O   UNL     1      49.404   4.807  19.925  0.00  0.00    +0.000 OA
ATOM     13  H   UNL     1      48.574   2.540  20.353  0.00  0.00    +0.000 HD
ATOM     14  H   UNL     1      47.915   2.266  18.776  0.00  0.00    +0.000 HD
ENDBRANCH   4  11
ENDBRANCH   2   7
ENDBRANCH   1   2
BRANCH   1  15
ATOM     15  C   UNL     1      45.117   6.055  12.972  0.00  0.00    +0.000 C 
BRANCH  15  16
ATOM     16  S   UNL     1      44.926   6.436  11.188  0.00  0.00    +0.000 S 
BRANCH  16  17
ATOM     17  C   UNL     1      44.800   4.817  10.462  0.00  0.00    +0.000 A 
ATOM     18  C   UNL     1      43.996   3.814  10.992  0.00  0.00    +0.000 A 
ATOM     19  N   UNL     1      43.784   2.616  10.402  0.00  0.00    +0.000 NA
ATOM     20  C   UNL     1      44.392   2.423   9.208  0.00  0.00    +0.000 A 
ATOM     21  C   UNL     1      45.240   3.339   8.579  0.00  0.00    +0.000 A 
ATOM     22  C   UNL     1      45.424   4.561   9.232  0.00  0.00    +0.000 A 
BRANCH  21  23
ATOM     23  N   UNL     1      45.773   3.058   7.302  0.00  0.00    +0.000 N 
ATOM     24  H   UNL     1      45.231   2.345   6.813  0.00  0.00    +0.000 HD
BRANCH  23  25
ATOM     25  C   UNL     1      47.174   3.017   6.957  0.00  0.00    +0.000 C 
ATOM     26  C   UNL     1      47.414   2.763   5.460  0.00  0.00    +0.000 C 
ATOM     27  O   UNL     1      48.217   1.591   5.744  0.00  0.00    +0.000 OA
ATOM     28  C   UNL     1      47.816   1.633   7.137  0.00  0.00    +0.000 C 
ENDBRANCH  23  25
ENDBRANCH  21  23
ENDBRANCH  16  17
ENDBRANCH  15  16
ENDBRANCH   1  15
TORSDOF 8
ENDMDL
MODEL 7
REMARK VINA RESULT:    -6.774      3.133      4.337
REMARK INTER + INTRA:         -10.470
REMARK INTER:                  -9.965
REMARK INTRA:                  -0.505
REMARK UNBOUND:                -0.529
REMARK  Name = 
REMARK  8 active torsions:
REMARK  status: ('A' for Active; 'I' for Inactive)
REMARK    1  A    between atoms: C_2  and  C_4
REMARK    2  A    between atoms: C_7  and  N_8
REMARK    3  A    between atoms: N_8  and  C_9
REMARK    4  A    between atoms: C_9  and  C_10
REMARK    5  A    between atoms: C_10  and  S_11
REMARK    6  A    between atoms: S_11  and  C_12
REMARK    7  A    between atoms: C_16  and  N_17
REMARK    8  A    between atoms: N_17  and  C_18
REMARK                            x       y       z     vdW  Elec       q    Type
REMARK                         _______ _______ _______ _____ _____    ______ ____
ROOT
ATOM      1  C   UNL     1      43.712   5.036  11.081  0.00  0.00    +0.000 C 
ENDROOT
BRANCH   1   2
ATOM      2  N   UNL     1      43.722   3.722  10.437  0.00  0.00    +0.000 N 
ATOM      3  H   UNL     1      43.563   2.933  11.063  0.00  0.00    +0.000 HD
BRANCH   2   7
ATOM      4  C   UNL     1      46.584   2.699   7.491  0.00  0.00    +0.000 A 
ATOM      5  C   UNL     1      46.199   4.032   7.640  0.00  0.00    +0.000 A 
ATOM      6  C   UNL     1      45.259   4.385   8.618  0.00  0.00    +0.000 A 
ATOM      7  C   UNL     1      44.709   3.432   9.485  0.00  0.00    +0.000 A 
ATOM      8  C   UNL     1      45.088   2.093   9.302  0.00  0.00    +0.000 A 
ATOM      9  C   UNL     1      46.010   1.728   8.313  0.00  0.00    +0.000 A 
BRANCH   4  11
ATOM     10  N   UNL     1      47.535   2.950   5.262  0.00  0.00    +0.000 N 
ATOM     11  C   UNL     1      47.559   2.278   6.452  0.00  0.00    +0.000 C 
ATOM     12  O   UNL     1      48.379   1.393   6.662  0.00  0.00    +0.000 OA
ATOM     13  H   UNL     1      48.273   2.725   4.606  0.00  0.00    +0.000 HD
ATOM     14  H   UNL     1      47.057   3.832   5.147  0.00  0.00    +0.000 HD
ENDBRANCH   4  11
ENDBRANCH   2   7
ENDBRANCH   1   2
BRANCH   1  15
ATOM     15  C   UNL     1      44.948   5.256  11.963  0.00  0.00    +0.000 C 
BRANCH  15  16
ATOM     16  S   UNL     1      45.175   7.063  12.185  0.00  0.00    +0.000 S 
BRANCH  16  17
ATOM     17  C   UNL     1      46.877   7.175  12.689  0.00  0.00    +0.000 A 
ATOM     18  C   UNL     1      47.392   6.463  13.767  0.00  0.00    +0.000 A 
ATOM     19  N   UNL     1      48.702   6.432  14.102  0.00  0.00    +0.000 NA
ATOM     20  C   UNL     1      49.540   7.133  13.303  0.00  0.00    +0.000 A 
ATOM     21  C   UNL     1      49.148   7.904  12.206  0.00  0.00    +0.000 A 
ATOM     22  C   UNL     1      47.784   7.902  11.902  0.00  0.00    +0.000 A 
BRANCH  21  23
ATOM     23  N   UNL     1      50.116   8.547  11.403  0.00  0.00    +0.000 N 
ATOM     24  H   UNL     1      49.741   8.803  10.490  0.00  0.00    +0.000 HD
BRANCH  23  25
ATOM     25  C   UNL     1      51.523   8.230  11.351  0.00  0.00    +0.000 C 
ATOM     26  C   UNL     1      52.354   9.310  10.640  0.00  0.00    +0.000 C 
ATOM     27  O   UNL     1      52.865   8.347   9.684  0.00  0.00    +0.000 OA
ATOM     28  C   UNL     1      51.917   7.355  10.151  0.00  0.00    +0.000 C 
ENDBRANCH  23  25
ENDBRANCH  21  23
ENDBRANCH  16  17
ENDBRANCH  15  16
ENDBRANCH   1  15
TORSDOF 8
ENDMDL
MODEL 8
REMARK VINA RESULT:    -6.746      1.875      7.475
REMARK INTER + INTRA:         -10.430
REMARK INTER:                  -9.984
REMARK INTRA:                  -0.446
REMARK UNBOUND:                -0.529
REMARK  Name = 
REMARK  8 active torsions:
REMARK  status: ('A' for Active; 'I' for Inactive)
REMARK    1  A    between atoms: C_2  and  C_4
REMARK    2  A    between atoms: C_7  and  N_8
REMARK    3  A    between atoms: N_8  and  C_9
REMARK    4  A    between atoms: C_9  and  C_10
REMARK    5  A    between atoms: C_10  and  S_11
REMARK    6  A    between atoms: S_11  and  C_12
REMARK    7  A    between atoms: C_16  and  N_17
REMARK    8  A    between atoms: N_17  and  C_18
REMARK                            x       y       z     vdW  Elec       q    Type
REMARK                         _______ _______ _______ _____ _____    ______ ____
ROOT
ATOM      1  C   UNL     1      47.387   7.402  12.195  0.00  0.00    +0.000 C 
ENDROOT
BRANCH   1   2
ATOM      2  N   UNL     1      48.356   7.264  13.283  0.00  0.00    +0.000 N 
ATOM      3  H   UNL     1      49.333   7.281  12.996  0.00  0.00    +0.000 HD
BRANCH   2   7
ATOM      4  C   UNL     1      47.642   4.528  16.433  0.00  0.00    +0.000 A 
ATOM      5  C   UNL     1      46.994   4.350  15.211  0.00  0.00    +0.000 A 
ATOM      6  C   UNL     1      47.229   5.243  14.156  0.00  0.00    +0.000 A 
ATOM      7  C   UNL     1      48.132   6.307  14.284  0.00  0.00    +0.000 A 
ATOM      8  C   UNL     1      48.753   6.485  15.530  0.00  0.00    +0.000 A 
ATOM      9  C   UNL     1      48.508   5.610  16.595  0.00  0.00    +0.000 A 
BRANCH   4  11
ATOM     10  N   UNL     1      48.035   3.918  18.759  0.00  0.00    +0.000 N 
ATOM     11  C   UNL     1      47.405   3.617  17.584  0.00  0.00    +0.000 C 
ATOM     12  O   UNL     1      46.647   2.659  17.500  0.00  0.00    +0.000 OA
ATOM     13  H   UNL     1      47.781   3.352  19.560  0.00  0.00    +0.000 HD
ATOM     14  H   UNL     1      48.454   4.819  18.935  0.00  0.00    +0.000 HD
ENDBRANCH   4  11
ENDBRANCH   2   7
ENDBRANCH   1   2
BRANCH   1  15
ATOM     15  C   UNL     1      46.105   8.111  12.650  0.00  0.00    +0.000 C 
BRANCH  15  16
ATOM     16  S   UNL     1      44.764   7.672  11.479  0.00  0.00    +0.000 S 
BRANCH  16  17
ATOM     17  C   UNL     1      44.442   5.970  11.885  0.00  0.00    +0.000 A 
ATOM     18  C   UNL     1      43.564   5.590  12.893  0.00  0.00    +0.000 A 
ATOM     19  N   UNL     1      43.206   4.311  13.148  0.00  0.00    +0.000 NA
ATOM     20  C   UNL     1      43.739   3.368  12.336  0.00  0.00    +0.000 A 
ATOM     21  C   UNL     1      44.647   3.616  11.303  0.00  0.00    +0.000 A 
ATOM     22  C   UNL     1      44.983   4.955  11.082  0.00  0.00    +0.000 A 
BRANCH  21  23
ATOM     23  N   UNL     1      45.093   2.562  10.476  0.00  0.00    +0.000 N 
ATOM     24  H   UNL     1      46.051   2.288  10.694  0.00  0.00    +0.000 HD
BRANCH  23  25
ATOM     25  C   UNL     1      44.774   2.384   9.080  0.00  0.00    +0.000 C 
ATOM     26  C   UNL     1      45.954   1.836   8.261  0.00  0.00    +0.000 C 
ATOM     27  O   UNL     1      45.908   2.970   7.359  0.00  0.00    +0.000 OA
ATOM     28  C   UNL     1      44.974   3.650   8.233  0.00  0.00    +0.000 C 
ENDBRANCH  23  25
ENDBRANCH  21  23
ENDBRANCH  16  17
ENDBRANCH  15  16
ENDBRANCH   1  15
TORSDOF 8
ENDMDL
MODEL 9
REMARK VINA RESULT:    -6.547      2.487      8.028
REMARK INTER + INTRA:         -10.137
REMARK INTER:                 -10.038
REMARK INTRA:                  -0.099
REMARK UNBOUND:                -0.529
REMARK  Name = 
REMARK  8 active torsions:
REMARK  status: ('A' for Active; 'I' for Inactive)
REMARK    1  A    between atoms: C_2  and  C_4
REMARK    2  A    between atoms: C_7  and  N_8
REMARK    3  A    between atoms: N_8  and  C_9
REMARK    4  A    between atoms: C_9  and  C_10
REMARK    5  A    between atoms: C_10  and  S_11
REMARK    6  A    between atoms: S_11  and  C_12
REMARK    7  A    between atoms: C_16  and  N_17
REMARK    8  A    between atoms: N_17  and  C_18
REMARK                            x       y       z     vdW  Elec       q    Type
REMARK                         _______ _______ _______ _____ _____    ______ ____
ROOT
ATOM      1  C   UNL     1      46.957   4.987  14.713  0.00  0.00    +0.000 C 
ENDROOT
BRANCH   1   2
ATOM      2  N   UNL     1      47.157   4.859  16.157  0.00  0.00    +0.000 N 
ATOM      3  H   UNL     1      46.974   5.704  16.695  0.00  0.00    +0.000 HD
BRANCH   2   7
ATOM      4  C   UNL     1      50.577   2.710  17.424  0.00  0.00    +0.000 A 
ATOM      5  C   UNL     1      50.552   4.099  17.556  0.00  0.00    +0.000 A 
ATOM      6  C   UNL     1      49.422   4.821  17.149  0.00  0.00    +0.000 A 
ATOM      7  C   UNL     1      48.287   4.180  16.635  0.00  0.00    +0.000 A 
ATOM      8  C   UNL     1      48.342   2.786  16.485  0.00  0.00    +0.000 A 
ATOM      9  C   UNL     1      49.475   2.057  16.868  0.00  0.00    +0.000 A 
BRANCH   4  11
ATOM     10  N   UNL     1      51.592   0.557  17.946  0.00  0.00    +0.000 N 
ATOM     11  C   UNL     1      51.763   1.908  17.821  0.00  0.00    +0.000 C 
ATOM     12  O   UNL     1      52.860   2.425  17.993  0.00  0.00    +0.000 OA
ATOM     13  H   UNL     1      52.430   0.014  18.112  0.00  0.00    +0.000 HD
ATOM     14  H   UNL     1      50.786   0.077  17.574  0.00  0.00    +0.000 HD
ENDBRANCH   4  11
ENDBRANCH   2   7
ENDBRANCH   1   2
BRANCH   1  15
ATOM     15  C   UNL     1      47.721   6.182  14.128  0.00  0.00    +0.000 C 
BRANCH  15  16
ATOM     16  S   UNL     1      46.775   6.815  12.690  0.00  0.00    +0.000 S 
BRANCH  16  17
ATOM     17  C   UNL     1      45.471   5.616  12.531  0.00  0.00    +0.000 A 
ATOM     18  C   UNL     1      44.182   5.838  13.003  0.00  0.00    +0.000 A 
ATOM     19  N   UNL     1      43.141   5.001  12.793  0.00  0.00    +0.000 NA
ATOM     20  C   UNL     1      43.401   3.898  12.054  0.00  0.00    +0.000 A 
ATOM     21  C   UNL     1      44.652   3.549  11.541  0.00  0.00    +0.000 A 
ATOM     22  C   UNL     1      45.694   4.448  11.786  0.00  0.00    +0.000 A 
BRANCH  21  23
ATOM     23  N   UNL     1      44.797   2.403  10.729  0.00  0.00    +0.000 N 
ATOM     24  H   UNL     1      45.601   1.840  11.008  0.00  0.00    +0.000 HD
BRANCH  23  25
ATOM     25  C   UNL     1      44.538   2.328   9.311  0.00  0.00    +0.000 C 
ATOM     26  C   UNL     1      45.701   1.706   8.522  0.00  0.00    +0.000 C 
ATOM     27  O   UNL     1      45.815   2.881   7.681  0.00  0.00    +0.000 OA
ATOM     28  C   UNL     1      44.906   3.608   8.545  0.00  0.00    +0.000 C 
ENDBRANCH  23  25
ENDBRANCH  21  23
ENDBRANCH  16  17
ENDBRANCH  15  16
ENDBRANCH   1  15
TORSDOF 8
ENDMDL
