MODEL 1
REMARK VINA RESULT:    -9.277      0.000      0.000
REMARK INTER + INTRA:         -13.943
REMARK INTER:                 -13.073
REMARK INTRA:                  -0.870
REMARK UNBOUND:                -0.870
REMARK  Name = 
REMARK  8 active torsions:
REMARK  status: ('A' for Active; 'I' for Inactive)
REMARK    1  A    between atoms: C_1  and  C_2
REMARK    2  A    between atoms: C_6  and  C_7
REMARK    3  A    between atoms: N_9  and  C_10
REMARK    4  A    between atoms: C_10  and  C_11
REMARK    5  A    between atoms: C_14  and  C_15
REMARK    6  A    between atoms: C_15  and  O_16
REMARK    7  A    between atoms: O_16  and  C_17
REMARK    8  A    between atoms: C_17  and  C_19
REMARK                            x       y       z     vdW  Elec       q    Type
REMARK                         _______ _______ _______ _____ _____    ______ ____
ROOT
ATOM      1  C   UNL     1      44.803   4.896  11.630  0.00  0.00    +0.000 A 
ATOM      2  C   UNL     1      45.260   3.767  12.323  0.00  0.00    +0.000 A 
ATOM      3  C   UNL     1      46.110   3.902  13.424  0.00  0.00    +0.000 A 
ATOM      4  C   UNL     1      46.512   5.170  13.862  0.00  0.00    +0.000 A 
ATOM      5  C   UNL     1      46.035   6.301  13.186  0.00  0.00    +0.000 A 
ATOM      6  C   UNL     1      45.187   6.165  12.083  0.00  0.00    +0.000 A 
ENDROOT
BRANCH   1   7
ATOM      7  C   UNL     1      43.907   4.744  10.427  0.00  0.00    +0.000 C 
BRANCH   7  10
ATOM      8  C   UNL     1      45.554   4.312   8.661  0.00  0.00    +0.000 C 
ATOM      9  O   UNL     1      46.037   5.436   8.755  0.00  0.00    +0.000 OA
ATOM     10  N   UNL     1      44.496   3.878   9.432  0.00  0.00    +0.000 N 
ATOM     11  H   UNL     1      44.273   2.894   9.472  0.00  0.00    +0.000 HD
BRANCH   8  17
ATOM     12  C   UNL     1      46.778  -0.430   7.604  0.00  0.00    +0.000 C 
ATOM     13  C   UNL     1      46.733   1.016   7.201  0.00  0.00    +0.000 A 
ATOM     14  C   UNL     1      47.220   1.426   5.956  0.00  0.00    +0.000 A 
ATOM     15  C   UNL     1      47.179   2.772   5.587  0.00  0.00    +0.000 A 
ATOM     16  C   UNL     1      46.638   3.722   6.457  0.00  0.00    +0.000 A 
ATOM     17  C   UNL     1      46.132   3.325   7.700  0.00  0.00    +0.000 A 
ATOM     18  C   UNL     1      46.194   1.975   8.073  0.00  0.00    +0.000 A 
ENDBRANCH   8  17
ENDBRANCH   7  10
ENDBRANCH   1   7
BRANCH   4  19
ATOM     19  C   UNL     1      47.468   5.315  15.021  0.00  0.00    +0.000 C 
BRANCH  19  20
ATOM     20  O   UNL     1      47.861   4.028  15.509  0.00  0.00    +0.000 OA
BRANCH  20  21
ATOM     21  C   UNL     1      47.648   3.819  16.833  0.00  0.00    +0.000 C 
ATOM     22  O   UNL     1      46.656   3.277  17.306  0.00  0.00    +0.000 OA
BRANCH  21  23
ATOM     23  C   UNL     1      48.770   4.250  17.660  0.00  0.00    +0.000 A 
ATOM     24  C   UNL     1      48.709   5.432  18.381  0.00  0.00    +0.000 A 
ATOM     25  S   UNL     1      50.126   5.741  19.281  0.00  0.00    +0.000 S 
ATOM     26  C   UNL     1      50.873   4.325  18.699  0.00  0.00    +0.000 A 
ATOM     27  N   UNL     1      52.145   4.007  19.060  0.00  0.00    +0.000 NA
ATOM     28  C   UNL     1      52.588   2.914  18.534  0.00  0.00    +0.000 A 
ATOM     29  N   UNL     1      51.872   2.108  17.685  0.00  0.00    +0.000 N 
ATOM     30  C   UNL     1      50.597   2.407  17.257  0.00  0.00    +0.000 A 
ATOM     31  O   UNL     1      50.033   1.709  16.421  0.00  0.00    +0.000 OA
ATOM     32  C   UNL     1      50.047   3.614  17.847  0.00  0.00    +0.000 A 
ATOM     33  H   UNL     1      52.288   1.279  17.287  0.00  0.00    +0.000 HD
ENDBRANCH  21  23
ENDBRANCH  20  21
ENDBRANCH  19  20
ENDBRANCH   4  19
TORSDOF 7
ENDMDL
MODEL 2
REMARK VINA RESULT:    -8.825      1.132      1.688
REMARK INTER + INTRA:         -13.307
REMARK INTER:                 -12.337
REMARK INTRA:                  -0.970
REMARK UNBOUND:                -0.870
REMARK  Name = 
REMARK  8 active torsions:
REMARK  status: ('A' for Active; 'I' for Inactive)
REMARK    1  A    between atoms: C_1  and  C_2
REMARK    2  A    between atoms: C_6  and  C_7
REMARK    3  A    between atoms: N_9  and  C_10
REMARK    4  A    between atoms: C_10  and  C_11
REMARK    5  A    between atoms: C_14  and  C_15
REMARK    6  A    between atoms: C_15  and  O_16
REMARK    7  A    between atoms: O_16  and  C_17
REMARK    8  A    between atoms: C_17  and  C_19
REMARK                            x       y       z     vdW  Elec       q    Type
REMARK                         _______ _______ _______ _____ _____    ______ ____
ROOT
ATOM      1  C   UNL     1      45.315   5.538  12.131  0.00  0.00    +0.000 A 
ATOM      2  C   UNL     1      45.706   4.532  13.024  0.00  0.00    +0.000 A 
ATOM      3  C   UNL     1      46.652   4.790  14.020  0.00  0.00    +0.000 A 
ATOM      4  C   UNL     1      47.219   6.064  14.150  0.00  0.00    +0.000 A 
ATOM      5  C   UNL     1      46.809   7.079  13.275  0.00  0.00    +0.000 A 
ATOM      6  C   UNL     1      45.865   6.819  12.277  0.00  0.00    +0.000 A 
ENDROOT
BRANCH   1   7
ATOM      7  C   UNL     1      44.314   5.247  11.043  0.00  0.00    +0.000 C 
BRANCH   7  10
ATOM      8  C   UNL     1      45.562   4.381   9.116  0.00  0.00    +0.000 C 
ATOM      9  O   UNL     1      45.950   5.499   8.790  0.00  0.00    +0.000 OA
ATOM     10  N   UNL     1      44.744   4.153  10.203  0.00  0.00    +0.000 N 
ATOM     11  H   UNL     1      44.626   3.214  10.555  0.00  0.00    +0.000 HD
BRANCH   8  17
ATOM     12  C   UNL     1      47.845   2.477   5.082  0.00  0.00    +0.000 C 
ATOM     13  C   UNL     1      47.103   2.265   6.371  0.00  0.00    +0.000 A 
ATOM     14  C   UNL     1      46.830   0.974   6.834  0.00  0.00    +0.000 A 
ATOM     15  C   UNL     1      46.138   0.783   8.031  0.00  0.00    +0.000 A 
ATOM     16  C   UNL     1      45.721   1.882   8.785  0.00  0.00    +0.000 A 
ATOM     17  C   UNL     1      46.000   3.181   8.343  0.00  0.00    +0.000 A 
ATOM     18  C   UNL     1      46.678   3.367   7.130  0.00  0.00    +0.000 A 
ENDBRANCH   8  17
ENDBRANCH   7  10
ENDBRANCH   1   7
BRANCH   4  19
ATOM     19  C   UNL     1      48.276   6.332  15.194  0.00  0.00    +0.000 C 
BRANCH  19  20
ATOM     20  O   UNL     1      48.820   5.101  15.681  0.00  0.00    +0.000 OA
BRANCH  20  21
ATOM     21  C   UNL     1      48.758   4.930  17.027  0.00  0.00    +0.000 C 
ATOM     22  O   UNL     1      47.736   5.018  17.698  0.00  0.00    +0.000 OA
BRANCH  21  23
ATOM     23  C   UNL     1      50.043   4.555  17.608  0.00  0.00    +0.000 A 
ATOM     24  C   UNL     1      50.810   5.482  18.296  0.00  0.00    +0.000 A 
ATOM     25  S   UNL     1      52.270   4.830  18.893  0.00  0.00    +0.000 S 
ATOM     26  C   UNL     1      51.934   3.305  18.214  0.00  0.00    +0.000 A 
ATOM     27  N   UNL     1      52.820   2.279  18.329  0.00  0.00    +0.000 NA
ATOM     28  C   UNL     1      52.441   1.186  17.755  0.00  0.00    +0.000 A 
ATOM     29  N   UNL     1      51.256   1.024  17.083  0.00  0.00    +0.000 N 
ATOM     30  C   UNL     1      50.346   2.043  16.904  0.00  0.00    +0.000 A 
ATOM     31  O   UNL     1      49.346   1.880  16.213  0.00  0.00    +0.000 OA
ATOM     32  C   UNL     1      50.717   3.285  17.558  0.00  0.00    +0.000 A 
ATOM     33  H   UNL     1      51.033   0.148  16.633  0.00  0.00    +0.000 HD
ENDBRANCH  21  23
ENDBRANCH  20  21
ENDBRANCH  19  20
ENDBRANCH   4  19
TORSDOF 7
ENDMDL
MODEL 3
REMARK VINA RESULT:    -8.390      2.274      3.025
REMARK INTER + INTRA:         -12.693
REMARK INTER:                 -11.558
REMARK INTRA:                  -1.135
REMARK UNBOUND:                -0.870
REMARK  Name = 
REMARK  8 active torsions:
REMARK  status: ('A' for Active; 'I' for Inactive)
REMARK    1  A    between atoms: C_1  and  C_2
REMARK    2  A    between atoms: C_6  and  C_7
REMARK    3  A    between atoms: N_9  and  C_10
REMARK    4  A    between atoms: C_10  and  C_11
REMARK    5  A    between atoms: C_14  and  C_15
REMARK    6  A    between atoms: C_15  and  O_16
REMARK    7  A    between atoms: O_16  and  C_17
REMARK    8  A    between atoms: C_17  and  C_19
REMARK                            x       y       z     vdW  Elec       q    Type
REMARK                         _______ _______ _______ _____ _____    ______ ____
ROOT
ATOM      1  C   UNL     1      45.915   6.836  11.624  0.00  0.00    +0.000 A 
ATOM      2  C   UNL     1      47.291   6.622  11.472  0.00  0.00    +0.000 A 
ATOM      3  C   UNL     1      48.208   7.233  12.332  0.00  0.00    +0.000 A 
ATOM      4  C   UNL     1      47.765   8.063  13.369  0.00  0.00    +0.000 A 
ATOM      5  C   UNL     1      46.388   8.257  13.539  0.00  0.00    +0.000 A 
ATOM      6  C   UNL     1      45.472   7.648  12.676  0.00  0.00    +0.000 A 
ENDROOT
BRANCH   1   7
ATOM      7  C   UNL     1      44.932   6.194  10.677  0.00  0.00    +0.000 C 
BRANCH   7  10
ATOM      8  C   UNL     1      45.030   4.153   9.319  0.00  0.00    +0.000 C 
ATOM      9  O   UNL     1      43.963   3.738   9.760  0.00  0.00    +0.000 OA
ATOM     10  N   UNL     1      45.598   5.346   9.715  0.00  0.00    +0.000 N 
ATOM     11  H   UNL     1      46.355   5.746   9.180  0.00  0.00    +0.000 HD
BRANCH   8  17
ATOM     12  C   UNL     1      46.720  -0.266   7.669  0.00  0.00    +0.000 C 
ATOM     13  C   UNL     1      46.593   1.220   7.491  0.00  0.00    +0.000 A 
ATOM     14  C   UNL     1      47.150   1.857   6.377  0.00  0.00    +0.000 A 
ATOM     15  C   UNL     1      47.031   3.238   6.218  0.00  0.00    +0.000 A 
ATOM     16  C   UNL     1      46.343   3.998   7.166  0.00  0.00    +0.000 A 
ATOM     17  C   UNL     1      45.766   3.374   8.279  0.00  0.00    +0.000 A 
ATOM     18  C   UNL     1      45.905   1.988   8.443  0.00  0.00    +0.000 A 
ENDBRANCH   8  17
ENDBRANCH   7  10
ENDBRANCH   1   7
BRANCH   4  19
ATOM     19  C   UNL     1      48.755   8.762  14.269  0.00  0.00    +0.000 C 
BRANCH  19  20
ATOM     20  O   UNL     1      48.834   8.099  15.536  0.00  0.00    +0.000 OA
BRANCH  20  21
ATOM     21  C   UNL     1      49.879   7.244  15.679  0.00  0.00    +0.000 C 
ATOM     22  O   UNL     1      50.902   7.268  15.005  0.00  0.00    +0.000 OA
BRANCH  21  23
ATOM     23  C   UNL     1      49.696   6.310  16.785  0.00  0.00    +0.000 A 
ATOM     24  C   UNL     1      50.473   6.400  17.929  0.00  0.00    +0.000 A 
ATOM     25  S   UNL     1      50.089   5.214  19.094  0.00  0.00    +0.000 S 
ATOM     26  C   UNL     1      48.904   4.524  18.086  0.00  0.00    +0.000 A 
ATOM     27  N   UNL     1      48.207   3.423  18.477  0.00  0.00    +0.000 NA
ATOM     28  C   UNL     1      47.351   3.001  17.608  0.00  0.00    +0.000 A 
ATOM     29  N   UNL     1      47.123   3.583  16.386  0.00  0.00    +0.000 N 
ATOM     30  C   UNL     1      47.830   4.672  15.927  0.00  0.00    +0.000 A 
ATOM     31  O   UNL     1      47.662   5.098  14.790  0.00  0.00    +0.000 OA
ATOM     32  C   UNL     1      48.786   5.200  16.884  0.00  0.00    +0.000 A 
ATOM     33  H   UNL     1      46.456   3.185  15.741  0.00  0.00    +0.000 HD
ENDBRANCH  21  23
ENDBRANCH  20  21
ENDBRANCH  19  20
ENDBRANCH   4  19
TORSDOF 7
ENDMDL
MODEL 4
REMARK VINA RESULT:    -8.146      1.924      2.694
REMARK INTER + INTRA:         -12.349
REMARK INTER:                 -11.672
REMARK INTRA:                  -0.677
REMARK UNBOUND:                -0.870
REMARK  Name = 
REMARK  8 active torsions:
REMARK  status: ('A' for Active; 'I' for Inactive)
REMARK    1  A    between atoms: C_1  and  C_2
REMARK    2  A    between atoms: C_6  and  C_7
REMARK    3  A    between atoms: N_9  and  C_10
REMARK    4  A    between atoms: C_10  and  C_11
REMARK    5  A    between atoms: C_14  and  C_15
REMARK    6  A    between atoms: C_15  and  O_16
REMARK    7  A    between atoms: O_16  and  C_17
REMARK    8  A    between atoms: C_17  and  C_19
REMARK                            x       y       z     vdW  Elec       q    Type
REMARK                         _______ _______ _______ _____ _____    ______ ____
ROOT
ATOM      1  C   UNL     1      44.897   5.702  11.709  0.00  0.00    +0.000 A 
ATOM      2  C   UNL     1      45.690   4.906  12.546  0.00  0.00    +0.000 A 
ATOM      3  C   UNL     1      46.678   5.481  13.350  0.00  0.00    +0.000 A 
ATOM      4  C   UNL     1      46.886   6.866  13.342  0.00  0.00    +0.000 A 
ATOM      5  C   UNL     1      46.076   7.666  12.525  0.00  0.00    +0.000 A 
ATOM      6  C   UNL     1      45.090   7.090  11.718  0.00  0.00    +0.000 A 
ENDROOT
BRANCH   1   7
ATOM      7  C   UNL     1      43.850   5.075  10.824  0.00  0.00    +0.000 C 
BRANCH   7  10
ATOM      8  C   UNL     1      45.294   4.276   9.007  0.00  0.00    +0.000 C 
ATOM      9  O   UNL     1      45.651   5.412   8.712  0.00  0.00    +0.000 OA
ATOM     10  N   UNL     1      44.402   4.005  10.025  0.00  0.00    +0.000 N 
ATOM     11  H   UNL     1      44.302   3.061  10.368  0.00  0.00    +0.000 HD
BRANCH   8  17
ATOM     12  C   UNL     1      47.844   2.484   5.084  0.00  0.00    +0.000 C 
ATOM     13  C   UNL     1      47.086   2.238   6.357  0.00  0.00    +0.000 A 
ATOM     14  C   UNL     1      46.908   0.939   6.843  0.00  0.00    +0.000 A 
ATOM     15  C   UNL     1      46.199   0.716   8.025  0.00  0.00    +0.000 A 
ATOM     16  C   UNL     1      45.670   1.792   8.740  0.00  0.00    +0.000 A 
ATOM     17  C   UNL     1      45.852   3.100   8.276  0.00  0.00    +0.000 A 
ATOM     18  C   UNL     1      46.548   3.316   7.078  0.00  0.00    +0.000 A 
ENDBRANCH   8  17
ENDBRANCH   7  10
ENDBRANCH   1   7
BRANCH   4  19
ATOM     19  C   UNL     1      47.984   7.483  14.174  0.00  0.00    +0.000 C 
BRANCH  19  20
ATOM     20  O   UNL     1      48.875   6.471  14.654  0.00  0.00    +0.000 OA
BRANCH  20  21
ATOM     21  C   UNL     1      49.759   6.877  15.602  0.00  0.00    +0.000 C 
ATOM     22  O   UNL     1      50.913   7.226  15.380  0.00  0.00    +0.000 OA
BRANCH  21  23
ATOM     23  C   UNL     1      49.172   6.926  16.937  0.00  0.00    +0.000 A 
ATOM     24  C   UNL     1      48.611   8.096  17.425  0.00  0.00    +0.000 A 
ATOM     25  S   UNL     1      47.981   7.928  19.002  0.00  0.00    +0.000 S 
ATOM     26  C   UNL     1      48.476   6.301  19.089  0.00  0.00    +0.000 A 
ATOM     27  N   UNL     1      48.270   5.566  20.215  0.00  0.00    +0.000 NA
ATOM     28  C   UNL     1      48.708   4.354  20.145  0.00  0.00    +0.000 A 
ATOM     29  N   UNL     1      49.327   3.807  19.050  0.00  0.00    +0.000 N 
ATOM     30  C   UNL     1      49.597   4.521  17.902  0.00  0.00    +0.000 A 
ATOM     31  O   UNL     1      50.240   4.020  16.986  0.00  0.00    +0.000 OA
ATOM     32  C   UNL     1      49.095   5.883  17.925  0.00  0.00    +0.000 A 
ATOM     33  H   UNL     1      49.671   2.858  19.071  0.00  0.00    +0.000 HD
ENDBRANCH  21  23
ENDBRANCH  20  21
ENDBRANCH  19  20
ENDBRANCH   4  19
TORSDOF 7
ENDMDL
MODEL 5
REMARK VINA RESULT:    -7.929      2.725      9.487
REMARK INTER + INTRA:         -12.043
REMARK INTER:                 -11.271
REMARK INTRA:                  -0.772
REMARK UNBOUND:                -0.870
REMARK  Name = 
REMARK  8 active torsions:
REMARK  status: ('A' for Active; 'I' for Inactive)
REMARK    1  A    between atoms: C_1  and  C_2
REMARK    2  A    between atoms: C_6  and  C_7
REMARK    3  A    between atoms: N_9  and  C_10
REMARK    4  A    between atoms: C_10  and  C_11
REMARK    5  A    between atoms: C_14  and  C_15
REMARK    6  A    between atoms: C_15  and  O_16
REMARK    7  A    between atoms: O_16  and  C_17
REMARK    8  A    between atoms: C_17  and  C_19
REMARK                            x       y       z     vdW  Elec       q    Type
REMARK                         _______ _______ _______ _____ _____    ______ ____
ROOT
ATOM      1  C   UNL     1      48.014   4.348  16.622  0.00  0.00    +0.000 A 
ATOM      2  C   UNL     1      47.188   3.975  15.554  0.00  0.00    +0.000 A 
ATOM      3  C   UNL     1      47.007   4.827  14.461  0.00  0.00    +0.000 A 
ATOM      4  C   UNL     1      47.658   6.066  14.409  0.00  0.00    +0.000 A 
ATOM      5  C   UNL     1      48.506   6.429  15.464  0.00  0.00    +0.000 A 
ATOM      6  C   UNL     1      48.684   5.578  16.558  0.00  0.00    +0.000 A 
ENDROOT
BRANCH   1   7
ATOM      7  C   UNL     1      48.186   3.437  17.811  0.00  0.00    +0.000 C 
BRANCH   7  10
ATOM      8  C   UNL     1      50.314   2.327  17.301  0.00  0.00    +0.000 C 
ATOM      9  O   UNL     1      49.837   1.721  16.346  0.00  0.00    +0.000 OA
ATOM     10  N   UNL     1      49.581   3.187  18.092  0.00  0.00    +0.000 N 
ATOM     11  H   UNL     1      50.054   3.818  18.723  0.00  0.00    +0.000 HD
BRANCH   8  17
ATOM     12  C   UNL     1      54.408  -0.560  17.441  0.00  0.00    +0.000 C 
ATOM     13  C   UNL     1      53.745   0.761  17.710  0.00  0.00    +0.000 A 
ATOM     14  C   UNL     1      54.467   1.824  18.261  0.00  0.00    +0.000 A 
ATOM     15  C   UNL     1      53.846   3.049  18.511  0.00  0.00    +0.000 A 
ATOM     16  C   UNL     1      52.496   3.227  18.203  0.00  0.00    +0.000 A 
ATOM     17  C   UNL     1      51.762   2.178  17.636  0.00  0.00    +0.000 A 
ATOM     18  C   UNL     1      52.387   0.944  17.405  0.00  0.00    +0.000 A 
ENDBRANCH   8  17
ENDBRANCH   7  10
ENDBRANCH   1   7
BRANCH   4  19
ATOM     19  C   UNL     1      47.427   7.007  13.252  0.00  0.00    +0.000 C 
BRANCH  19  20
ATOM     20  O   UNL     1      47.020   6.279  12.089  0.00  0.00    +0.000 OA
BRANCH  20  21
ATOM     21  C   UNL     1      45.722   6.445  11.723  0.00  0.00    +0.000 C 
ATOM     22  O   UNL     1      45.180   7.528  11.539  0.00  0.00    +0.000 OA
BRANCH  21  23
ATOM     23  C   UNL     1      45.033   5.178  11.500  0.00  0.00    +0.000 A 
ATOM     24  C   UNL     1      44.327   4.562  12.522  0.00  0.00    +0.000 A 
ATOM     25  S   UNL     1      43.597   3.096  12.042  0.00  0.00    +0.000 S 
ATOM     26  C   UNL     1      44.238   3.225  10.469  0.00  0.00    +0.000 A 
ATOM     27  N   UNL     1      44.017   2.255   9.542  0.00  0.00    +0.000 NA
ATOM     28  C   UNL     1      44.573   2.477   8.399  0.00  0.00    +0.000 A 
ATOM     29  N   UNL     1      45.324   3.585   8.095  0.00  0.00    +0.000 N 
ATOM     30  C   UNL     1      45.611   4.574   9.010  0.00  0.00    +0.000 A 
ATOM     31  O   UNL     1      46.368   5.496   8.724  0.00  0.00    +0.000 OA
ATOM     32  C   UNL     1      44.982   4.380  10.304  0.00  0.00    +0.000 A 
ATOM     33  H   UNL     1      45.754   3.684   7.188  0.00  0.00    +0.000 HD
ENDBRANCH  21  23
ENDBRANCH  20  21
ENDBRANCH  19  20
ENDBRANCH   4  19
TORSDOF 7
ENDMDL
MODEL 6
REMARK VINA RESULT:    -7.755      3.432      9.453
REMARK INTER + INTRA:         -11.798
REMARK INTER:                 -11.015
REMARK INTRA:                  -0.783
REMARK UNBOUND:                -0.870
REMARK  Name = 
REMARK  8 active torsions:
REMARK  status: ('A' for Active; 'I' for Inactive)
REMARK    1  A    between atoms: C_1  and  C_2
REMARK    2  A    between atoms: C_6  and  C_7
REMARK    3  A    between atoms: N_9  and  C_10
REMARK    4  A    between atoms: C_10  and  C_11
REMARK    5  A    between atoms: C_14  and  C_15
REMARK    6  A    between atoms: C_15  and  O_16
REMARK    7  A    between atoms: O_16  and  C_17
REMARK    8  A    between atoms: C_17  and  C_19
REMARK                            x       y       z     vdW  Elec       q    Type
REMARK                         _______ _______ _______ _____ _____    ______ ____
ROOT
ATOM      1  C   UNL     1      48.156   4.291  16.766  0.00  0.00    +0.000 A 
ATOM      2  C   UNL     1      48.787   5.538  16.858  0.00  0.00    +0.000 A 
ATOM      3  C   UNL     1      48.670   6.474  15.827  0.00  0.00    +0.000 A 
ATOM      4  C   UNL     1      47.912   6.185  14.686  0.00  0.00    +0.000 A 
ATOM      5  C   UNL     1      47.258   4.948  14.604  0.00  0.00    +0.000 A 
ATOM      6  C   UNL     1      47.377   4.012  15.635  0.00  0.00    +0.000 A 
ENDROOT
BRANCH   1   7
ATOM      7  C   UNL     1      48.305   3.275  17.870  0.00  0.00    +0.000 C 
BRANCH   7  10
ATOM      8  C   UNL     1      50.426   2.202  17.260  0.00  0.00    +0.000 C 
ATOM      9  O   UNL     1      49.952   1.711  16.240  0.00  0.00    +0.000 OA
ATOM     10  N   UNL     1      49.694   2.979  18.134  0.00  0.00    +0.000 N 
ATOM     11  H   UNL     1      50.168   3.529  18.836  0.00  0.00    +0.000 HD
BRANCH   8  17
ATOM     12  C   UNL     1      54.891   4.189  18.365  0.00  0.00    +0.000 C 
ATOM     13  C   UNL     1      54.039   2.978  18.117  0.00  0.00    +0.000 A 
ATOM     14  C   UNL     1      54.584   1.692  18.194  0.00  0.00    +0.000 A 
ATOM     15  C   UNL     1      53.788   0.570  17.960  0.00  0.00    +0.000 A 
ATOM     16  C   UNL     1      52.434   0.720  17.656  0.00  0.00    +0.000 A 
ATOM     17  C   UNL     1      51.868   1.999  17.591  0.00  0.00    +0.000 A 
ATOM     18  C   UNL     1      52.677   3.124  17.808  0.00  0.00    +0.000 A 
ENDBRANCH   8  17
ENDBRANCH   7  10
ENDBRANCH   1   7
BRANCH   4  19
ATOM     19  C   UNL     1      47.824   7.175  13.550  0.00  0.00    +0.000 C 
BRANCH  19  20
ATOM     20  O   UNL     1      47.535   6.502  12.320  0.00  0.00    +0.000 OA
BRANCH  20  21
ATOM     21  C   UNL     1      46.358   6.841  11.735  0.00  0.00    +0.000 C 
ATOM     22  O   UNL     1      45.847   7.954  11.784  0.00  0.00    +0.000 OA
BRANCH  21  23
ATOM     23  C   UNL     1      45.775   5.748  10.964  0.00  0.00    +0.000 A 
ATOM     24  C   UNL     1      46.008   5.634   9.603  0.00  0.00    +0.000 A 
ATOM     25  S   UNL     1      45.235   4.283   8.903  0.00  0.00    +0.000 S 
ATOM     26  C   UNL     1      44.536   3.839  10.391  0.00  0.00    +0.000 A 
ATOM     27  N   UNL     1      43.707   2.765  10.481  0.00  0.00    +0.000 NA
ATOM     28  C   UNL     1      43.240   2.554  11.666  0.00  0.00    +0.000 A 
ATOM     29  N   UNL     1      43.531   3.315  12.770  0.00  0.00    +0.000 N 
ATOM     30  C   UNL     1      44.330   4.436  12.722  0.00  0.00    +0.000 A 
ATOM     31  O   UNL     1      44.484   5.143  13.713  0.00  0.00    +0.000 OA
ATOM     32  C   UNL     1      44.903   4.696  11.413  0.00  0.00    +0.000 A 
ATOM     33  H   UNL     1      43.109   3.111  13.664  0.00  0.00    +0.000 HD
ENDBRANCH  21  23
ENDBRANCH  20  21
ENDBRANCH  19  20
ENDBRANCH   4  19
TORSDOF 7
ENDMDL
MODEL 7
REMARK VINA RESULT:    -7.399      2.200      3.407
REMARK INTER + INTRA:         -11.297
REMARK INTER:                 -10.338
REMARK INTRA:                  -0.959
REMARK UNBOUND:                -0.870
REMARK  Name = 
REMARK  8 active torsions:
REMARK  status: ('A' for Active; 'I' for Inactive)
REMARK    1  A    between atoms: C_1  and  C_2
REMARK    2  A    between atoms: C_6  and  C_7
REMARK    3  A    between atoms: N_9  and  C_10
REMARK    4  A    between atoms: C_10  and  C_11
REMARK    5  A    between atoms: C_14  and  C_15
REMARK    6  A    between atoms: C_15  and  O_16
REMARK    7  A    between atoms: O_16  and  C_17
REMARK    8  A    between atoms: C_17  and  C_19
REMARK                            x       y       z     vdW  Elec       q    Type
REMARK                         _______ _______ _______ _____ _____    ______ ____
ROOT
ATOM      1  C   UNL     1      47.097   7.727  12.867  0.00  0.00    +0.000 A 
ATOM      2  C   UNL     1      47.145   8.643  13.926  0.00  0.00    +0.000 A 
ATOM      3  C   UNL     1      48.095   8.509  14.942  0.00  0.00    +0.000 A 
ATOM      4  C   UNL     1      49.023   7.461  14.915  0.00  0.00    +0.000 A 
ATOM      5  C   UNL     1      48.993   6.559  13.842  0.00  0.00    +0.000 A 
ATOM      6  C   UNL     1      48.041   6.693  12.828  0.00  0.00    +0.000 A 
ENDROOT
BRANCH   1   7
ATOM      7  C   UNL     1      46.054   7.862  11.786  0.00  0.00    +0.000 C 
BRANCH   7  10
ATOM      8  C   UNL     1      45.010   5.741  11.127  0.00  0.00    +0.000 C 
ATOM      9  O   UNL     1      44.145   5.830  11.992  0.00  0.00    +0.000 OA
ATOM     10  N   UNL     1      46.001   6.685  10.950  0.00  0.00    +0.000 N 
ATOM     11  H   UNL     1      46.554   6.682  10.105  0.00  0.00    +0.000 HD
BRANCH   8  17
ATOM     12  C   UNL     1      46.518   3.766   6.776  0.00  0.00    +0.000 C 
ATOM     13  C   UNL     1      45.737   3.642   8.052  0.00  0.00    +0.000 A 
ATOM     14  C   UNL     1      45.022   2.475   8.342  0.00  0.00    +0.000 A 
ATOM     15  C   UNL     1      44.295   2.366   9.529  0.00  0.00    +0.000 A 
ATOM     16  C   UNL     1      44.283   3.420  10.444  0.00  0.00    +0.000 A 
ATOM     17  C   UNL     1      45.005   4.589  10.177  0.00  0.00    +0.000 A 
ATOM     18  C   UNL     1      45.718   4.701   8.974  0.00  0.00    +0.000 A 
ENDBRANCH   8  17
ENDBRANCH   7  10
ENDBRANCH   1   7
BRANCH   4  19
ATOM     19  C   UNL     1      50.018   7.287  16.036  0.00  0.00    +0.000 C 
BRANCH  19  20
ATOM     20  O   UNL     1      50.268   5.896  16.271  0.00  0.00    +0.000 OA
BRANCH  20  21
ATOM     21  C   UNL     1      50.174   5.500  17.567  0.00  0.00    +0.000 C 
ATOM     22  O   UNL     1      49.227   5.742  18.306  0.00  0.00    +0.000 OA
BRANCH  21  23
ATOM     23  C   UNL     1      51.304   4.681  17.990  0.00  0.00    +0.000 A 
ATOM     24  C   UNL     1      52.402   5.251  18.614  0.00  0.00    +0.000 A 
ATOM     25  S   UNL     1      53.604   4.112  19.026  0.00  0.00    +0.000 S 
ATOM     26  C   UNL     1      52.708   2.834  18.345  0.00  0.00    +0.000 A 
ATOM     27  N   UNL     1      53.199   1.566  18.331  0.00  0.00    +0.000 NA
ATOM     28  C   UNL     1      52.419   0.701  17.772  0.00  0.00    +0.000 A 
ATOM     29  N   UNL     1      51.191   0.989  17.232  0.00  0.00    +0.000 N 
ATOM     30  C   UNL     1      50.668   2.263  17.185  0.00  0.00    +0.000 A 
ATOM     31  O   UNL     1      49.611   2.489  16.605  0.00  0.00    +0.000 OA
ATOM     32  C   UNL     1      51.499   3.265  17.829  0.00  0.00    +0.000 A 
ATOM     33  H   UNL     1      50.642   0.269  16.785  0.00  0.00    +0.000 HD
ENDBRANCH  21  23
ENDBRANCH  20  21
ENDBRANCH  19  20
ENDBRANCH   4  19
TORSDOF 7
ENDMDL
MODEL 8
REMARK VINA RESULT:    -7.396      2.408      3.327
REMARK INTER + INTRA:         -11.292
REMARK INTER:                 -10.026
REMARK INTRA:                  -1.267
REMARK UNBOUND:                -0.870
REMARK  Name = 
REMARK  8 active torsions:
REMARK  status: ('A' for Active; 'I' for Inactive)
REMARK    1  A    between atoms: C_1  and  C_2
REMARK    2  A    between atoms: C_6  and  C_7
REMARK    3  A    between atoms: N_9  and  C_10
REMARK    4  A    between atoms: C_10  and  C_11
REMARK    5  A    between atoms: C_14  and  C_15
REMARK    6  A    between atoms: C_15  and  O_16
REMARK    7  A    between atoms: O_16  and  C_17
REMARK    8  A    between atoms: C_17  and  C_19
REMARK                            x       y       z     vdW  Elec       q    Type
REMARK                         _______ _______ _______ _____ _____    ______ ____
ROOT
ATOM      1  C   UNL     1      46.743   7.571  12.674  0.00  0.00    +0.000 A 
ATOM      2  C   UNL     1      47.860   6.729  12.599  0.00  0.00    +0.000 A 
ATOM      3  C   UNL     1      48.963   6.932  13.434  0.00  0.00    +0.000 A 
ATOM      4  C   UNL     1      48.966   7.975  14.368  0.00  0.00    +0.000 A 
ATOM      5  C   UNL     1      47.838   8.801  14.463  0.00  0.00    +0.000 A 
ATOM      6  C   UNL     1      46.737   8.600  13.625  0.00  0.00    +0.000 A 
ENDROOT
BRANCH   1   7
ATOM      7  C   UNL     1      45.566   7.364  11.754  0.00  0.00    +0.000 C 
BRANCH   7  10
ATOM      8  C   UNL     1      44.716   5.300  10.734  0.00  0.00    +0.000 C 
ATOM      9  O   UNL     1      43.619   5.417  11.272  0.00  0.00    +0.000 OA
ATOM     10  N   UNL     1      45.746   6.200  10.917  0.00  0.00    +0.000 N 
ATOM     11  H   UNL     1      46.544   6.183  10.299  0.00  0.00    +0.000 HD
BRANCH   8  17
ATOM     12  C   UNL     1      46.809   3.609   6.508  0.00  0.00    +0.000 C 
ATOM     13  C   UNL     1      45.993   3.351   7.742  0.00  0.00    +0.000 A 
ATOM     14  C   UNL     1      45.493   2.073   8.013  0.00  0.00    +0.000 A 
ATOM     15  C   UNL     1      44.732   1.839   9.160  0.00  0.00    +0.000 A 
ATOM     16  C   UNL     1      44.473   2.879  10.055  0.00  0.00    +0.000 A 
ATOM     17  C   UNL     1      44.979   4.160   9.806  0.00  0.00    +0.000 A 
ATOM     18  C   UNL     1      45.726   4.394   8.642  0.00  0.00    +0.000 A 
ENDBRANCH   8  17
ENDBRANCH   7  10
ENDBRANCH   1   7
BRANCH   4  19
ATOM     19  C   UNL     1      50.174   8.224  15.237  0.00  0.00    +0.000 C 
BRANCH  19  20
ATOM     20  O   UNL     1      50.596   7.010  15.868  0.00  0.00    +0.000 OA
BRANCH  20  21
ATOM     21  C   UNL     1      49.881   6.646  16.963  0.00  0.00    +0.000 C 
ATOM     22  O   UNL     1      49.547   7.406  17.865  0.00  0.00    +0.000 OA
BRANCH  21  23
ATOM     23  C   UNL     1      49.480   5.244  16.935  0.00  0.00    +0.000 A 
ATOM     24  C   UNL     1      48.166   4.885  16.678  0.00  0.00    +0.000 A 
ATOM     25  S   UNL     1      47.920   3.196  16.689  0.00  0.00    +0.000 S 
ATOM     26  C   UNL     1      49.551   2.902  17.077  0.00  0.00    +0.000 A 
ATOM     27  N   UNL     1      50.007   1.636  17.271  0.00  0.00    +0.000 NA
ATOM     28  C   UNL     1      51.260   1.563  17.572  0.00  0.00    +0.000 A 
ATOM     29  N   UNL     1      52.100   2.641  17.691  0.00  0.00    +0.000 N 
ATOM     30  C   UNL     1      51.679   3.944  17.546  0.00  0.00    +0.000 A 
ATOM     31  O   UNL     1      52.443   4.880  17.758  0.00  0.00    +0.000 OA
ATOM     32  C   UNL     1      50.281   4.074  17.177  0.00  0.00    +0.000 A 
ATOM     33  H   UNL     1      53.066   2.516  17.956  0.00  0.00    +0.000 HD
ENDBRANCH  21  23
ENDBRANCH  20  21
ENDBRANCH  19  20
ENDBRANCH   4  19
TORSDOF 7
ENDMDL
MODEL 9
REMARK VINA RESULT:    -7.264      2.679      4.318
REMARK INTER + INTRA:         -11.106
REMARK INTER:                  -9.680
REMARK INTRA:                  -1.426
REMARK UNBOUND:                -0.870
REMARK  Name = 
REMARK  8 active torsions:
REMARK  status: ('A' for Active; 'I' for Inactive)
REMARK    1  A    between atoms: C_1  and  C_2
REMARK    2  A    between atoms: C_6  and  C_7
REMARK    3  A    between atoms: N_9  and  C_10
REMARK    4  A    between atoms: C_10  and  C_11
REMARK    5  A    between atoms: C_14  and  C_15
REMARK    6  A    between atoms: C_15  and  O_16
REMARK    7  A    between atoms: O_16  and  C_17
REMARK    8  A    between atoms: C_17  and  C_19
REMARK                            x       y       z     vdW  Elec       q    Type
REMARK                         _______ _______ _______ _____ _____    ______ ____
ROOT
ATOM      1  C   UNL     1      48.360   8.032  13.606  0.00  0.00    +0.000 A 
ATOM      2  C   UNL     1      47.924   8.987  14.534  0.00  0.00    +0.000 A 
ATOM      3  C   UNL     1      48.349   8.933  15.865  0.00  0.00    +0.000 A 
ATOM      4  C   UNL     1      49.227   7.929  16.291  0.00  0.00    +0.000 A 
ATOM      5  C   UNL     1      49.684   6.989  15.358  0.00  0.00    +0.000 A 
ATOM      6  C   UNL     1      49.256   7.042  14.028  0.00  0.00    +0.000 A 
ENDROOT
BRANCH   1   7
ATOM      7  C   UNL     1      47.878   8.079  12.178  0.00  0.00    +0.000 C 
BRANCH   7  10
ATOM      8  C   UNL     1      45.906   6.659  11.833  0.00  0.00    +0.000 C 
ATOM      9  O   UNL     1      45.137   7.530  12.227  0.00  0.00    +0.000 OA
ATOM     10  N   UNL     1      47.275   6.828  11.780  0.00  0.00    +0.000 N 
ATOM     11  H   UNL     1      47.842   6.176  11.257  0.00  0.00    +0.000 HD
BRANCH   8  17
ATOM     12  C   UNL     1      44.914   3.594   7.995  0.00  0.00    +0.000 C 
ATOM     13  C   UNL     1      44.885   3.873   9.471  0.00  0.00    +0.000 A 
ATOM     14  C   UNL     1      44.371   2.929  10.366  0.00  0.00    +0.000 A 
ATOM     15  C   UNL     1      44.344   3.194  11.736  0.00  0.00    +0.000 A 
ATOM     16  C   UNL     1      44.841   4.403  12.228  0.00  0.00    +0.000 A 
ATOM     17  C   UNL     1      45.373   5.351  11.347  0.00  0.00    +0.000 A 
ATOM     18  C   UNL     1      45.380   5.088   9.969  0.00  0.00    +0.000 A 
ENDBRANCH   8  17
ENDBRANCH   7  10
ENDBRANCH   1   7
BRANCH   4  19
ATOM     19  C   UNL     1      49.649   7.842  17.738  0.00  0.00    +0.000 C 
BRANCH  19  20
ATOM     20  O   UNL     1      48.568   7.365  18.546  0.00  0.00    +0.000 OA
BRANCH  20  21
ATOM     21  C   UNL     1      48.802   6.199  19.201  0.00  0.00    +0.000 C 
ATOM     22  O   UNL     1      49.056   6.105  20.396  0.00  0.00    +0.000 OA
BRANCH  21  23
ATOM     23  C   UNL     1      48.653   5.030  18.340  0.00  0.00    +0.000 A 
ATOM     24  C   UNL     1      47.441   4.744  17.732  0.00  0.00    +0.000 A 
ATOM     25  S   UNL     1      47.492   3.336  16.769  0.00  0.00    +0.000 S 
ATOM     26  C   UNL     1      49.122   3.050  17.172  0.00  0.00    +0.000 A 
ATOM     27  N   UNL     1      49.778   1.956  16.698  0.00  0.00    +0.000 NA
ATOM     28  C   UNL     1      51.003   1.859  17.094  0.00  0.00    +0.000 A 
ATOM     29  N   UNL     1      51.633   2.759  17.915  0.00  0.00    +0.000 N 
ATOM     30  C   UNL     1      51.002   3.859  18.454  0.00  0.00    +0.000 A 
ATOM     31  O   UNL     1      51.575   4.582  19.262  0.00  0.00    +0.000 OA
ATOM     32  C   UNL     1      49.629   4.025  18.012  0.00  0.00    +0.000 A 
ATOM     33  H   UNL     1      52.587   2.610  18.210  0.00  0.00    +0.000 HD
ENDBRANCH  21  23
ENDBRANCH  20  21
ENDBRANCH  19  20
ENDBRANCH   4  19
TORSDOF 7
ENDMDL
