MODEL 1
REMARK VINA RESULT:    -9.114      0.000      0.000
REMARK INTER + INTRA:         -13.227
REMARK INTER:                 -12.311
REMARK INTRA:                  -0.916
REMARK UNBOUND:                -0.916
REMARK  Name = 
REMARK  6 active torsions:
REMARK  status: ('A' for Active; 'I' for Inactive)
REMARK    1  A    between atoms: C_2  and  C_4
REMARK    2  A    between atoms: C_7  and  O_8
REMARK    3  A    between atoms: O_8  and  C_9
REMARK    4  A    between atoms: C_9  and  C_10
REMARK    5  A    between atoms: C_10  and  C_13
REMARK    6  A    between atoms: N_18  and  C_19
REMARK                            x       y       z     vdW  Elec       q    Type
REMARK                         _______ _______ _______ _____ _____    ______ ____
ROOT
ATOM      1  C   UNL     1      43.620   5.468  12.085  0.00  0.00    +0.000 C 
ATOM      2  F   UNL     1      43.387   6.611  11.376  0.00  0.00    +0.000 F 
ATOM      3  F   UNL     1      42.677   5.446  13.070  0.00  0.00    +0.000 F 
ENDROOT
BRANCH   1   4
ATOM      4  C   UNL     1      45.030   5.451  12.640  0.00  0.00    +0.000 A 
ATOM      5  C   UNL     1      46.088   6.087  11.994  0.00  0.00    +0.000 A 
ATOM      6  C   UNL     1      47.345   6.020  12.575  0.00  0.00    +0.000 A 
ATOM      7  N   UNL     1      47.619   5.377  13.737  0.00  0.00    +0.000 NA
ATOM      8  C   UNL     1      46.598   4.767  14.364  0.00  0.00    +0.000 A 
ATOM      9  N   UNL     1      46.786   4.056  15.563  0.00  0.00    +0.000 N 
ATOM     10  C   UNL     1      45.310   4.769  13.834  0.00  0.00    +0.000 A 
ATOM     11  H   UNL     1      46.090   4.325  16.251  0.00  0.00    +0.000 HD
BRANCH   9  12
ATOM     12  C   UNL     1      48.032   3.596  16.088  0.00  0.00    +0.000 C 
ATOM     13  C   UNL     1      47.803   2.741  17.351  0.00  0.00    +0.000 C 
ATOM     14  C   UNL     1      48.974   3.483  18.019  0.00  0.00    +0.000 C 
ATOM     15  F   UNL     1      48.750   3.880  19.293  0.00  0.00    +0.000 F 
ATOM     16  F   UNL     1      50.147   2.810  18.022  0.00  0.00    +0.000 F 
ATOM     17  C   UNL     1      48.830   4.586  16.946  0.00  0.00    +0.000 C 
ENDBRANCH   9  12
ENDBRANCH   1   4
BRANCH   1  18
ATOM     18  C   UNL     1      43.388   4.258  11.155  0.00  0.00    +0.000 C 
BRANCH  18  19
ATOM     19  O   UNL     1      43.583   4.618   9.781  0.00  0.00    +0.000 OA
BRANCH  19  23
ATOM     20  C   UNL     1      46.342   2.242   7.880  0.00  0.00    +0.000 A 
ATOM     21  C   UNL     1      46.411   3.606   7.612  0.00  0.00    +0.000 A 
ATOM     22  C   UNL     1      45.492   4.455   8.230  0.00  0.00    +0.000 A 
ATOM     23  C   UNL     1      44.540   3.921   9.095  0.00  0.00    +0.000 A 
ATOM     24  C   UNL     1      44.553   2.545   9.297  0.00  0.00    +0.000 A 
ATOM     25  N   UNL     1      45.422   1.686   8.710  0.00  0.00    +0.000 NA
BRANCH  20  27
ATOM     26  N   UNL     1      48.365   1.914   6.585  0.00  0.00    +0.000 N 
ATOM     27  C   UNL     1      47.316   1.313   7.234  0.00  0.00    +0.000 C 
ATOM     28  O   UNL     1      47.203   0.091   7.282  0.00  0.00    +0.000 OA
ATOM     29  H   UNL     1      49.071   1.340   6.149  0.00  0.00    +0.000 HD
ATOM     30  H   UNL     1      48.444   2.923   6.592  0.00  0.00    +0.000 HD
ENDBRANCH  20  27
ENDBRANCH  19  23
ENDBRANCH  18  19
ENDBRANCH   1  18
TORSDOF 6
ENDMDL
MODEL 2
REMARK VINA RESULT:    -8.468      2.893      4.354
REMARK INTER + INTRA:         -12.354
REMARK INTER:                 -11.322
REMARK INTRA:                  -1.031
REMARK UNBOUND:                -0.916
REMARK  Name = 
REMARK  6 active torsions:
REMARK  status: ('A' for Active; 'I' for Inactive)
REMARK    1  A    between atoms: C_2  and  C_4
REMARK    2  A    between atoms: C_7  and  O_8
REMARK    3  A    between atoms: O_8  and  C_9
REMARK    4  A    between atoms: C_9  and  C_10
REMARK    5  A    between atoms: C_10  and  C_13
REMARK    6  A    between atoms: N_18  and  C_19
REMARK                            x       y       z     vdW  Elec       q    Type
REMARK                         _______ _______ _______ _____ _____    ______ ____
ROOT
ATOM      1  C   UNL     1      43.886   4.777  12.238  0.00  0.00    +0.000 C 
ATOM      2  F   UNL     1      43.496   5.667  11.279  0.00  0.00    +0.000 F 
ATOM      3  F   UNL     1      42.952   4.867  13.227  0.00  0.00    +0.000 F 
ENDROOT
BRANCH   1   4
ATOM      4  C   UNL     1      45.283   5.091  12.736  0.00  0.00    +0.000 A 
ATOM      5  C   UNL     1      45.821   4.478  13.866  0.00  0.00    +0.000 A 
ATOM      6  C   UNL     1      47.107   4.828  14.250  0.00  0.00    +0.000 A 
ATOM      7  N   UNL     1      47.884   5.726  13.596  0.00  0.00    +0.000 NA
ATOM      8  C   UNL     1      47.367   6.313  12.503  0.00  0.00    +0.000 A 
ATOM      9  N   UNL     1      48.088   7.274  11.771  0.00  0.00    +0.000 N 
ATOM     10  C   UNL     1      46.076   6.034  12.065  0.00  0.00    +0.000 A 
ATOM     11  H   UNL     1      48.057   7.065  10.778  0.00  0.00    +0.000 HD
BRANCH   9  12
ATOM     12  C   UNL     1      49.239   7.991  12.217  0.00  0.00    +0.000 C 
ATOM     13  C   UNL     1      49.036   9.509  12.034  0.00  0.00    +0.000 C 
ATOM     14  C   UNL     1      50.470   9.596  11.482  0.00  0.00    +0.000 C 
ATOM     15  F   UNL     1      50.612  10.350  10.369  0.00  0.00    +0.000 F 
ATOM     16  F   UNL     1      51.395  10.031  12.367  0.00  0.00    +0.000 F 
ATOM     17  C   UNL     1      50.426   8.069  11.247  0.00  0.00    +0.000 C 
ENDBRANCH   9  12
ENDBRANCH   1   4
BRANCH   1  18
ATOM     18  C   UNL     1      43.831   3.356  11.638  0.00  0.00    +0.000 C 
BRANCH  18  19
ATOM     19  O   UNL     1      43.481   3.394  10.248  0.00  0.00    +0.000 OA
BRANCH  19  23
ATOM     20  C   UNL     1      46.543   2.461   7.675  0.00  0.00    +0.000 A 
ATOM     21  C   UNL     1      46.113   3.785   7.669  0.00  0.00    +0.000 A 
ATOM     22  C   UNL     1      45.071   4.152   8.523  0.00  0.00    +0.000 A 
ATOM     23  C   UNL     1      44.497   3.193   9.355  0.00  0.00    +0.000 A 
ATOM     24  C   UNL     1      44.998   1.897   9.285  0.00  0.00    +0.000 A 
ATOM     25  N   UNL     1      46.002   1.499   8.465  0.00  0.00    +0.000 NA
BRANCH  20  27
ATOM     26  N   UNL     1      48.618   2.998   6.541  0.00  0.00    +0.000 N 
ATOM     27  C   UNL     1      47.658   2.045   6.774  0.00  0.00    +0.000 C 
ATOM     28  O   UNL     1      47.729   0.925   6.276  0.00  0.00    +0.000 OA
ATOM     29  H   UNL     1      49.412   2.770   5.960  0.00  0.00    +0.000 HD
ATOM     30  H   UNL     1      48.546   3.900   6.994  0.00  0.00    +0.000 HD
ENDBRANCH  20  27
ENDBRANCH  19  23
ENDBRANCH  18  19
ENDBRANCH   1  18
TORSDOF 6
ENDMDL
MODEL 3
REMARK VINA RESULT:    -8.037      1.717      2.113
REMARK INTER + INTRA:         -11.771
REMARK INTER:                 -10.771
REMARK INTRA:                  -1.001
REMARK UNBOUND:                -0.916
REMARK  Name = 
REMARK  6 active torsions:
REMARK  status: ('A' for Active; 'I' for Inactive)
REMARK    1  A    between atoms: C_2  and  C_4
REMARK    2  A    between atoms: C_7  and  O_8
REMARK    3  A    between atoms: O_8  and  C_9
REMARK    4  A    between atoms: C_9  and  C_10
REMARK    5  A    between atoms: C_10  and  C_13
REMARK    6  A    between atoms: N_18  and  C_19
REMARK                            x       y       z     vdW  Elec       q    Type
REMARK                         _______ _______ _______ _____ _____    ______ ____
ROOT
ATOM      1  C   UNL     1      44.088   5.421  11.972  0.00  0.00    +0.000 C 
ATOM      2  F   UNL     1      44.411   6.393  11.069  0.00  0.00    +0.000 F 
ATOM      3  F   UNL     1      43.140   5.972  12.783  0.00  0.00    +0.000 F 
ENDROOT
BRANCH   1   4
ATOM      4  C   UNL     1      45.311   4.968  12.744  0.00  0.00    +0.000 A 
ATOM      5  C   UNL     1      45.684   3.628  12.821  0.00  0.00    +0.000 A 
ATOM      6  C   UNL     1      46.818   3.305  13.551  0.00  0.00    +0.000 A 
ATOM      7  N   UNL     1      47.598   4.208  14.194  0.00  0.00    +0.000 NA
ATOM      8  C   UNL     1      47.242   5.502  14.116  0.00  0.00    +0.000 A 
ATOM      9  N   UNL     1      47.975   6.510  14.768  0.00  0.00    +0.000 N 
ATOM     10  C   UNL     1      46.104   5.906  13.423  0.00  0.00    +0.000 A 
ATOM     11  H   UNL     1      48.166   7.280  14.135  0.00  0.00    +0.000 HD
BRANCH   9  12
ATOM     12  C   UNL     1      48.923   6.323  15.820  0.00  0.00    +0.000 C 
ATOM     13  C   UNL     1      48.288   6.654  17.185  0.00  0.00    +0.000 C 
ATOM     14  C   UNL     1      49.573   7.413  17.557  0.00  0.00    +0.000 C 
ATOM     15  F   UNL     1      49.380   8.617  18.142  0.00  0.00    +0.000 F 
ATOM     16  F   UNL     1      50.430   6.730  18.348  0.00  0.00    +0.000 F 
ATOM     17  C   UNL     1      49.930   7.457  16.054  0.00  0.00    +0.000 C 
ENDBRANCH   9  12
ENDBRANCH   1   4
BRANCH   1  18
ATOM     18  C   UNL     1      43.456   4.236  11.212  0.00  0.00    +0.000 C 
BRANCH  18  19
ATOM     19  O   UNL     1      43.497   4.449   9.795  0.00  0.00    +0.000 OA
BRANCH  19  23
ATOM     20  C   UNL     1      46.333   2.192   7.863  0.00  0.00    +0.000 A 
ATOM     21  C   UNL     1      46.398   3.568   7.665  0.00  0.00    +0.000 A 
ATOM     22  C   UNL     1      45.454   4.379   8.296  0.00  0.00    +0.000 A 
ATOM     23  C   UNL     1      44.481   3.795   9.105  0.00  0.00    +0.000 A 
ATOM     24  C   UNL     1      44.500   2.410   9.238  0.00  0.00    +0.000 A 
ATOM     25  N   UNL     1      45.394   1.589   8.636  0.00  0.00    +0.000 NA
BRANCH  20  27
ATOM     26  N   UNL     1      48.356   1.947   6.549  0.00  0.00    +0.000 N 
ATOM     27  C   UNL     1      47.334   1.304   7.201  0.00  0.00    +0.000 C 
ATOM     28  O   UNL     1      47.265   0.079   7.240  0.00  0.00    +0.000 OA
ATOM     29  H   UNL     1      49.079   1.403   6.102  0.00  0.00    +0.000 HD
ATOM     30  H   UNL     1      48.399   2.958   6.564  0.00  0.00    +0.000 HD
ENDBRANCH  20  27
ENDBRANCH  19  23
ENDBRANCH  18  19
ENDBRANCH   1  18
TORSDOF 6
ENDMDL
MODEL 4
REMARK VINA RESULT:    -7.858      3.443      7.784
REMARK INTER + INTRA:         -11.530
REMARK INTER:                 -10.909
REMARK INTRA:                  -0.621
REMARK UNBOUND:                -0.916
REMARK  Name = 
REMARK  6 active torsions:
REMARK  status: ('A' for Active; 'I' for Inactive)
REMARK    1  A    between atoms: C_2  and  C_4
REMARK    2  A    between atoms: C_7  and  O_8
REMARK    3  A    between atoms: O_8  and  C_9
REMARK    4  A    between atoms: C_9  and  C_10
REMARK    5  A    between atoms: C_10  and  C_13
REMARK    6  A    between atoms: N_18  and  C_19
REMARK                            x       y       z     vdW  Elec       q    Type
REMARK                         _______ _______ _______ _____ _____    ______ ____
ROOT
ATOM      1  C   UNL     1      45.090   7.029  12.036  0.00  0.00    +0.000 C 
ATOM      2  F   UNL     1      44.535   7.040  13.283  0.00  0.00    +0.000 F 
ATOM      3  F   UNL     1      44.605   8.137  11.407  0.00  0.00    +0.000 F 
ENDROOT
BRANCH   1   4
ATOM      4  C   UNL     1      44.742   5.751  11.297  0.00  0.00    +0.000 A 
ATOM      5  C   UNL     1      43.919   4.775  11.854  0.00  0.00    +0.000 A 
ATOM      6  C   UNL     1      43.655   3.637  11.107  0.00  0.00    +0.000 A 
ATOM      7  N   UNL     1      44.141   3.409   9.862  0.00  0.00    +0.000 NA
ATOM      8  C   UNL     1      44.931   4.353   9.321  0.00  0.00    +0.000 A 
ATOM      9  N   UNL     1      45.501   4.198   8.045  0.00  0.00    +0.000 N 
ATOM     10  C   UNL     1      45.263   5.513  10.016  0.00  0.00    +0.000 A 
ATOM     11  H   UNL     1      45.359   5.033   7.486  0.00  0.00    +0.000 HD
BRANCH   9  12
ATOM     12  C   UNL     1      45.624   2.976   7.315  0.00  0.00    +0.000 C 
ATOM     13  C   UNL     1      46.359   1.914   8.158  0.00  0.00    +0.000 C 
ATOM     14  C   UNL     1      47.175   1.542   6.908  0.00  0.00    +0.000 C 
ATOM     15  F   UNL     1      48.502   1.382   7.115  0.00  0.00    +0.000 F 
ATOM     16  F   UNL     1      46.748   0.437   6.256  0.00  0.00    +0.000 F 
ATOM     17  C   UNL     1      46.760   2.895   6.287  0.00  0.00    +0.000 C 
ENDBRANCH   9  12
ENDBRANCH   1   4
BRANCH   1  18
ATOM     18  C   UNL     1      46.620   7.175  12.179  0.00  0.00    +0.000 C 
BRANCH  18  19
ATOM     19  O   UNL     1      47.250   5.895  12.321  0.00  0.00    +0.000 OA
BRANCH  19  23
ATOM     20  C   UNL     1      47.709   4.260  16.061  0.00  0.00    +0.000 A 
ATOM     21  C   UNL     1      48.127   5.579  15.907  0.00  0.00    +0.000 A 
ATOM     22  C   UNL     1      47.997   6.178  14.653  0.00  0.00    +0.000 A 
ATOM     23  C   UNL     1      47.451   5.450  13.599  0.00  0.00    +0.000 A 
ATOM     24  C   UNL     1      47.064   4.138  13.854  0.00  0.00    +0.000 A 
ATOM     25  N   UNL     1      47.181   3.518  15.054  0.00  0.00    +0.000 NA
BRANCH  20  27
ATOM     26  N   UNL     1      46.823   2.730  17.720  0.00  0.00    +0.000 N 
ATOM     27  C   UNL     1      47.835   3.598  17.393  0.00  0.00    +0.000 C 
ATOM     28  O   UNL     1      48.781   3.799  18.149  0.00  0.00    +0.000 OA
ATOM     29  H   UNL     1      46.863   2.232  18.597  0.00  0.00    +0.000 HD
ATOM     30  H   UNL     1      46.075   2.563  17.059  0.00  0.00    +0.000 HD
ENDBRANCH  20  27
ENDBRANCH  19  23
ENDBRANCH  18  19
ENDBRANCH   1  18
TORSDOF 6
ENDMDL
MODEL 5
REMARK VINA RESULT:    -6.987      4.021      7.740
REMARK INTER + INTRA:         -10.353
REMARK INTER:                  -9.646
REMARK INTRA:                  -0.707
REMARK UNBOUND:                -0.916
REMARK  Name = 
REMARK  6 active torsions:
REMARK  status: ('A' for Active; 'I' for Inactive)
REMARK    1  A    between atoms: C_2  and  C_4
REMARK    2  A    between atoms: C_7  and  O_8
REMARK    3  A    between atoms: O_8  and  C_9
REMARK    4  A    between atoms: C_9  and  C_10
REMARK    5  A    between atoms: C_10  and  C_13
REMARK    6  A    between atoms: N_18  and  C_19
REMARK                            x       y       z     vdW  Elec       q    Type
REMARK                         _______ _______ _______ _____ _____    ______ ____
ROOT
ATOM      1  C   UNL     1      44.629   5.826  12.955  0.00  0.00    +0.000 C 
ATOM      2  F   UNL     1      45.464   5.396  13.946  0.00  0.00    +0.000 F 
ATOM      3  F   UNL     1      43.476   6.200  13.581  0.00  0.00    +0.000 F 
ENDROOT
BRANCH   1   4
ATOM      4  C   UNL     1      44.398   4.736  11.928  0.00  0.00    +0.000 A 
ATOM      5  C   UNL     1      43.657   3.592  12.217  0.00  0.00    +0.000 A 
ATOM      6  C   UNL     1      43.496   2.646  11.216  0.00  0.00    +0.000 A 
ATOM      7  N   UNL     1      44.009   2.759   9.966  0.00  0.00    +0.000 NA
ATOM      8  C   UNL     1      44.719   3.866   9.685  0.00  0.00    +0.000 A 
ATOM      9  N   UNL     1      45.309   4.063   8.423  0.00  0.00    +0.000 N 
ATOM     10  C   UNL     1      44.945   4.851  10.642  0.00  0.00    +0.000 A 
ATOM     11  H   UNL     1      45.099   4.993   8.072  0.00  0.00    +0.000 HD
BRANCH   9  12
ATOM     12  C   UNL     1      45.541   3.064   7.430  0.00  0.00    +0.000 C 
ATOM     13  C   UNL     1      46.392   1.915   8.007  0.00  0.00    +0.000 C 
ATOM     14  C   UNL     1      47.221   1.928   6.711  0.00  0.00    +0.000 C 
ATOM     15  F   UNL     1      48.561   1.859   6.884  0.00  0.00    +0.000 F 
ATOM     16  F   UNL     1      46.895   0.967   5.817  0.00  0.00    +0.000 F 
ATOM     17  C   UNL     1      46.662   3.339   6.419  0.00  0.00    +0.000 C 
ENDBRANCH   9  12
ENDBRANCH   1   4
BRANCH   1  18
ATOM     18  C   UNL     1      45.255   7.072  12.293  0.00  0.00    +0.000 C 
BRANCH  18  19
ATOM     19  O   UNL     1      46.081   7.789  13.220  0.00  0.00    +0.000 OA
BRANCH  19  23
ATOM     20  C   UNL     1      50.120   8.208  12.596  0.00  0.00    +0.000 A 
ATOM     21  C   UNL     1      49.364   7.799  11.501  0.00  0.00    +0.000 A 
ATOM     22  C   UNL     1      47.987   7.637  11.663  0.00  0.00    +0.000 A 
ATOM     23  C   UNL     1      47.409   7.892  12.904  0.00  0.00    +0.000 A 
ATOM     24  C   UNL     1      48.250   8.295  13.936  0.00  0.00    +0.000 A 
ATOM     25  N   UNL     1      49.591   8.456  13.822  0.00  0.00    +0.000 NA
BRANCH  20  27
ATOM     26  N   UNL     1      52.349   8.022  13.532  0.00  0.00    +0.000 N 
ATOM     27  C   UNL     1      51.594   8.391  12.447  0.00  0.00    +0.000 C 
ATOM     28  O   UNL     1      52.109   8.830  11.423  0.00  0.00    +0.000 OA
ATOM     29  H   UNL     1      53.354   8.098  13.485  0.00  0.00    +0.000 HD
ATOM     30  H   UNL     1      51.893   7.633  14.348  0.00  0.00    +0.000 HD
ENDBRANCH  20  27
ENDBRANCH  19  23
ENDBRANCH  18  19
ENDBRANCH   1  18
TORSDOF 6
ENDMDL
MODEL 6
REMARK VINA RESULT:    -6.889      4.172      8.088
REMARK INTER + INTRA:         -10.221
REMARK INTER:                  -9.381
REMARK INTRA:                  -0.840
REMARK UNBOUND:                -0.916
REMARK  Name = 
REMARK  6 active torsions:
REMARK  status: ('A' for Active; 'I' for Inactive)
REMARK    1  A    between atoms: C_2  and  C_4
REMARK    2  A    between atoms: C_7  and  O_8
REMARK    3  A    between atoms: O_8  and  C_9
REMARK    4  A    between atoms: C_9  and  C_10
REMARK    5  A    between atoms: C_10  and  C_13
REMARK    6  A    between atoms: N_18  and  C_19
REMARK                            x       y       z     vdW  Elec       q    Type
REMARK                         _______ _______ _______ _____ _____    ______ ____
ROOT
ATOM      1  C   UNL     1      47.815   8.402  12.314  0.00  0.00    +0.000 C 
ATOM      2  F   UNL     1      47.626   9.633  11.755  0.00  0.00    +0.000 F 
ATOM      3  F   UNL     1      48.966   7.920  11.763  0.00  0.00    +0.000 F 
ENDROOT
BRANCH   1   4
ATOM      4  C   UNL     1      46.629   7.496  12.049  0.00  0.00    +0.000 A 
ATOM      5  C   UNL     1      45.567   7.386  12.943  0.00  0.00    +0.000 A 
ATOM      6  C   UNL     1      44.523   6.533  12.619  0.00  0.00    +0.000 A 
ATOM      7  N   UNL     1      44.462   5.796  11.482  0.00  0.00    +0.000 NA
ATOM      8  C   UNL     1      45.483   5.906  10.616  0.00  0.00    +0.000 A 
ATOM      9  N   UNL     1      45.521   5.166   9.420  0.00  0.00    +0.000 N 
ATOM     10  C   UNL     1      46.579   6.723  10.879  0.00  0.00    +0.000 A 
ATOM     11  H   UNL     1      45.747   5.767   8.634  0.00  0.00    +0.000 HD
BRANCH   9  12
ATOM     12  C   UNL     1      44.737   4.012   9.113  0.00  0.00    +0.000 C 
ATOM     13  C   UNL     1      45.174   2.814   9.980  0.00  0.00    +0.000 C 
ATOM     14  C   UNL     1      45.099   1.928   8.724  0.00  0.00    +0.000 C 
ATOM     15  F   UNL     1      46.142   1.083   8.554  0.00  0.00    +0.000 F 
ATOM     16  F   UNL     1      43.976   1.182   8.619  0.00  0.00    +0.000 F 
ATOM     17  C   UNL     1      45.139   3.212   7.867  0.00  0.00    +0.000 C 
ENDBRANCH   9  12
ENDBRANCH   1   4
BRANCH   1  18
ATOM     18  C   UNL     1      48.033   8.580  13.831  0.00  0.00    +0.000 C 
BRANCH  18  19
ATOM     19  O   UNL     1      49.181   7.846  14.278  0.00  0.00    +0.000 OA
BRANCH  19  23
ATOM     20  C   UNL     1      48.340   4.852  16.961  0.00  0.00    +0.000 A 
ATOM     21  C   UNL     1      49.130   5.898  17.429  0.00  0.00    +0.000 A 
ATOM     22  C   UNL     1      49.448   6.938  16.554  0.00  0.00    +0.000 A 
ATOM     23  C   UNL     1      48.967   6.905  15.248  0.00  0.00    +0.000 A 
ATOM     24  C   UNL     1      48.186   5.815  14.876  0.00  0.00    +0.000 A 
ATOM     25  N   UNL     1      47.862   4.783  15.692  0.00  0.00    +0.000 NA
BRANCH  20  27
ATOM     26  N   UNL     1      46.942   2.937  17.467  0.00  0.00    +0.000 N 
ATOM     27  C   UNL     1      47.984   3.729  17.878  0.00  0.00    +0.000 C 
ATOM     28  O   UNL     1      48.583   3.512  18.928  0.00  0.00    +0.000 OA
ATOM     29  H   UNL     1      46.668   2.146  18.031  0.00  0.00    +0.000 HD
ATOM     30  H   UNL     1      46.492   3.125  16.580  0.00  0.00    +0.000 HD
ENDBRANCH  20  27
ENDBRANCH  19  23
ENDBRANCH  18  19
ENDBRANCH   1  18
TORSDOF 6
ENDMDL
MODEL 7
REMARK VINA RESULT:    -6.738      3.900      8.242
REMARK INTER + INTRA:         -10.017
REMARK INTER:                  -9.459
REMARK INTRA:                  -0.558
REMARK UNBOUND:                -0.916
REMARK  Name = 
REMARK  6 active torsions:
REMARK  status: ('A' for Active; 'I' for Inactive)
REMARK    1  A    between atoms: C_2  and  C_4
REMARK    2  A    between atoms: C_7  and  O_8
REMARK    3  A    between atoms: O_8  and  C_9
REMARK    4  A    between atoms: C_9  and  C_10
REMARK    5  A    between atoms: C_10  and  C_13
REMARK    6  A    between atoms: N_18  and  C_19
REMARK                            x       y       z     vdW  Elec       q    Type
REMARK                         _______ _______ _______ _____ _____    ______ ____
ROOT
ATOM      1  C   UNL     1      44.895   6.839  12.141  0.00  0.00    +0.000 C 
ATOM      2  F   UNL     1      44.504   6.710  13.443  0.00  0.00    +0.000 F 
ATOM      3  F   UNL     1      44.231   7.929  11.662  0.00  0.00    +0.000 F 
ENDROOT
BRANCH   1   4
ATOM      4  C   UNL     1      44.582   5.583  11.353  0.00  0.00    +0.000 A 
ATOM      5  C   UNL     1      43.746   4.586  11.850  0.00  0.00    +0.000 A 
ATOM      6  C   UNL     1      43.515   3.470  11.060  0.00  0.00    +0.000 A 
ATOM      7  N   UNL     1      44.045   3.283   9.826  0.00  0.00    +0.000 NA
ATOM      8  C   UNL     1      44.847   4.247   9.343  0.00  0.00    +0.000 A 
ATOM      9  N   UNL     1      45.462   4.134   8.083  0.00  0.00    +0.000 N 
ATOM     10  C   UNL     1      45.147   5.387  10.084  0.00  0.00    +0.000 A 
ATOM     11  H   UNL     1      45.334   4.985   7.544  0.00  0.00    +0.000 HD
BRANCH   9  12
ATOM     12  C   UNL     1      45.618   2.936   7.320  0.00  0.00    +0.000 C 
ATOM     13  C   UNL     1      46.368   1.867   8.140  0.00  0.00    +0.000 C 
ATOM     14  C   UNL     1      47.204   1.548   6.888  0.00  0.00    +0.000 C 
ATOM     15  F   UNL     1      48.532   1.410   7.104  0.00  0.00    +0.000 F 
ATOM     16  F   UNL     1      46.806   0.453   6.203  0.00  0.00    +0.000 F 
ATOM     17  C   UNL     1      46.765   2.908   6.301  0.00  0.00    +0.000 C 
ENDBRANCH   9  12
ENDBRANCH   1   4
BRANCH   1  18
ATOM     18  C   UNL     1      46.410   7.135  12.112  0.00  0.00    +0.000 C 
BRANCH  18  19
ATOM     19  O   UNL     1      46.742   8.219  12.989  0.00  0.00    +0.000 OA
BRANCH  19  23
ATOM     20  C   UNL     1      49.565   7.127  15.766  0.00  0.00    +0.000 A 
ATOM     21  C   UNL     1      49.217   8.475  15.735  0.00  0.00    +0.000 A 
ATOM     22  C   UNL     1      48.265   8.897  14.805  0.00  0.00    +0.000 A 
ATOM     23  C   UNL     1      47.689   7.966  13.944  0.00  0.00    +0.000 A 
ATOM     24  C   UNL     1      48.105   6.643  14.054  0.00  0.00    +0.000 A 
ATOM     25  N   UNL     1      49.030   6.195  14.936  0.00  0.00    +0.000 NA
BRANCH  20  27
ATOM     26  N   UNL     1      51.075   7.609  17.600  0.00  0.00    +0.000 N 
ATOM     27  C   UNL     1      50.577   6.650  16.754  0.00  0.00    +0.000 C 
ATOM     28  O   UNL     1      50.940   5.479  16.822  0.00  0.00    +0.000 OA
ATOM     29  H   UNL     1      51.745   7.345  18.308  0.00  0.00    +0.000 HD
ATOM     30  H   UNL     1      50.730   8.558  17.538  0.00  0.00    +0.000 HD
ENDBRANCH  20  27
ENDBRANCH  19  23
ENDBRANCH  18  19
ENDBRANCH   1  18
TORSDOF 6
ENDMDL
MODEL 8
REMARK VINA RESULT:    -6.597      4.662      8.937
REMARK INTER + INTRA:          -9.827
REMARK INTER:                  -9.260
REMARK INTRA:                  -0.567
REMARK UNBOUND:                -0.916
REMARK  Name = 
REMARK  6 active torsions:
REMARK  status: ('A' for Active; 'I' for Inactive)
REMARK    1  A    between atoms: C_2  and  C_4
REMARK    2  A    between atoms: C_7  and  O_8
REMARK    3  A    between atoms: O_8  and  C_9
REMARK    4  A    between atoms: C_9  and  C_10
REMARK    5  A    between atoms: C_10  and  C_13
REMARK    6  A    between atoms: N_18  and  C_19
REMARK                            x       y       z     vdW  Elec       q    Type
REMARK                         _______ _______ _______ _____ _____    ______ ____
ROOT
ATOM      1  C   UNL     1      48.425   4.612  18.063  0.00  0.00    +0.000 C 
ATOM      2  F   UNL     1      47.984   3.339  18.287  0.00  0.00    +0.000 F 
ATOM      3  F   UNL     1      47.809   5.386  19.002  0.00  0.00    +0.000 F 
ENDROOT
BRANCH   1   4
ATOM      4  C   UNL     1      48.104   5.059  16.651  0.00  0.00    +0.000 A 
ATOM      5  C   UNL     1      48.657   6.210  16.096  0.00  0.00    +0.000 A 
ATOM      6  C   UNL     1      48.306   6.544  14.796  0.00  0.00    +0.000 A 
ATOM      7  N   UNL     1      47.462   5.819  14.021  0.00  0.00    +0.000 NA
ATOM      8  C   UNL     1      46.933   4.704  14.554  0.00  0.00    +0.000 A 
ATOM      9  N   UNL     1      46.030   3.899  13.837  0.00  0.00    +0.000 N 
ATOM     10  C   UNL     1      47.216   4.314  15.860  0.00  0.00    +0.000 A 
ATOM     11  H   UNL     1      46.298   2.922  13.894  0.00  0.00    +0.000 HD
BRANCH   9  12
ATOM     12  C   UNL     1      45.306   4.275  12.664  0.00  0.00    +0.000 C 
ATOM     13  C   UNL     1      43.787   4.192  12.916  0.00  0.00    +0.000 C 
ATOM     14  C   UNL     1      43.635   3.516  11.542  0.00  0.00    +0.000 C 
ATOM     15  F   UNL     1      42.822   2.435  11.520  0.00  0.00    +0.000 F 
ATOM     16  F   UNL     1      43.221   4.334  10.548  0.00  0.00    +0.000 F 
ATOM     17  C   UNL     1      45.148   3.206  11.575  0.00  0.00    +0.000 C 
ENDBRANCH   9  12
ENDBRANCH   1   4
BRANCH   1  18
ATOM     18  C   UNL     1      49.948   4.654  18.313  0.00  0.00    +0.000 C 
BRANCH  18  19
ATOM     19  O   UNL     1      50.670   4.128  17.192  0.00  0.00    +0.000 OA
BRANCH  19  23
ATOM     20  C   UNL     1      53.004   0.827  17.919  0.00  0.00    +0.000 A 
ATOM     21  C   UNL     1      53.633   2.064  18.026  0.00  0.00    +0.000 A 
ATOM     22  C   UNL     1      52.883   3.217  17.784  0.00  0.00    +0.000 A 
ATOM     23  C   UNL     1      51.536   3.100  17.449  0.00  0.00    +0.000 A 
ATOM     24  C   UNL     1      51.002   1.819  17.366  0.00  0.00    +0.000 A 
ATOM     25  N   UNL     1      51.697   0.676  17.586  0.00  0.00    +0.000 NA
BRANCH  20  27
ATOM     26  N   UNL     1      54.312  -1.028  17.065  0.00  0.00    +0.000 N 
ATOM     27  C   UNL     1      53.783  -0.420  18.176  0.00  0.00    +0.000 C 
ATOM     28  O   UNL     1      53.956  -0.876  19.303  0.00  0.00    +0.000 OA
ATOM     29  H   UNL     1      54.870  -1.861  17.175  0.00  0.00    +0.000 HD
ATOM     30  H   UNL     1      54.177  -0.607  16.154  0.00  0.00    +0.000 HD
ENDBRANCH  20  27
ENDBRANCH  19  23
ENDBRANCH  18  19
ENDBRANCH   1  18
TORSDOF 6
ENDMDL
MODEL 9
REMARK VINA RESULT:    -6.239      3.519      4.716
REMARK INTER + INTRA:          -9.343
REMARK INTER:                  -8.273
REMARK INTRA:                  -1.070
REMARK UNBOUND:                -0.916
REMARK  Name = 
REMARK  6 active torsions:
REMARK  status: ('A' for Active; 'I' for Inactive)
REMARK    1  A    between atoms: C_2  and  C_4
REMARK    2  A    between atoms: C_7  and  O_8
REMARK    3  A    between atoms: O_8  and  C_9
REMARK    4  A    between atoms: C_9  and  C_10
REMARK    5  A    between atoms: C_10  and  C_13
REMARK    6  A    between atoms: N_18  and  C_19
REMARK                            x       y       z     vdW  Elec       q    Type
REMARK                         _______ _______ _______ _____ _____    ______ ____
ROOT
ATOM      1  C   UNL     1      48.115   9.419  12.694  0.00  0.00    +0.000 C 
ATOM      2  F   UNL     1      48.476   9.152  11.405  0.00  0.00    +0.000 F 
ATOM      3  F   UNL     1      48.353  10.750  12.876  0.00  0.00    +0.000 F 
ENDROOT
BRANCH   1   4
ATOM      4  C   UNL     1      48.897   8.559  13.667  0.00  0.00    +0.000 A 
ATOM      5  C   UNL     1      50.289   8.498  13.647  0.00  0.00    +0.000 A 
ATOM      6  C   UNL     1      50.922   7.684  14.575  0.00  0.00    +0.000 A 
ATOM      7  N   UNL     1      50.277   6.942  15.508  0.00  0.00    +0.000 NA
ATOM      8  C   UNL     1      48.934   7.004  15.532  0.00  0.00    +0.000 A 
ATOM      9  N   UNL     1      48.176   6.254  16.448  0.00  0.00    +0.000 N 
ATOM     10  C   UNL     1      48.224   7.780  14.620  0.00  0.00    +0.000 A 
ATOM     11  H   UNL     1      47.482   6.840  16.903  0.00  0.00    +0.000 HD
BRANCH   9  12
ATOM     12  C   UNL     1      48.629   5.130  17.204  0.00  0.00    +0.000 C 
ATOM     13  C   UNL     1      48.312   3.816  16.462  0.00  0.00    +0.000 C 
ATOM     14  C   UNL     1      47.840   3.220  17.799  0.00  0.00    +0.000 C 
ATOM     15  F   UNL     1      46.679   2.527  17.741  0.00  0.00    +0.000 F 
ATOM     16  F   UNL     1      48.738   2.419  18.415  0.00  0.00    +0.000 F 
ATOM     17  C   UNL     1      47.727   4.658  18.352  0.00  0.00    +0.000 C 
ENDBRANCH   9  12
ENDBRANCH   1   4
BRANCH   1  18
ATOM     18  C   UNL     1      46.600   9.165  12.842  0.00  0.00    +0.000 C 
BRANCH  18  19
ATOM     19  O   UNL     1      46.031   8.704  11.610  0.00  0.00    +0.000 OA
BRANCH  19  23
ATOM     20  C   UNL     1      44.536   4.880  11.735  0.00  0.00    +0.000 A 
ATOM     21  C   UNL     1      43.615   5.896  11.499  0.00  0.00    +0.000 A 
ATOM     22  C   UNL     1      44.073   7.214  11.452  0.00  0.00    +0.000 A 
ATOM     23  C   UNL     1      45.428   7.476  11.636  0.00  0.00    +0.000 A 
ATOM     24  C   UNL     1      46.268   6.391  11.867  0.00  0.00    +0.000 A 
ATOM     25  N   UNL     1      45.862   5.099  11.928  0.00  0.00    +0.000 NA
BRANCH  20  27
ATOM     26  N   UNL     1      44.856   2.609  12.521  0.00  0.00    +0.000 N 
ATOM     27  C   UNL     1      44.072   3.462  11.786  0.00  0.00    +0.000 C 
ATOM     28  O   UNL     1      43.053   3.075  11.223  0.00  0.00    +0.000 OA
ATOM     29  H   UNL     1      44.583   1.642  12.615  0.00  0.00    +0.000 HD
ATOM     30  H   UNL     1      45.673   2.968  12.999  0.00  0.00    +0.000 HD
ENDBRANCH  20  27
ENDBRANCH  19  23
ENDBRANCH  18  19
ENDBRANCH   1  18
TORSDOF 6
ENDMDL
