MODEL 1
REMARK VINA RESULT:    -9.350      0.000      0.000
REMARK INTER + INTRA:         -12.618
REMARK INTER:                 -12.083
REMARK INTRA:                  -0.536
REMARK UNBOUND:                -0.536
REMARK  Name = 
REMARK  6 active torsions:
REMARK  status: ('A' for Active; 'I' for Inactive)
REMARK    1  A    between atoms: C_1  and  C_2
REMARK    2  A    between atoms: C_2  and  N_3
REMARK    3  A    between atoms: C_2  and  C_16
REMARK    4  A    between atoms: C_4  and  C_6
REMARK    5  A    between atoms: C_19  and  O_20
REMARK    6  A    between atoms: O_20  and  C_21
REMARK                            x       y       z     vdW  Elec       q    Type
REMARK                         _______ _______ _______ _____ _____    ______ ____
ROOT
ATOM      1  C   UNL     1      42.846   5.149  13.147  0.00  0.00    +0.000 C 
ATOM      2  C   UNL     1      44.181   4.440  12.909  0.00  0.00    +0.000 C 
ENDROOT
BRANCH   2   3
ATOM      3  C   UNL     1      44.501   4.353  11.421  0.00  0.00    +0.000 A 
ATOM      4  C   UNL     1      45.336   5.302  10.833  0.00  0.00    +0.000 A 
ATOM      5  C   UNL     1      45.613   5.209   9.469  0.00  0.00    +0.000 A 
ATOM      6  C   UNL     1      45.013   4.206   8.712  0.00  0.00    +0.000 A 
ATOM      7  C   UNL     1      44.194   3.305   9.374  0.00  0.00    +0.000 A 
ATOM      8  N   UNL     1      43.916   3.363  10.697  0.00  0.00    +0.000 NA
BRANCH   6   9
ATOM      9  O   UNL     1      45.219   4.010   7.369  0.00  0.00    +0.000 OA
BRANCH   9  10
ATOM     10  C   UNL     1      46.209   3.146   6.960  0.00  0.00    +0.000 A 
ATOM     11  C   UNL     1      46.831   3.437   5.751  0.00  0.00    +0.000 A 
ATOM     12  C   UNL     1      47.819   2.578   5.304  0.00  0.00    +0.000 A 
ATOM     13  N   UNL     1      48.218   1.477   5.976  0.00  0.00    +0.000 NA
ATOM     14  C   UNL     1      47.625   1.242   7.165  0.00  0.00    +0.000 A 
ATOM     15  C   UNL     1      46.644   2.053   7.706  0.00  0.00    +0.000 A 
ENDBRANCH   9  10
ENDBRANCH   6   9
ENDBRANCH   2   3
BRANCH   2  16
ATOM     16  N   UNL     1      45.259   5.114  13.616  0.00  0.00    +0.000 N 
ATOM     17  C   UNL     1      46.410   4.479  13.999  0.00  0.00    +0.000 C 
ATOM     18  O   UNL     1      46.597   3.289  13.738  0.00  0.00    +0.000 OA
ATOM     19  H   UNL     1      45.077   6.078  13.890  0.00  0.00    +0.000 HD
BRANCH  17  20
ATOM     20  C   UNL     1      47.419   5.265  14.724  0.00  0.00    +0.000 A 
ATOM     21  C   UNL     1      48.073   6.300  14.063  0.00  0.00    +0.000 A 
ATOM     22  S   UNL     1      49.226   7.114  15.015  0.00  0.00    +0.000 S 
ATOM     23  C   UNL     1      48.910   6.109  16.350  0.00  0.00    +0.000 A 
ATOM     24  N   UNL     1      49.605   6.259  17.509  0.00  0.00    +0.000 NA
ATOM     25  C   UNL     1      49.279   5.426  18.439  0.00  0.00    +0.000 A 
ATOM     26  N   UNL     1      48.306   4.468  18.319  0.00  0.00    +0.000 N 
ATOM     27  C   UNL     1      47.555   4.304  17.179  0.00  0.00    +0.000 A 
ATOM     28  O   UNL     1      46.657   3.472  17.132  0.00  0.00    +0.000 OA
ATOM     29  C   UNL     1      47.914   5.185  16.083  0.00  0.00    +0.000 A 
ATOM     30  H   UNL     1      48.085   3.854  19.090  0.00  0.00    +0.000 HD
ENDBRANCH  17  20
ENDBRANCH   2  16
TORSDOF 5
ENDMDL
MODEL 2
REMARK VINA RESULT:    -7.758      1.931      2.609
REMARK INTER + INTRA:         -10.562
REMARK INTER:                 -10.550
REMARK INTRA:                  -0.012
REMARK UNBOUND:                -0.536
REMARK  Name = 
REMARK  6 active torsions:
REMARK  status: ('A' for Active; 'I' for Inactive)
REMARK    1  A    between atoms: C_1  and  C_2
REMARK    2  A    between atoms: C_2  and  N_3
REMARK    3  A    between atoms: C_2  and  C_16
REMARK    4  A    between atoms: C_4  and  C_6
REMARK    5  A    between atoms: C_19  and  O_20
REMARK    6  A    between atoms: O_20  and  C_21
REMARK                            x       y       z     vdW  Elec       q    Type
REMARK                         _______ _______ _______ _____ _____    ______ ____
ROOT
ATOM      1  C   UNL     1      46.814   7.915  12.110  0.00  0.00    +0.000 C 
ATOM      2  C   UNL     1      45.751   6.928  12.598  0.00  0.00    +0.000 C 
ENDROOT
BRANCH   2   3
ATOM      3  C   UNL     1      45.412   5.905  11.520  0.00  0.00    +0.000 A 
ATOM      4  C   UNL     1      44.577   4.830  11.820  0.00  0.00    +0.000 A 
ATOM      5  C   UNL     1      44.282   3.901  10.821  0.00  0.00    +0.000 A 
ATOM      6  C   UNL     1      44.865   4.035   9.565  0.00  0.00    +0.000 A 
ATOM      7  C   UNL     1      45.686   5.131   9.350  0.00  0.00    +0.000 A 
ATOM      8  N   UNL     1      45.981   6.053  10.295  0.00  0.00    +0.000 NA
BRANCH   6   9
ATOM      9  O   UNL     1      44.641   3.191   8.505  0.00  0.00    +0.000 OA
BRANCH   9  10
ATOM     10  C   UNL     1      45.716   2.646   7.841  0.00  0.00    +0.000 A 
ATOM     11  C   UNL     1      46.112   1.373   8.235  0.00  0.00    +0.000 A 
ATOM     12  C   UNL     1      47.201   0.804   7.598  0.00  0.00    +0.000 A 
ATOM     13  N   UNL     1      47.896   1.410   6.612  0.00  0.00    +0.000 NA
ATOM     14  C   UNL     1      47.464   2.628   6.223  0.00  0.00    +0.000 A 
ATOM     15  C   UNL     1      46.374   3.269   6.783  0.00  0.00    +0.000 A 
ENDBRANCH   9  10
ENDBRANCH   6   9
ENDBRANCH   2   3
BRANCH   2  16
ATOM     16  N   UNL     1      46.189   6.253  13.811  0.00  0.00    +0.000 N 
ATOM     17  C   UNL     1      47.455   5.757  13.972  0.00  0.00    +0.000 C 
ATOM     18  O   UNL     1      48.305   5.882  13.088  0.00  0.00    +0.000 OA
ATOM     19  H   UNL     1      45.470   6.092  14.514  0.00  0.00    +0.000 HD
BRANCH  17  20
ATOM     20  C   UNL     1      47.771   5.080  15.238  0.00  0.00    +0.000 A 
ATOM     21  C   UNL     1      47.188   3.846  15.508  0.00  0.00    +0.000 A 
ATOM     22  S   UNL     1      47.629   3.184  17.013  0.00  0.00    +0.000 S 
ATOM     23  C   UNL     1      48.609   4.525  17.375  0.00  0.00    +0.000 A 
ATOM     24  N   UNL     1      49.264   4.603  18.565  0.00  0.00    +0.000 NA
ATOM     25  C   UNL     1      49.962   5.678  18.720  0.00  0.00    +0.000 A 
ATOM     26  N   UNL     1      50.080   6.672  17.784  0.00  0.00    +0.000 N 
ATOM     27  C   UNL     1      49.465   6.617  16.555  0.00  0.00    +0.000 A 
ATOM     28  O   UNL     1      49.639   7.502  15.725  0.00  0.00    +0.000 OA
ATOM     29  C   UNL     1      48.625   5.452  16.346  0.00  0.00    +0.000 A 
ATOM     30  H   UNL     1      50.655   7.482  17.958  0.00  0.00    +0.000 HD
ENDBRANCH  17  20
ENDBRANCH   2  16
TORSDOF 5
ENDMDL
MODEL 3
REMARK VINA RESULT:    -7.603      1.974      2.763
REMARK INTER + INTRA:         -10.361
REMARK INTER:                  -9.879
REMARK INTRA:                  -0.481
REMARK UNBOUND:                -0.536
REMARK  Name = 
REMARK  6 active torsions:
REMARK  status: ('A' for Active; 'I' for Inactive)
REMARK    1  A    between atoms: C_1  and  C_2
REMARK    2  A    between atoms: C_2  and  N_3
REMARK    3  A    between atoms: C_2  and  C_16
REMARK    4  A    between atoms: C_4  and  C_6
REMARK    5  A    between atoms: C_19  and  O_20
REMARK    6  A    between atoms: O_20  and  C_21
REMARK                            x       y       z     vdW  Elec       q    Type
REMARK                         _______ _______ _______ _____ _____    ______ ____
ROOT
ATOM      1  C   UNL     1      47.545   8.088  11.988  0.00  0.00    +0.000 C 
ATOM      2  C   UNL     1      46.712   7.063  12.762  0.00  0.00    +0.000 C 
ENDROOT
BRANCH   2   3
ATOM      3  C   UNL     1      46.142   6.000  11.831  0.00  0.00    +0.000 A 
ATOM      4  C   UNL     1      45.676   4.794  12.354  0.00  0.00    +0.000 A 
ATOM      5  C   UNL     1      45.162   3.831  11.485  0.00  0.00    +0.000 A 
ATOM      6  C   UNL     1      45.170   4.069  10.113  0.00  0.00    +0.000 A 
ATOM      7  C   UNL     1      45.651   5.292   9.675  0.00  0.00    +0.000 A 
ATOM      8  N   UNL     1      46.146   6.249  10.495  0.00  0.00    +0.000 NA
BRANCH   6   9
ATOM      9  O   UNL     1      44.681   3.202   9.167  0.00  0.00    +0.000 OA
BRANCH   9  10
ATOM     10  C   UNL     1      45.546   2.654   8.248  0.00  0.00    +0.000 A 
ATOM     11  C   UNL     1      45.949   1.343   8.474  0.00  0.00    +0.000 A 
ATOM     12  C   UNL     1      46.832   0.768   7.577  0.00  0.00    +0.000 A 
ATOM     13  N   UNL     1      47.320   1.405   6.492  0.00  0.00    +0.000 NA
ATOM     14  C   UNL     1      46.881   2.663   6.275  0.00  0.00    +0.000 A 
ATOM     15  C   UNL     1      45.983   3.314   7.101  0.00  0.00    +0.000 A 
ENDBRANCH   9  10
ENDBRANCH   6   9
ENDBRANCH   2   3
BRANCH   2  16
ATOM     16  N   UNL     1      47.504   6.439  13.811  0.00  0.00    +0.000 N 
ATOM     17  C   UNL     1      48.074   7.146  14.835  0.00  0.00    +0.000 C 
ATOM     18  O   UNL     1      47.921   8.366  14.928  0.00  0.00    +0.000 OA
ATOM     19  H   UNL     1      47.686   5.443  13.698  0.00  0.00    +0.000 HD
BRANCH  17  20
ATOM     20  C   UNL     1      48.867   6.404  15.826  0.00  0.00    +0.000 A 
ATOM     21  C   UNL     1      50.043   6.967  16.309  0.00  0.00    +0.000 A 
ATOM     22  S   UNL     1      50.868   5.993  17.437  0.00  0.00    +0.000 S 
ATOM     23  C   UNL     1      49.694   4.770  17.317  0.00  0.00    +0.000 A 
ATOM     24  N   UNL     1      49.825   3.613  18.021  0.00  0.00    +0.000 NA
ATOM     25  C   UNL     1      48.873   2.762  17.830  0.00  0.00    +0.000 A 
ATOM     26  N   UNL     1      47.792   2.972  17.014  0.00  0.00    +0.000 N 
ATOM     27  C   UNL     1      47.601   4.139  16.313  0.00  0.00    +0.000 A 
ATOM     28  O   UNL     1      46.593   4.309  15.637  0.00  0.00    +0.000 OA
ATOM     29  C   UNL     1      48.668   5.113  16.452  0.00  0.00    +0.000 A 
ATOM     30  H   UNL     1      47.071   2.272  16.919  0.00  0.00    +0.000 HD
ENDBRANCH  17  20
ENDBRANCH   2  16
TORSDOF 5
ENDMDL
MODEL 4
REMARK VINA RESULT:    -7.526      3.647      6.175
REMARK INTER + INTRA:         -10.262
REMARK INTER:                  -9.160
REMARK INTRA:                  -1.102
REMARK UNBOUND:                -0.536
REMARK  Name = 
REMARK  6 active torsions:
REMARK  status: ('A' for Active; 'I' for Inactive)
REMARK    1  A    between atoms: C_1  and  C_2
REMARK    2  A    between atoms: C_2  and  N_3
REMARK    3  A    between atoms: C_2  and  C_16
REMARK    4  A    between atoms: C_4  and  C_6
REMARK    5  A    between atoms: C_19  and  O_20
REMARK    6  A    between atoms: O_20  and  C_21
REMARK                            x       y       z     vdW  Elec       q    Type
REMARK                         _______ _______ _______ _____ _____    ______ ____
ROOT
ATOM      1  C   UNL     1      50.090   7.723  15.331  0.00  0.00    +0.000 C 
ATOM      2  C   UNL     1      49.432   6.621  16.164  0.00  0.00    +0.000 C 
ENDROOT
BRANCH   2   3
ATOM      3  C   UNL     1      48.409   5.846  15.342  0.00  0.00    +0.000 A 
ATOM      4  C   UNL     1      47.991   6.340  14.107  0.00  0.00    +0.000 A 
ATOM      5  C   UNL     1      47.050   5.619  13.372  0.00  0.00    +0.000 A 
ATOM      6  C   UNL     1      46.509   4.452  13.904  0.00  0.00    +0.000 A 
ATOM      7  C   UNL     1      46.977   4.031  15.139  0.00  0.00    +0.000 A 
ATOM      8  N   UNL     1      47.897   4.703  15.870  0.00  0.00    +0.000 NA
BRANCH   6   9
ATOM      9  O   UNL     1      45.588   3.656  13.269  0.00  0.00    +0.000 OA
BRANCH   9  10
ATOM     10  C   UNL     1      44.606   4.244  12.505  0.00  0.00    +0.000 A 
ATOM     11  C   UNL     1      44.728   4.117  11.126  0.00  0.00    +0.000 A 
ATOM     12  C   UNL     1      43.765   4.712  10.329  0.00  0.00    +0.000 A 
ATOM     13  N   UNL     1      42.712   5.403  10.813  0.00  0.00    +0.000 NA
ATOM     14  C   UNL     1      42.597   5.477  12.156  0.00  0.00    +0.000 A 
ATOM     15  C   UNL     1      43.495   4.897  13.034  0.00  0.00    +0.000 A 
ENDBRANCH   9  10
ENDBRANCH   6   9
ENDBRANCH   2   3
BRANCH   2  16
ATOM     16  N   UNL     1      50.432   5.714  16.706  0.00  0.00    +0.000 N 
ATOM     17  C   UNL     1      50.585   5.488  18.047  0.00  0.00    +0.000 C 
ATOM     18  O   UNL     1      49.852   6.038  18.873  0.00  0.00    +0.000 OA
ATOM     19  H   UNL     1      51.080   5.312  16.030  0.00  0.00    +0.000 HD
BRANCH  17  20
ATOM     20  C   UNL     1      51.645   4.562  18.472  0.00  0.00    +0.000 A 
ATOM     21  C   UNL     1      52.635   5.018  19.336  0.00  0.00    +0.000 A 
ATOM     22  S   UNL     1      53.805   3.847  19.732  0.00  0.00    +0.000 S 
ATOM     23  C   UNL     1      53.045   2.681  18.756  0.00  0.00    +0.000 A 
ATOM     24  N   UNL     1      53.575   1.435  18.625  0.00  0.00    +0.000 NA
ATOM     25  C   UNL     1      52.909   0.651  17.845  0.00  0.00    +0.000 A 
ATOM     26  N   UNL     1      51.749   0.995  17.200  0.00  0.00    +0.000 N 
ATOM     27  C   UNL     1      51.160   2.231  17.332  0.00  0.00    +0.000 A 
ATOM     28  O   UNL     1      50.093   2.481  16.782  0.00  0.00    +0.000 OA
ATOM     29  C   UNL     1      51.894   3.170  18.160  0.00  0.00    +0.000 A 
ATOM     30  H   UNL     1      51.265   0.331  16.615  0.00  0.00    +0.000 HD
ENDBRANCH  17  20
ENDBRANCH   2  16
TORSDOF 5
ENDMDL
MODEL 5
REMARK VINA RESULT:    -7.318      4.061      8.783
REMARK INTER + INTRA:          -9.993
REMARK INTER:                  -9.252
REMARK INTRA:                  -0.741
REMARK UNBOUND:                -0.536
REMARK  Name = 
REMARK  6 active torsions:
REMARK  status: ('A' for Active; 'I' for Inactive)
REMARK    1  A    between atoms: C_1  and  C_2
REMARK    2  A    between atoms: C_2  and  N_3
REMARK    3  A    between atoms: C_2  and  C_16
REMARK    4  A    between atoms: C_4  and  C_6
REMARK    5  A    between atoms: C_19  and  O_20
REMARK    6  A    between atoms: O_20  and  C_21
REMARK                            x       y       z     vdW  Elec       q    Type
REMARK                         _______ _______ _______ _____ _____    ______ ____
ROOT
ATOM      1  C   UNL     1      48.359   6.314  18.466  0.00  0.00    +0.000 C 
ATOM      2  C   UNL     1      49.050   5.942  17.152  0.00  0.00    +0.000 C 
ENDROOT
BRANCH   2   3
ATOM      3  C   UNL     1      49.785   4.612  17.273  0.00  0.00    +0.000 A 
ATOM      4  C   UNL     1      51.128   4.591  17.648  0.00  0.00    +0.000 A 
ATOM      5  C   UNL     1      51.785   3.364  17.749  0.00  0.00    +0.000 A 
ATOM      6  C   UNL     1      51.106   2.193  17.426  0.00  0.00    +0.000 A 
ATOM      7  C   UNL     1      49.774   2.301  17.061  0.00  0.00    +0.000 A 
ATOM      8  N   UNL     1      49.107   3.475  16.965  0.00  0.00    +0.000 NA
BRANCH   6   9
ATOM      9  O   UNL     1      51.645   0.932  17.499  0.00  0.00    +0.000 OA
BRANCH   9  10
ATOM     10  C   UNL     1      53.009   0.789  17.607  0.00  0.00    +0.000 A 
ATOM     11  C   UNL     1      53.679   0.330  16.478  0.00  0.00    +0.000 A 
ATOM     12  C   UNL     1      55.050   0.160  16.560  0.00  0.00    +0.000 A 
ATOM     13  N   UNL     1      55.775   0.420  17.668  0.00  0.00    +0.000 NA
ATOM     14  C   UNL     1      55.104   0.902  18.735  0.00  0.00    +0.000 A 
ATOM     15  C   UNL     1      53.739   1.126  18.744  0.00  0.00    +0.000 A 
ENDBRANCH   9  10
ENDBRANCH   6   9
ENDBRANCH   2   3
BRANCH   2  16
ATOM     16  N   UNL     1      48.091   5.888  16.059  0.00  0.00    +0.000 N 
ATOM     17  C   UNL     1      48.384   6.308  14.789  0.00  0.00    +0.000 C 
ATOM     18  O   UNL     1      49.504   6.740  14.504  0.00  0.00    +0.000 OA
ATOM     19  H   UNL     1      47.149   5.595  16.309  0.00  0.00    +0.000 HD
BRANCH  17  20
ATOM     20  C   UNL     1      47.324   6.219  13.774  0.00  0.00    +0.000 A 
ATOM     21  C   UNL     1      46.878   7.385  13.161  0.00  0.00    +0.000 A 
ATOM     22  S   UNL     1      45.639   7.138  12.019  0.00  0.00    +0.000 S 
ATOM     23  C   UNL     1      45.637   5.463  12.305  0.00  0.00    +0.000 A 
ATOM     24  N   UNL     1      44.761   4.650  11.656  0.00  0.00    +0.000 NA
ATOM     25  C   UNL     1      44.854   3.402  11.974  0.00  0.00    +0.000 A 
ATOM     26  N   UNL     1      45.758   2.892  12.868  0.00  0.00    +0.000 N 
ATOM     27  C   UNL     1      46.685   3.671  13.520  0.00  0.00    +0.000 A 
ATOM     28  O   UNL     1      47.512   3.168  14.272  0.00  0.00    +0.000 OA
ATOM     29  C   UNL     1      46.592   5.092  13.237  0.00  0.00    +0.000 A 
ATOM     30  H   UNL     1      45.792   1.902  13.063  0.00  0.00    +0.000 HD
ENDBRANCH  17  20
ENDBRANCH   2  16
TORSDOF 5
ENDMDL
MODEL 6
REMARK VINA RESULT:    -7.274      2.345      3.587
REMARK INTER + INTRA:          -9.936
REMARK INTER:                  -8.842
REMARK INTRA:                  -1.094
REMARK UNBOUND:                -0.536
REMARK  Name = 
REMARK  6 active torsions:
REMARK  status: ('A' for Active; 'I' for Inactive)
REMARK    1  A    between atoms: C_1  and  C_2
REMARK    2  A    between atoms: C_2  and  N_3
REMARK    3  A    between atoms: C_2  and  C_16
REMARK    4  A    between atoms: C_4  and  C_6
REMARK    5  A    between atoms: C_19  and  O_20
REMARK    6  A    between atoms: O_20  and  C_21
REMARK                            x       y       z     vdW  Elec       q    Type
REMARK                         _______ _______ _______ _____ _____    ______ ____
ROOT
ATOM      1  C   UNL     1      48.241   9.008  12.996  0.00  0.00    +0.000 C 
ATOM      2  C   UNL     1      47.436   8.007  13.829  0.00  0.00    +0.000 C 
ENDROOT
BRANCH   2   3
ATOM      3  C   UNL     1      46.533   7.156  12.944  0.00  0.00    +0.000 A 
ATOM      4  C   UNL     1      45.601   7.770  12.107  0.00  0.00    +0.000 A 
ATOM      5  C   UNL     1      44.779   6.974  11.308  0.00  0.00    +0.000 A 
ATOM      6  C   UNL     1      44.867   5.587  11.399  0.00  0.00    +0.000 A 
ATOM      7  C   UNL     1      45.818   5.058  12.257  0.00  0.00    +0.000 A 
ATOM      8  N   UNL     1      46.636   5.805  13.036  0.00  0.00    +0.000 NA
BRANCH   6   9
ATOM      9  O   UNL     1      44.120   4.707  10.656  0.00  0.00    +0.000 OA
BRANCH   9  10
ATOM     10  C   UNL     1      44.751   3.897   9.740  0.00  0.00    +0.000 A 
ATOM     11  C   UNL     1      45.460   4.535   8.728  0.00  0.00    +0.000 A 
ATOM     12  C   UNL     1      46.091   3.749   7.780  0.00  0.00    +0.000 A 
ATOM     13  N   UNL     1      46.064   2.399   7.785  0.00  0.00    +0.000 NA
ATOM     14  C   UNL     1      45.402   1.807   8.801  0.00  0.00    +0.000 A 
ATOM     15  C   UNL     1      44.759   2.506   9.806  0.00  0.00    +0.000 A 
ENDBRANCH   9  10
ENDBRANCH   6   9
ENDBRANCH   2   3
BRANCH   2  16
ATOM     16  N   UNL     1      48.319   7.156  14.611  0.00  0.00    +0.000 N 
ATOM     17  C   UNL     1      48.765   7.494  15.861  0.00  0.00    +0.000 C 
ATOM     18  O   UNL     1      48.415   8.546  16.399  0.00  0.00    +0.000 OA
ATOM     19  H   UNL     1      48.662   6.320  14.142  0.00  0.00    +0.000 HD
BRANCH  17  20
ATOM     20  C   UNL     1      49.669   6.557  16.544  0.00  0.00    +0.000 A 
ATOM     21  C   UNL     1      50.910   7.012  16.979  0.00  0.00    +0.000 A 
ATOM     22  S   UNL     1      51.859   5.819  17.739  0.00  0.00    +0.000 S 
ATOM     23  C   UNL     1      50.656   4.640  17.508  0.00  0.00    +0.000 A 
ATOM     24  N   UNL     1      50.858   3.356  17.911  0.00  0.00    +0.000 NA
ATOM     25  C   UNL     1      49.874   2.559  17.664  0.00  0.00    +0.000 A 
ATOM     26  N   UNL     1      48.698   2.934  17.069  0.00  0.00    +0.000 N 
ATOM     27  C   UNL     1      48.437   4.226  16.678  0.00  0.00    +0.000 A 
ATOM     28  O   UNL     1      47.351   4.532  16.199  0.00  0.00    +0.000 OA
ATOM     29  C   UNL     1      49.531   5.157  16.887  0.00  0.00    +0.000 A 
ATOM     30  H   UNL     1      47.957   2.265  16.917  0.00  0.00    +0.000 HD
ENDBRANCH  17  20
ENDBRANCH   2  16
TORSDOF 5
ENDMDL
MODEL 7
REMARK VINA RESULT:    -7.242      2.879      3.945
REMARK INTER + INTRA:          -9.895
REMARK INTER:                  -8.962
REMARK INTRA:                  -0.932
REMARK UNBOUND:                -0.536
REMARK  Name = 
REMARK  6 active torsions:
REMARK  status: ('A' for Active; 'I' for Inactive)
REMARK    1  A    between atoms: C_1  and  C_2
REMARK    2  A    between atoms: C_2  and  N_3
REMARK    3  A    between atoms: C_2  and  C_16
REMARK    4  A    between atoms: C_4  and  C_6
REMARK    5  A    between atoms: C_19  and  O_20
REMARK    6  A    between atoms: O_20  and  C_21
REMARK                            x       y       z     vdW  Elec       q    Type
REMARK                         _______ _______ _______ _____ _____    ______ ____
ROOT
ATOM      1  C   UNL     1      47.135   3.997  16.420  0.00  0.00    +0.000 C 
ATOM      2  C   UNL     1      47.692   4.828  15.261  0.00  0.00    +0.000 C 
ENDROOT
BRANCH   2   3
ATOM      3  C   UNL     1      46.846   4.658  14.005  0.00  0.00    +0.000 A 
ATOM      4  C   UNL     1      46.496   5.774  13.246  0.00  0.00    +0.000 A 
ATOM      5  C   UNL     1      45.717   5.599  12.102  0.00  0.00    +0.000 A 
ATOM      6  C   UNL     1      45.263   4.326  11.768  0.00  0.00    +0.000 A 
ATOM      7  C   UNL     1      45.655   3.271  12.576  0.00  0.00    +0.000 A 
ATOM      8  N   UNL     1      46.418   3.409  13.685  0.00  0.00    +0.000 NA
BRANCH   6   9
ATOM      9  O   UNL     1      44.502   4.033  10.663  0.00  0.00    +0.000 OA
BRANCH   9  10
ATOM     10  C   UNL     1      45.121   3.564   9.527  0.00  0.00    +0.000 A 
ATOM     11  C   UNL     1      45.186   2.184   9.376  0.00  0.00    +0.000 A 
ATOM     12  C   UNL     1      45.817   1.681   8.251  0.00  0.00    +0.000 A 
ATOM     13  N   UNL     1      46.367   2.453   7.291  0.00  0.00    +0.000 NA
ATOM     14  C   UNL     1      46.254   3.789   7.444  0.00  0.00    +0.000 A 
ATOM     15  C   UNL     1      45.623   4.386   8.520  0.00  0.00    +0.000 A 
ENDBRANCH   9  10
ENDBRANCH   6   9
ENDBRANCH   2   3
BRANCH   2  16
ATOM     16  N   UNL     1      47.774   6.234  15.625  0.00  0.00    +0.000 N 
ATOM     17  C   UNL     1      48.955   6.858  15.926  0.00  0.00    +0.000 C 
ATOM     18  O   UNL     1      50.027   6.249  15.881  0.00  0.00    +0.000 OA
ATOM     19  H   UNL     1      46.885   6.720  15.727  0.00  0.00    +0.000 HD
BRANCH  17  20
ATOM     20  C   UNL     1      48.906   8.280  16.296  0.00  0.00    +0.000 A 
ATOM     21  C   UNL     1      49.454   9.222  15.432  0.00  0.00    +0.000 A 
ATOM     22  S   UNL     1      49.343  10.827  15.992  0.00  0.00    +0.000 S 
ATOM     23  C   UNL     1      48.568  10.329  17.421  0.00  0.00    +0.000 A 
ATOM     24  N   UNL     1      48.223  11.236  18.374  0.00  0.00    +0.000 NA
ATOM     25  C   UNL     1      47.654  10.727  19.415  0.00  0.00    +0.000 A 
ATOM     26  N   UNL     1      47.382   9.394  19.580  0.00  0.00    +0.000 N 
ATOM     27  C   UNL     1      47.682   8.448  18.628  0.00  0.00    +0.000 A 
ATOM     28  O   UNL     1      47.372   7.273  18.791  0.00  0.00    +0.000 OA
ATOM     29  C   UNL     1      48.368   8.959  17.456  0.00  0.00    +0.000 A 
ATOM     30  H   UNL     1      46.920   9.059  20.412  0.00  0.00    +0.000 HD
ENDBRANCH  17  20
ENDBRANCH   2  16
TORSDOF 5
ENDMDL
MODEL 8
REMARK VINA RESULT:    -7.194      3.979      8.514
REMARK INTER + INTRA:          -9.832
REMARK INTER:                  -8.777
REMARK INTRA:                  -1.055
REMARK UNBOUND:                -0.536
REMARK  Name = 
REMARK  6 active torsions:
REMARK  status: ('A' for Active; 'I' for Inactive)
REMARK    1  A    between atoms: C_1  and  C_2
REMARK    2  A    between atoms: C_2  and  N_3
REMARK    3  A    between atoms: C_2  and  C_16
REMARK    4  A    between atoms: C_4  and  C_6
REMARK    5  A    between atoms: C_19  and  O_20
REMARK    6  A    between atoms: O_20  and  C_21
REMARK                            x       y       z     vdW  Elec       q    Type
REMARK                         _______ _______ _______ _____ _____    ______ ____
ROOT
ATOM      1  C   UNL     1      48.270   8.895  14.990  0.00  0.00    +0.000 C 
ATOM      2  C   UNL     1      48.496   7.484  14.443  0.00  0.00    +0.000 C 
ENDROOT
BRANCH   2   3
ATOM      3  C   UNL     1      49.061   6.560  15.516  0.00  0.00    +0.000 A 
ATOM      4  C   UNL     1      50.319   6.815  16.061  0.00  0.00    +0.000 A 
ATOM      5  C   UNL     1      50.821   5.956  17.039  0.00  0.00    +0.000 A 
ATOM      6  C   UNL     1      50.083   4.837  17.414  0.00  0.00    +0.000 A 
ATOM      7  C   UNL     1      48.843   4.655  16.823  0.00  0.00    +0.000 A 
ATOM      8  N   UNL     1      48.326   5.477  15.880  0.00  0.00    +0.000 NA
BRANCH   6   9
ATOM      9  O   UNL     1      50.470   3.930  18.371  0.00  0.00    +0.000 OA
BRANCH   9  10
ATOM     10  C   UNL     1      51.536   3.098  18.116  0.00  0.00    +0.000 A 
ATOM     11  C   UNL     1      51.242   1.866  17.542  0.00  0.00    +0.000 A 
ATOM     12  C   UNL     1      52.291   0.999  17.289  0.00  0.00    +0.000 A 
ATOM     13  N   UNL     1      53.582   1.283  17.560  0.00  0.00    +0.000 NA
ATOM     14  C   UNL     1      53.842   2.502  18.080  0.00  0.00    +0.000 A 
ATOM     15  C   UNL     1      52.866   3.444  18.347  0.00  0.00    +0.000 A 
ENDBRANCH   9  10
ENDBRANCH   6   9
ENDBRANCH   2   3
BRANCH   2  16
ATOM     16  N   UNL     1      47.262   6.933  13.904  0.00  0.00    +0.000 N 
ATOM     17  C   UNL     1      46.964   6.937  12.568  0.00  0.00    +0.000 C 
ATOM     18  O   UNL     1      47.755   7.399  11.741  0.00  0.00    +0.000 OA
ATOM     19  H   UNL     1      46.581   6.612  14.591  0.00  0.00    +0.000 HD
BRANCH  17  20
ATOM     20  C   UNL     1      45.676   6.366  12.149  0.00  0.00    +0.000 A 
ATOM     21  C   UNL     1      44.731   7.195  11.554  0.00  0.00    +0.000 A 
ATOM     22  S   UNL     1      43.281   6.407  11.134  0.00  0.00    +0.000 S 
ATOM     23  C   UNL     1      43.850   4.925  11.741  0.00  0.00    +0.000 A 
ATOM     24  N   UNL     1      43.060   3.817  11.718  0.00  0.00    +0.000 NA
ATOM     25  C   UNL     1      43.605   2.762  12.221  0.00  0.00    +0.000 A 
ATOM     26  N   UNL     1      44.878   2.709  12.728  0.00  0.00    +0.000 N 
ATOM     27  C   UNL     1      45.723   3.794  12.740  0.00  0.00    +0.000 A 
ATOM     28  O   UNL     1      46.873   3.691  13.152  0.00  0.00    +0.000 OA
ATOM     29  C   UNL     1      45.142   5.022  12.229  0.00  0.00    +0.000 A 
ATOM     30  H   UNL     1      45.254   1.847  13.094  0.00  0.00    +0.000 HD
ENDBRANCH  17  20
ENDBRANCH   2  16
TORSDOF 5
ENDMDL
MODEL 9
REMARK VINA RESULT:    -7.139      3.205      4.766
REMARK INTER + INTRA:          -9.761
REMARK INTER:                  -8.976
REMARK INTRA:                  -0.786
REMARK UNBOUND:                -0.536
REMARK  Name = 
REMARK  6 active torsions:
REMARK  status: ('A' for Active; 'I' for Inactive)
REMARK    1  A    between atoms: C_1  and  C_2
REMARK    2  A    between atoms: C_2  and  N_3
REMARK    3  A    between atoms: C_2  and  C_16
REMARK    4  A    between atoms: C_4  and  C_6
REMARK    5  A    between atoms: C_19  and  O_20
REMARK    6  A    between atoms: O_20  and  C_21
REMARK                            x       y       z     vdW  Elec       q    Type
REMARK                         _______ _______ _______ _____ _____    ______ ____
ROOT
ATOM      1  C   UNL     1      47.691   3.247  16.408  0.00  0.00    +0.000 C 
ATOM      2  C   UNL     1      47.953   4.645  15.842  0.00  0.00    +0.000 C 
ENDROOT
BRANCH   2   3
ATOM      3  C   UNL     1      47.136   4.890  14.579  0.00  0.00    +0.000 A 
ATOM      4  C   UNL     1      47.483   5.929  13.717  0.00  0.00    +0.000 A 
ATOM      5  C   UNL     1      46.720   6.141  12.568  0.00  0.00    +0.000 A 
ATOM      6  C   UNL     1      45.601   5.348  12.331  0.00  0.00    +0.000 A 
ATOM      7  C   UNL     1      45.324   4.338  13.239  0.00  0.00    +0.000 A 
ATOM      8  N   UNL     1      46.051   4.103  14.355  0.00  0.00    +0.000 NA
BRANCH   6   9
ATOM      9  O   UNL     1      44.784   5.457  11.232  0.00  0.00    +0.000 OA
BRANCH   9  10
ATOM     10  C   UNL     1      44.920   4.554  10.203  0.00  0.00    +0.000 A 
ATOM     11  C   UNL     1      45.706   4.949   9.126  0.00  0.00    +0.000 A 
ATOM     12  C   UNL     1      45.849   4.070   8.067  0.00  0.00    +0.000 A 
ATOM     13  N   UNL     1      45.273   2.850   8.021  0.00  0.00    +0.000 NA
ATOM     14  C   UNL     1      44.548   2.478   9.096  0.00  0.00    +0.000 A 
ATOM     15  C   UNL     1      44.366   3.276  10.211  0.00  0.00    +0.000 A 
ENDBRANCH   9  10
ENDBRANCH   6   9
ENDBRANCH   2   3
BRANCH   2  16
ATOM     16  N   UNL     1      47.662   5.668  16.835  0.00  0.00    +0.000 N 
ATOM     17  C   UNL     1      48.637   6.307  17.553  0.00  0.00    +0.000 C 
ATOM     18  O   UNL     1      49.830   6.055  17.373  0.00  0.00    +0.000 OA
ATOM     19  H   UNL     1      46.676   5.830  17.032  0.00  0.00    +0.000 HD
BRANCH  17  20
ATOM     20  C   UNL     1      48.216   7.312  18.541  0.00  0.00    +0.000 A 
ATOM     21  C   UNL     1      48.009   6.917  19.859  0.00  0.00    +0.000 A 
ATOM     22  S   UNL     1      47.509   8.177  20.891  0.00  0.00    +0.000 S 
ATOM     23  C   UNL     1      47.535   9.302  19.616  0.00  0.00    +0.000 A 
ATOM     24  N   UNL     1      47.169  10.595  19.826  0.00  0.00    +0.000 NA
ATOM     25  C   UNL     1      47.219  11.341  18.774  0.00  0.00    +0.000 A 
ATOM     26  N   UNL     1      47.623  10.915  17.535  0.00  0.00    +0.000 N 
ATOM     27  C   UNL     1      48.035   9.627  17.286  0.00  0.00    +0.000 A 
ATOM     28  O   UNL     1      48.441   9.300  16.177  0.00  0.00    +0.000 OA
ATOM     29  C   UNL     1      47.951   8.731  18.425  0.00  0.00    +0.000 A 
ATOM     30  H   UNL     1      47.657  11.552  16.754  0.00  0.00    +0.000 HD
ENDBRANCH  17  20
ENDBRANCH   2  16
TORSDOF 5
ENDMDL
