MODEL 1
REMARK VINA RESULT:    -7.463      0.000      0.000
REMARK INTER + INTRA:         -11.664
REMARK INTER:                 -10.518
REMARK INTRA:                  -1.146
REMARK UNBOUND:                -1.146
REMARK  Name = 
REMARK  8 active torsions:
REMARK  status: ('A' for Active; 'I' for Inactive)
REMARK    1  A    between atoms: C_1  and  N_2
REMARK    2  A    between atoms: N_2  and  C_3
REMARK    3  A    between atoms: C_3  and  C_4
REMARK    4  A    between atoms: C_7  and  C_8
REMARK    5  A    between atoms: C_8  and  C_9
REMARK    6  A    between atoms: C_9  and  N_10
REMARK    7  A    between atoms: N_10  and  C_11
REMARK    8  A    between atoms: C_18  and  C_20
REMARK                            x       y       z     vdW  Elec       q    Type
REMARK                         _______ _______ _______ _____ _____    ______ ____
ROOT
ATOM      1  C   UNL     1      47.236   6.130  12.332  0.00  0.00    +0.000 C 
ENDROOT
BRANCH   1   2
ATOM      2  C   UNL     1      47.445   5.582  13.711  0.00  0.00    +0.000 A 
ATOM      3  C   UNL     1      48.179   6.267  14.679  0.00  0.00    +0.000 A 
ATOM      4  C   UNL     1      48.273   5.749  15.971  0.00  0.00    +0.000 A 
ATOM      5  C   UNL     1      47.627   4.552  16.260  0.00  0.00    +0.000 A 
ATOM      6  N   UNL     1      46.911   3.878  15.326  0.00  0.00    +0.000 NA
ATOM      7  C   UNL     1      46.849   4.386  14.083  0.00  0.00    +0.000 A 
BRANCH   5   8
ATOM      8  C   UNL     1      47.656   3.954  17.652  0.00  0.00    +0.000 C 
BRANCH   8   9
ATOM      9  C   UNL     1      48.842   4.543  18.430  0.00  0.00    +0.000 C 
BRANCH   9  10
ATOM     10  N   UNL     1      49.874   3.571  18.826  0.00  0.00    +0.000 NA
ATOM     11  H   UNL     1      49.425   2.675  19.014  0.00  0.00    +0.000 HD
BRANCH  10  12
ATOM     12  C   UNL     1      50.836   3.397  17.711  0.00  0.00    +0.000 C 
ATOM     13  C   UNL     1      50.605   2.088  16.969  0.00  0.00    +0.000 C 
ATOM     14  C   UNL     1      51.503   1.111  17.699  0.00  0.00    +0.000 C 
ATOM     15  N   UNL     1      52.733   1.865  17.961  0.00  0.00    +0.000 NA
ATOM     16  C   UNL     1      52.313   3.265  18.157  0.00  0.00    +0.000 C 
ATOM     17  H   UNL     1      53.339   1.818  17.144  0.00  0.00    +0.000 HD
ENDBRANCH  10  12
ENDBRANCH   9  10
ENDBRANCH   8   9
ENDBRANCH   5   8
ENDBRANCH   1   2
BRANCH   1  19
ATOM     18  C   UNL     1      46.314   8.501  12.322  0.00  0.00    +0.000 C 
ATOM     19  N   UNL     1      46.116   7.063  12.155  0.00  0.00    +0.000 N 
ATOM     20  C   UNL     1      44.856   6.685  11.660  0.00  0.00    +0.000 C 
ATOM     21  O   UNL     1      43.998   7.528  11.404  0.00  0.00    +0.000 OA
BRANCH  20  22
ATOM     22  C   UNL     1      44.539   5.262  11.486  0.00  0.00    +0.000 A 
ATOM     23  C   UNL     1      43.775   4.512  12.364  0.00  0.00    +0.000 A 
ATOM     24  S   UNL     1      43.514   2.905  11.845  0.00  0.00    +0.000 S 
ATOM     25  C   UNL     1      44.293   3.201  10.365  0.00  0.00    +0.000 A 
ATOM     26  N   UNL     1      44.335   2.255   9.387  0.00  0.00    +0.000 NA
ATOM     27  C   UNL     1      44.899   2.651   8.293  0.00  0.00    +0.000 A 
ATOM     28  N   UNL     1      45.464   3.886   8.101  0.00  0.00    +0.000 N 
ATOM     29  C   UNL     1      45.569   4.827   9.107  0.00  0.00    +0.000 A 
ATOM     30  O   UNL     1      46.285   5.813   8.979  0.00  0.00    +0.000 OA
ATOM     31  C   UNL     1      44.832   4.474  10.310  0.00  0.00    +0.000 A 
ATOM     32  H   UNL     1      45.944   4.105   7.243  0.00  0.00    +0.000 HD
ENDBRANCH  20  22
ENDBRANCH   1  19
TORSDOF 7
ENDMDL
MODEL 2
REMARK VINA RESULT:    -7.299      1.416      2.205
REMARK INTER + INTRA:         -11.432
REMARK INTER:                  -9.999
REMARK INTRA:                  -1.432
REMARK UNBOUND:                -1.146
REMARK  Name = 
REMARK  8 active torsions:
REMARK  status: ('A' for Active; 'I' for Inactive)
REMARK    1  A    between atoms: C_1  and  N_2
REMARK    2  A    between atoms: N_2  and  C_3
REMARK    3  A    between atoms: C_3  and  C_4
REMARK    4  A    between atoms: C_7  and  C_8
REMARK    5  A    between atoms: C_8  and  C_9
REMARK    6  A    between atoms: C_9  and  N_10
REMARK    7  A    between atoms: N_10  and  C_11
REMARK    8  A    between atoms: C_18  and  C_20
REMARK                            x       y       z     vdW  Elec       q    Type
REMARK                         _______ _______ _______ _____ _____    ______ ____
ROOT
ATOM      1  C   UNL     1      47.311   6.357  12.016  0.00  0.00    +0.000 C 
ENDROOT
BRANCH   1   2
ATOM      2  C   UNL     1      48.201   6.551  13.206  0.00  0.00    +0.000 A 
ATOM      3  C   UNL     1      49.375   7.302  13.140  0.00  0.00    +0.000 A 
ATOM      4  C   UNL     1      50.124   7.518  14.297  0.00  0.00    +0.000 A 
ATOM      5  C   UNL     1      49.675   6.974  15.495  0.00  0.00    +0.000 A 
ATOM      6  N   UNL     1      48.536   6.243  15.570  0.00  0.00    +0.000 NA
ATOM      7  C   UNL     1      47.839   6.031  14.440  0.00  0.00    +0.000 A 
BRANCH   5   8
ATOM      8  C   UNL     1      50.419   7.203  16.795  0.00  0.00    +0.000 C 
BRANCH   8   9
ATOM      9  C   UNL     1      50.140   6.031  17.748  0.00  0.00    +0.000 C 
BRANCH   9  10
ATOM     10  N   UNL     1      50.381   4.694  17.181  0.00  0.00    +0.000 NA
ATOM     11  H   UNL     1      51.379   4.492  17.230  0.00  0.00    +0.000 HD
BRANCH  10  12
ATOM     12  C   UNL     1      49.650   3.683  17.984  0.00  0.00    +0.000 C 
ATOM     13  C   UNL     1      49.102   2.562  17.112  0.00  0.00    +0.000 C 
ATOM     14  C   UNL     1      47.718   3.052  16.744  0.00  0.00    +0.000 C 
ATOM     15  N   UNL     1      47.199   3.655  17.975  0.00  0.00    +0.000 NA
ATOM     16  C   UNL     1      48.370   4.219  18.672  0.00  0.00    +0.000 C 
ATOM     17  H   UNL     1      46.790   2.929  18.561  0.00  0.00    +0.000 HD
ENDBRANCH  10  12
ENDBRANCH   9  10
ENDBRANCH   8   9
ENDBRANCH   5   8
ENDBRANCH   1   2
BRANCH   1  19
ATOM     18  C   UNL     1      46.312   8.696  11.959  0.00  0.00    +0.000 C 
ATOM     19  N   UNL     1      46.146   7.245  11.911  0.00  0.00    +0.000 N 
ATOM     20  C   UNL     1      44.851   6.800  11.594  0.00  0.00    +0.000 C 
ATOM     21  O   UNL     1      43.940   7.601  11.385  0.00  0.00    +0.000 OA
BRANCH  20  22
ATOM     22  C   UNL     1      44.566   5.361  11.551  0.00  0.00    +0.000 A 
ATOM     23  C   UNL     1      43.883   4.664  12.534  0.00  0.00    +0.000 A 
ATOM     24  S   UNL     1      43.636   3.015  12.160  0.00  0.00    +0.000 S 
ATOM     25  C   UNL     1      44.308   3.212  10.612  0.00  0.00    +0.000 A 
ATOM     26  N   UNL     1      44.313   2.194   9.709  0.00  0.00    +0.000 NA
ATOM     27  C   UNL     1      44.793   2.515   8.552  0.00  0.00    +0.000 A 
ATOM     28  N   UNL     1      45.307   3.745   8.228  0.00  0.00    +0.000 N 
ATOM     29  C   UNL     1      45.450   4.765   9.149  0.00  0.00    +0.000 A 
ATOM     30  O   UNL     1      46.127   5.755   8.897  0.00  0.00    +0.000 OA
ATOM     31  C   UNL     1      44.804   4.490  10.423  0.00  0.00    +0.000 A 
ATOM     32  H   UNL     1      45.723   3.908   7.325  0.00  0.00    +0.000 HD
ENDBRANCH  20  22
ENDBRANCH   1  19
TORSDOF 7
ENDMDL
MODEL 3
REMARK VINA RESULT:    -7.267      1.566      2.366
REMARK INTER + INTRA:         -11.387
REMARK INTER:                 -10.280
REMARK INTRA:                  -1.107
REMARK UNBOUND:                -1.146
REMARK  Name = 
REMARK  8 active torsions:
REMARK  status: ('A' for Active; 'I' for Inactive)
REMARK    1  A    between atoms: C_1  and  N_2
REMARK    2  A    between atoms: N_2  and  C_3
REMARK    3  A    between atoms: C_3  and  C_4
REMARK    4  A    between atoms: C_7  and  C_8
REMARK    5  A    between atoms: C_8  and  C_9
REMARK    6  A    between atoms: C_9  and  N_10
REMARK    7  A    between atoms: N_10  and  C_11
REMARK    8  A    between atoms: C_18  and  C_20
REMARK                            x       y       z     vdW  Elec       q    Type
REMARK                         _______ _______ _______ _____ _____    ______ ____
ROOT
ATOM      1  C   UNL     1      47.351   6.104  12.243  0.00  0.00    +0.000 C 
ENDROOT
BRANCH   1   2
ATOM      2  C   UNL     1      47.475   5.401  13.561  0.00  0.00    +0.000 A 
ATOM      3  C   UNL     1      47.912   6.056  14.713  0.00  0.00    +0.000 A 
ATOM      4  C   UNL     1      47.932   5.374  15.931  0.00  0.00    +0.000 A 
ATOM      5  C   UNL     1      47.513   4.049  15.961  0.00  0.00    +0.000 A 
ATOM      6  N   UNL     1      47.087   3.404  14.847  0.00  0.00    +0.000 NA
ATOM      7  C   UNL     1      47.094   4.073  13.682  0.00  0.00    +0.000 A 
BRANCH   5   8
ATOM      8  C   UNL     1      47.471   3.263  17.256  0.00  0.00    +0.000 C 
BRANCH   8   9
ATOM      9  C   UNL     1      48.657   3.681  18.138  0.00  0.00    +0.000 C 
BRANCH   9  10
ATOM     10  N   UNL     1      48.452   3.503  19.585  0.00  0.00    +0.000 NA
ATOM     11  H   UNL     1      48.918   2.644  19.878  0.00  0.00    +0.000 HD
BRANCH  10  12
ATOM     12  C   UNL     1      49.062   4.645  20.309  0.00  0.00    +0.000 C 
ATOM     13  C   UNL     1      48.031   5.399  21.137  0.00  0.00    +0.000 C 
ATOM     14  C   UNL     1      47.528   6.464  20.184  0.00  0.00    +0.000 C 
ATOM     15  N   UNL     1      48.730   6.931  19.486  0.00  0.00    +0.000 NA
ATOM     16  C   UNL     1      49.620   5.759  19.389  0.00  0.00    +0.000 C 
ATOM     17  H   UNL     1      49.190   7.645  20.047  0.00  0.00    +0.000 HD
ENDBRANCH  10  12
ENDBRANCH   9  10
ENDBRANCH   8   9
ENDBRANCH   5   8
ENDBRANCH   1   2
BRANCH   1  19
ATOM     18  C   UNL     1      46.485   8.496  12.213  0.00  0.00    +0.000 C 
ATOM     19  N   UNL     1      46.243   7.058  12.106  0.00  0.00    +0.000 N 
ATOM     20  C   UNL     1      44.946   6.697  11.704  0.00  0.00    +0.000 C 
ATOM     21  O   UNL     1      44.093   7.553  11.474  0.00  0.00    +0.000 OA
BRANCH  20  22
ATOM     22  C   UNL     1      44.586   5.278  11.596  0.00  0.00    +0.000 A 
ATOM     23  C   UNL     1      43.864   4.574  12.545  0.00  0.00    +0.000 A 
ATOM     24  S   UNL     1      43.532   2.959  12.097  0.00  0.00    +0.000 S 
ATOM     25  C   UNL     1      44.221   3.190  10.561  0.00  0.00    +0.000 A 
ATOM     26  N   UNL     1      44.176   2.214   9.613  0.00  0.00    +0.000 NA
ATOM     27  C   UNL     1      44.677   2.561   8.473  0.00  0.00    +0.000 A 
ATOM     28  N   UNL     1      45.256   3.776   8.205  0.00  0.00    +0.000 N 
ATOM     29  C   UNL     1      45.448   4.744   9.172  0.00  0.00    +0.000 A 
ATOM     30  O   UNL     1      46.177   5.708   8.966  0.00  0.00    +0.000 OA
ATOM     31  C   UNL     1      44.783   4.446  10.430  0.00  0.00    +0.000 A 
ATOM     32  H   UNL     1      45.684   3.956   7.311  0.00  0.00    +0.000 HD
ENDBRANCH  20  22
ENDBRANCH   1  19
TORSDOF 7
ENDMDL
MODEL 4
REMARK VINA RESULT:    -7.255      2.081      3.120
REMARK INTER + INTRA:         -11.370
REMARK INTER:                 -10.093
REMARK INTRA:                  -1.277
REMARK UNBOUND:                -1.146
REMARK  Name = 
REMARK  8 active torsions:
REMARK  status: ('A' for Active; 'I' for Inactive)
REMARK    1  A    between atoms: C_1  and  N_2
REMARK    2  A    between atoms: N_2  and  C_3
REMARK    3  A    between atoms: C_3  and  C_4
REMARK    4  A    between atoms: C_7  and  C_8
REMARK    5  A    between atoms: C_8  and  C_9
REMARK    6  A    between atoms: C_9  and  N_10
REMARK    7  A    between atoms: N_10  and  C_11
REMARK    8  A    between atoms: C_18  and  C_20
REMARK                            x       y       z     vdW  Elec       q    Type
REMARK                         _______ _______ _______ _____ _____    ______ ____
ROOT
ATOM      1  C   UNL     1      47.449   6.353  12.538  0.00  0.00    +0.000 C 
ENDROOT
BRANCH   1   2
ATOM      2  C   UNL     1      47.540   5.562  13.808  0.00  0.00    +0.000 A 
ATOM      3  C   UNL     1      48.232   6.030  14.926  0.00  0.00    +0.000 A 
ATOM      4  C   UNL     1      48.216   5.291  16.109  0.00  0.00    +0.000 A 
ATOM      5  C   UNL     1      47.504   4.097  16.141  0.00  0.00    +0.000 A 
ATOM      6  N   UNL     1      46.828   3.634  15.061  0.00  0.00    +0.000 NA
ATOM      7  C   UNL     1      46.872   4.352  13.926  0.00  0.00    +0.000 A 
BRANCH   5   8
ATOM      8  C   UNL     1      47.412   3.265  17.404  0.00  0.00    +0.000 C 
BRANCH   8   9
ATOM      9  C   UNL     1      48.584   3.623  18.331  0.00  0.00    +0.000 C 
BRANCH   9  10
ATOM     10  N   UNL     1      48.278   3.581  19.770  0.00  0.00    +0.000 NA
ATOM     11  H   UNL     1      48.646   2.712  20.157  0.00  0.00    +0.000 HD
BRANCH  10  12
ATOM     12  C   UNL     1      48.943   4.722  20.444  0.00  0.00    +0.000 C 
ATOM     13  C   UNL     1      47.936   5.628  21.139  0.00  0.00    +0.000 C 
ATOM     14  C   UNL     1      47.594   6.650  20.074  0.00  0.00    +0.000 C 
ATOM     15  N   UNL     1      48.874   6.952  19.427  0.00  0.00    +0.000 NA
ATOM     16  C   UNL     1      49.657   5.704  19.482  0.00  0.00    +0.000 C 
ATOM     17  H   UNL     1      49.362   7.667  19.962  0.00  0.00    +0.000 HD
ENDBRANCH  10  12
ENDBRANCH   9  10
ENDBRANCH   8   9
ENDBRANCH   5   8
ENDBRANCH   1   2
BRANCH   1  19
ATOM     18  C   UNL     1      46.467   8.612  13.172  0.00  0.00    +0.000 C 
ATOM     19  N   UNL     1      46.369   7.344  12.453  0.00  0.00    +0.000 N 
ATOM     20  C   UNL     1      45.279   7.236  11.573  0.00  0.00    +0.000 C 
ATOM     21  O   UNL     1      44.475   8.158  11.445  0.00  0.00    +0.000 OA
BRANCH  20  22
ATOM     22  C   UNL     1      45.067   5.991  10.824  0.00  0.00    +0.000 A 
ATOM     23  C   UNL     1      45.646   5.699   9.601  0.00  0.00    +0.000 A 
ATOM     24  S   UNL     1      45.273   4.136   9.020  0.00  0.00    +0.000 S 
ATOM     25  C   UNL     1      44.442   3.747  10.450  0.00  0.00    +0.000 A 
ATOM     26  N   UNL     1      43.947   2.497  10.661  0.00  0.00    +0.000 NA
ATOM     27  C   UNL     1      43.404   2.332  11.823  0.00  0.00    +0.000 A 
ATOM     28  N   UNL     1      43.271   3.312  12.774  0.00  0.00    +0.000 N 
ATOM     29  C   UNL     1      43.632   4.627  12.553  0.00  0.00    +0.000 A 
ATOM     30  O   UNL     1      43.281   5.517  13.319  0.00  0.00    +0.000 OA
ATOM     31  C   UNL     1      44.365   4.825  11.312  0.00  0.00    +0.000 A 
ATOM     32  H   UNL     1      42.780   3.130  13.635  0.00  0.00    +0.000 HD
ENDBRANCH  20  22
ENDBRANCH   1  19
TORSDOF 7
ENDMDL
MODEL 5
REMARK VINA RESULT:    -6.878      1.941      2.995
REMARK INTER + INTRA:         -10.839
REMARK INTER:                  -9.555
REMARK INTRA:                  -1.284
REMARK UNBOUND:                -1.146
REMARK  Name = 
REMARK  8 active torsions:
REMARK  status: ('A' for Active; 'I' for Inactive)
REMARK    1  A    between atoms: C_1  and  N_2
REMARK    2  A    between atoms: N_2  and  C_3
REMARK    3  A    between atoms: C_3  and  C_4
REMARK    4  A    between atoms: C_7  and  C_8
REMARK    5  A    between atoms: C_8  and  C_9
REMARK    6  A    between atoms: C_9  and  N_10
REMARK    7  A    between atoms: N_10  and  C_11
REMARK    8  A    between atoms: C_18  and  C_20
REMARK                            x       y       z     vdW  Elec       q    Type
REMARK                         _______ _______ _______ _____ _____    ______ ____
ROOT
ATOM      1  C   UNL     1      47.399   6.708  12.040  0.00  0.00    +0.000 C 
ENDROOT
BRANCH   1   2
ATOM      2  C   UNL     1      48.300   6.728  13.237  0.00  0.00    +0.000 A 
ATOM      3  C   UNL     1      49.483   7.467  13.264  0.00  0.00    +0.000 A 
ATOM      4  C   UNL     1      50.243   7.515  14.433  0.00  0.00    +0.000 A 
ATOM      5  C   UNL     1      49.796   6.817  15.549  0.00  0.00    +0.000 A 
ATOM      6  N   UNL     1      48.648   6.096  15.534  0.00  0.00    +0.000 NA
ATOM      7  C   UNL     1      47.941   6.048  14.392  0.00  0.00    +0.000 A 
BRANCH   5   8
ATOM      8  C   UNL     1      50.551   6.858  16.862  0.00  0.00    +0.000 C 
BRANCH   8   9
ATOM      9  C   UNL     1      50.140   5.651  17.718  0.00  0.00    +0.000 C 
BRANCH   9  10
ATOM     10  N   UNL     1      50.372   4.336  17.098  0.00  0.00    +0.000 NA
ATOM     11  H   UNL     1      51.361   4.104  17.184  0.00  0.00    +0.000 HD
BRANCH  10  12
ATOM     12  C   UNL     1      49.578   3.310  17.816  0.00  0.00    +0.000 C 
ATOM     13  C   UNL     1      48.727   2.488  16.858  0.00  0.00    +0.000 C 
ATOM     14  C   UNL     1      47.420   3.251  16.810  0.00  0.00    +0.000 C 
ATOM     15  N   UNL     1      47.182   3.664  18.196  0.00  0.00    +0.000 NA
ATOM     16  C   UNL     1      48.516   3.887  18.784  0.00  0.00    +0.000 C 
ATOM     17  H   UNL     1      46.726   2.907  18.701  0.00  0.00    +0.000 HD
ENDBRANCH  10  12
ENDBRANCH   9  10
ENDBRANCH   8   9
ENDBRANCH   5   8
ENDBRANCH   1   2
BRANCH   1  19
ATOM     18  C   UNL     1      46.249   8.860  12.760  0.00  0.00    +0.000 C 
ATOM     19  N   UNL     1      46.202   7.557  12.101  0.00  0.00    +0.000 N 
ATOM     20  C   UNL     1      45.011   7.276  11.409  0.00  0.00    +0.000 C 
ATOM     21  O   UNL     1      44.087   8.088  11.386  0.00  0.00    +0.000 OA
BRANCH  20  22
ATOM     22  C   UNL     1      44.845   5.981  10.739  0.00  0.00    +0.000 A 
ATOM     23  C   UNL     1      45.390   5.656   9.508  0.00  0.00    +0.000 A 
ATOM     24  S   UNL     1      45.090   4.044   9.029  0.00  0.00    +0.000 S 
ATOM     25  C   UNL     1      44.344   3.687  10.513  0.00  0.00    +0.000 A 
ATOM     26  N   UNL     1      43.936   2.423  10.813  0.00  0.00    +0.000 NA
ATOM     27  C   UNL     1      43.453   2.293  12.005  0.00  0.00    +0.000 A 
ATOM     28  N   UNL     1      43.299   3.314  12.907  0.00  0.00    +0.000 N 
ATOM     29  C   UNL     1      43.569   4.634  12.600  0.00  0.00    +0.000 A 
ATOM     30  O   UNL     1      43.197   5.544  13.332  0.00  0.00    +0.000 OA
ATOM     31  C   UNL     1      44.236   4.805  11.319  0.00  0.00    +0.000 A 
ATOM     32  H   UNL     1      42.856   3.153  13.798  0.00  0.00    +0.000 HD
ENDBRANCH  20  22
ENDBRANCH   1  19
TORSDOF 7
ENDMDL
MODEL 6
REMARK VINA RESULT:    -6.871      3.114      8.095
REMARK INTER + INTRA:         -10.830
REMARK INTER:                  -9.701
REMARK INTRA:                  -1.129
REMARK UNBOUND:                -1.146
REMARK  Name = 
REMARK  8 active torsions:
REMARK  status: ('A' for Active; 'I' for Inactive)
REMARK    1  A    between atoms: C_1  and  N_2
REMARK    2  A    between atoms: N_2  and  C_3
REMARK    3  A    between atoms: C_3  and  C_4
REMARK    4  A    between atoms: C_7  and  C_8
REMARK    5  A    between atoms: C_8  and  C_9
REMARK    6  A    between atoms: C_9  and  N_10
REMARK    7  A    between atoms: N_10  and  C_11
REMARK    8  A    between atoms: C_18  and  C_20
REMARK                            x       y       z     vdW  Elec       q    Type
REMARK                         _______ _______ _______ _____ _____    ______ ____
ROOT
ATOM      1  C   UNL     1      48.729   6.495  14.485  0.00  0.00    +0.000 C 
ENDROOT
BRANCH   1   2
ATOM      2  C   UNL     1      47.375   6.093  13.982  0.00  0.00    +0.000 A 
ATOM      3  C   UNL     1      46.582   6.949  13.219  0.00  0.00    +0.000 A 
ATOM      4  C   UNL     1      45.365   6.495  12.708  0.00  0.00    +0.000 A 
ATOM      5  C   UNL     1      44.974   5.189  12.978  0.00  0.00    +0.000 A 
ATOM      6  N   UNL     1      45.738   4.348  13.719  0.00  0.00    +0.000 NA
ATOM      7  C   UNL     1      46.897   4.812  14.216  0.00  0.00    +0.000 A 
BRANCH   5   8
ATOM      8  C   UNL     1      43.685   4.619  12.422  0.00  0.00    +0.000 C 
BRANCH   8   9
ATOM      9  C   UNL     1      43.894   3.136  12.084  0.00  0.00    +0.000 C 
BRANCH   9  10
ATOM     10  N   UNL     1      44.942   2.864  11.086  0.00  0.00    +0.000 NA
ATOM     11  H   UNL     1      45.354   1.953  11.283  0.00  0.00    +0.000 HD
BRANCH  10  12
ATOM     12  C   UNL     1      44.331   2.828   9.734  0.00  0.00    +0.000 C 
ATOM     13  C   UNL     1      45.011   1.802   8.839  0.00  0.00    +0.000 C 
ATOM     14  C   UNL     1      46.105   2.601   8.161  0.00  0.00    +0.000 C 
ATOM     15  N   UNL     1      45.480   3.889   7.846  0.00  0.00    +0.000 NA
ATOM     16  C   UNL     1      44.502   4.136   8.922  0.00  0.00    +0.000 C 
ATOM     17  H   UNL     1      44.981   3.816   6.962  0.00  0.00    +0.000 HD
ENDBRANCH  10  12
ENDBRANCH   9  10
ENDBRANCH   8   9
ENDBRANCH   5   8
ENDBRANCH   1   2
BRANCH   1  19
ATOM     18  C   UNL     1      48.744   8.884  15.359  0.00  0.00    +0.000 C 
ATOM     19  N   UNL     1      48.761   7.443  15.605  0.00  0.00    +0.000 N 
ATOM     20  C   UNL     1      48.641   7.064  16.953  0.00  0.00    +0.000 C 
ATOM     21  O   UNL     1      48.538   7.909  17.841  0.00  0.00    +0.000 OA
BRANCH  20  22
ATOM     22  C   UNL     1      48.680   5.642  17.315  0.00  0.00    +0.000 A 
ATOM     23  C   UNL     1      47.567   4.825  17.420  0.00  0.00    +0.000 A 
ATOM     24  S   UNL     1      47.942   3.197  17.778  0.00  0.00    +0.000 S 
ATOM     25  C   UNL     1      49.610   3.502  17.665  0.00  0.00    +0.000 A 
ATOM     26  N   UNL     1      50.520   2.495  17.764  0.00  0.00    +0.000 NA
ATOM     27  C   UNL     1      51.744   2.870  17.586  0.00  0.00    +0.000 A 
ATOM     28  N   UNL     1      52.146   4.163  17.363  0.00  0.00    +0.000 N 
ATOM     29  C   UNL     1      51.275   5.235  17.392  0.00  0.00    +0.000 A 
ATOM     30  O   UNL     1      51.692   6.387  17.433  0.00  0.00    +0.000 OA
ATOM     31  C   UNL     1      49.876   4.843  17.458  0.00  0.00    +0.000 A 
ATOM     32  H   UNL     1      53.125   4.393  17.296  0.00  0.00    +0.000 HD
ENDBRANCH  20  22
ENDBRANCH   1  19
TORSDOF 7
ENDMDL
MODEL 7
REMARK VINA RESULT:    -6.787      3.802      8.208
REMARK INTER + INTRA:         -10.710
REMARK INTER:                  -9.155
REMARK INTRA:                  -1.555
REMARK UNBOUND:                -1.146
REMARK  Name = 
REMARK  8 active torsions:
REMARK  status: ('A' for Active; 'I' for Inactive)
REMARK    1  A    between atoms: C_1  and  N_2
REMARK    2  A    between atoms: N_2  and  C_3
REMARK    3  A    between atoms: C_3  and  C_4
REMARK    4  A    between atoms: C_7  and  C_8
REMARK    5  A    between atoms: C_8  and  C_9
REMARK    6  A    between atoms: C_9  and  N_10
REMARK    7  A    between atoms: N_10  and  C_11
REMARK    8  A    between atoms: C_18  and  C_20
REMARK                            x       y       z     vdW  Elec       q    Type
REMARK                         _______ _______ _______ _____ _____    ______ ____
ROOT
ATOM      1  C   UNL     1      47.572   8.073  13.351  0.00  0.00    +0.000 C 
ENDROOT
BRANCH   1   2
ATOM      2  C   UNL     1      46.666   6.890  13.192  0.00  0.00    +0.000 A 
ATOM      3  C   UNL     1      46.979   5.639  13.723  0.00  0.00    +0.000 A 
ATOM      4  C   UNL     1      46.062   4.592  13.616  0.00  0.00    +0.000 A 
ATOM      5  C   UNL     1      44.852   4.828  12.976  0.00  0.00    +0.000 A 
ATOM      6  N   UNL     1      44.537   6.040  12.456  0.00  0.00    +0.000 NA
ATOM      7  C   UNL     1      45.443   7.029  12.553  0.00  0.00    +0.000 A 
BRANCH   5   8
ATOM      8  C   UNL     1      43.795   3.748  12.859  0.00  0.00    +0.000 C 
BRANCH   8   9
ATOM      9  C   UNL     1      43.441   3.547  11.378  0.00  0.00    +0.000 C 
BRANCH   9  10
ATOM     10  N   UNL     1      44.587   3.293  10.490  0.00  0.00    +0.000 NA
ATOM     11  H   UNL     1      44.565   2.316  10.198  0.00  0.00    +0.000 HD
BRANCH  10  12
ATOM     12  C   UNL     1      44.473   4.152   9.287  0.00  0.00    +0.000 C 
ATOM     13  C   UNL     1      44.511   3.331   8.005  0.00  0.00    +0.000 C 
ATOM     14  C   UNL     1      45.985   3.296   7.657  0.00  0.00    +0.000 C 
ATOM     15  N   UNL     1      46.466   4.650   7.947  0.00  0.00    +0.000 NA
ATOM     16  C   UNL     1      45.659   5.129   9.085  0.00  0.00    +0.000 C 
ATOM     17  H   UNL     1      46.287   5.251   7.145  0.00  0.00    +0.000 HD
ENDBRANCH  10  12
ENDBRANCH   9  10
ENDBRANCH   8   9
ENDBRANCH   5   8
ENDBRANCH   1   2
BRANCH   1  19
ATOM     18  C   UNL     1      49.681   7.306  12.153  0.00  0.00    +0.000 C 
ATOM     19  N   UNL     1      49.016   7.803  13.355  0.00  0.00    +0.000 N 
ATOM     20  C   UNL     1      49.871   8.150  14.414  0.00  0.00    +0.000 C 
ATOM     21  O   UNL     1      51.091   8.025  14.309  0.00  0.00    +0.000 OA
BRANCH  20  22
ATOM     22  C   UNL     1      49.305   8.630  15.681  0.00  0.00    +0.000 A 
ATOM     23  C   UNL     1      49.044   9.957  15.974  0.00  0.00    +0.000 A 
ATOM     24  S   UNL     1      48.308  10.192  17.498  0.00  0.00    +0.000 S 
ATOM     25  C   UNL     1      48.186   8.517  17.755  0.00  0.00    +0.000 A 
ATOM     26  N   UNL     1      47.546   8.014  18.846  0.00  0.00    +0.000 NA
ATOM     27  C   UNL     1      47.472   6.723  18.867  0.00  0.00    +0.000 A 
ATOM     28  N   UNL     1      48.015   5.889  17.923  0.00  0.00    +0.000 N 
ATOM     29  C   UNL     1      48.790   6.346  16.874  0.00  0.00    +0.000 A 
ATOM     30  O   UNL     1      49.456   5.572  16.196  0.00  0.00    +0.000 OA
ATOM     31  C   UNL     1      48.788   7.794  16.741  0.00  0.00    +0.000 A 
ATOM     32  H   UNL     1      47.973   4.888  18.035  0.00  0.00    +0.000 HD
ENDBRANCH  20  22
ENDBRANCH   1  19
TORSDOF 7
ENDMDL
MODEL 8
REMARK VINA RESULT:    -6.611      3.588      8.131
REMARK INTER + INTRA:         -10.462
REMARK INTER:                  -9.123
REMARK INTRA:                  -1.340
REMARK UNBOUND:                -1.146
REMARK  Name = 
REMARK  8 active torsions:
REMARK  status: ('A' for Active; 'I' for Inactive)
REMARK    1  A    between atoms: C_1  and  N_2
REMARK    2  A    between atoms: N_2  and  C_3
REMARK    3  A    between atoms: C_3  and  C_4
REMARK    4  A    between atoms: C_7  and  C_8
REMARK    5  A    between atoms: C_8  and  C_9
REMARK    6  A    between atoms: C_9  and  N_10
REMARK    7  A    between atoms: N_10  and  C_11
REMARK    8  A    between atoms: C_18  and  C_20
REMARK                            x       y       z     vdW  Elec       q    Type
REMARK                         _______ _______ _______ _____ _____    ______ ____
ROOT
ATOM      1  C   UNL     1      49.451   8.194  16.974  0.00  0.00    +0.000 C 
ENDROOT
BRANCH   1   2
ATOM      2  C   UNL     1      48.817   7.929  15.642  0.00  0.00    +0.000 A 
ATOM      3  C   UNL     1      47.983   8.858  15.019  0.00  0.00    +0.000 A 
ATOM      4  C   UNL     1      47.484   8.594  13.743  0.00  0.00    +0.000 A 
ATOM      5  C   UNL     1      47.834   7.400  13.123  0.00  0.00    +0.000 A 
ATOM      6  N   UNL     1      48.644   6.491  13.719  0.00  0.00    +0.000 NA
ATOM      7  C   UNL     1      49.098   6.757  14.956  0.00  0.00    +0.000 A 
BRANCH   5   8
ATOM      8  C   UNL     1      47.361   7.068  11.723  0.00  0.00    +0.000 C 
BRANCH   8   9
ATOM      9  C   UNL     1      45.855   6.765  11.759  0.00  0.00    +0.000 C 
BRANCH   9  10
ATOM     10  N   UNL     1      45.421   5.651  10.900  0.00  0.00    +0.000 NA
ATOM     11  H   UNL     1      46.247   5.176  10.537  0.00  0.00    +0.000 HD
BRANCH  10  12
ATOM     12  C   UNL     1      44.635   4.688  11.708  0.00  0.00    +0.000 C 
ATOM     13  C   UNL     1      43.242   4.476  11.131  0.00  0.00    +0.000 C 
ATOM     14  C   UNL     1      42.408   5.523  11.838  0.00  0.00    +0.000 C 
ATOM     15  N   UNL     1      42.888   5.505  13.223  0.00  0.00    +0.000 NA
ATOM     16  C   UNL     1      44.322   5.169  13.147  0.00  0.00    +0.000 C 
ATOM     17  H   UNL     1      42.408   4.769  13.737  0.00  0.00    +0.000 HD
ENDBRANCH  10  12
ENDBRANCH   9  10
ENDBRANCH   8   9
ENDBRANCH   5   8
ENDBRANCH   1   2
BRANCH   1  19
ATOM     18  C   UNL     1      47.634   8.821  18.639  0.00  0.00    +0.000 C 
ATOM     19  N   UNL     1      48.647   7.882  18.162  0.00  0.00    +0.000 N 
ATOM     20  C   UNL     1      48.660   6.635  18.809  0.00  0.00    +0.000 C 
ATOM     21  O   UNL     1      47.868   6.383  19.715  0.00  0.00    +0.000 OA
BRANCH  20  22
ATOM     22  C   UNL     1      49.660   5.629  18.429  0.00  0.00    +0.000 A 
ATOM     23  C   UNL     1      50.977   5.628  18.854  0.00  0.00    +0.000 A 
ATOM     24  S   UNL     1      51.874   4.280  18.309  0.00  0.00    +0.000 S 
ATOM     25  C   UNL     1      50.495   3.582  17.604  0.00  0.00    +0.000 A 
ATOM     26  N   UNL     1      50.538   2.343  17.044  0.00  0.00    +0.000 NA
ATOM     27  C   UNL     1      49.395   1.916  16.614  0.00  0.00    +0.000 A 
ATOM     28  N   UNL     1      48.225   2.630  16.653  0.00  0.00    +0.000 N 
ATOM     29  C   UNL     1      48.159   3.941  17.085  0.00  0.00    +0.000 A 
ATOM     30  O   UNL     1      47.162   4.625  16.883  0.00  0.00    +0.000 OA
ATOM     31  C   UNL     1      49.392   4.411  17.697  0.00  0.00    +0.000 A 
ATOM     32  H   UNL     1      47.382   2.261  16.242  0.00  0.00    +0.000 HD
ENDBRANCH  20  22
ENDBRANCH   1  19
TORSDOF 7
ENDMDL
MODEL 9
REMARK VINA RESULT:    -6.509      3.296      8.016
REMARK INTER + INTRA:         -10.319
REMARK INTER:                  -8.741
REMARK INTRA:                  -1.578
REMARK UNBOUND:                -1.146
REMARK  Name = 
REMARK  8 active torsions:
REMARK  status: ('A' for Active; 'I' for Inactive)
REMARK    1  A    between atoms: C_1  and  N_2
REMARK    2  A    between atoms: N_2  and  C_3
REMARK    3  A    between atoms: C_3  and  C_4
REMARK    4  A    between atoms: C_7  and  C_8
REMARK    5  A    between atoms: C_8  and  C_9
REMARK    6  A    between atoms: C_9  and  N_10
REMARK    7  A    between atoms: N_10  and  C_11
REMARK    8  A    between atoms: C_18  and  C_20
REMARK                            x       y       z     vdW  Elec       q    Type
REMARK                         _______ _______ _______ _____ _____    ______ ____
ROOT
ATOM      1  C   UNL     1      49.457   7.027  15.594  0.00  0.00    +0.000 C 
ENDROOT
BRANCH   1   2
ATOM      2  C   UNL     1      48.421   7.048  14.511  0.00  0.00    +0.000 A 
ATOM      3  C   UNL     1      48.008   8.233  13.902  0.00  0.00    +0.000 A 
ATOM      4  C   UNL     1      47.100   8.187  12.843  0.00  0.00    +0.000 A 
ATOM      5  C   UNL     1      46.627   6.950  12.423  0.00  0.00    +0.000 A 
ATOM      6  N   UNL     1      47.021   5.792  13.008  0.00  0.00    +0.000 NA
ATOM      7  C   UNL     1      47.882   5.861  14.038  0.00  0.00    +0.000 A 
BRANCH   5   8
ATOM      8  C   UNL     1      45.670   6.825  11.254  0.00  0.00    +0.000 C 
BRANCH   8   9
ATOM      9  C   UNL     1      44.227   6.907  11.774  0.00  0.00    +0.000 C 
BRANCH   9  10
ATOM     10  N   UNL     1      43.987   6.236  13.061  0.00  0.00    +0.000 NA
ATOM     11  H   UNL     1      43.590   6.911  13.714  0.00  0.00    +0.000 HD
BRANCH  10  12
ATOM     12  C   UNL     1      43.013   5.135  12.865  0.00  0.00    +0.000 C 
ATOM     13  C   UNL     1      43.591   3.792  13.288  0.00  0.00    +0.000 C 
ATOM     14  C   UNL     1      44.217   3.265  12.014  0.00  0.00    +0.000 C 
ATOM     15  N   UNL     1      43.259   3.611  10.960  0.00  0.00    +0.000 NA
ATOM     16  C   UNL     1      42.632   4.876  11.386  0.00  0.00    +0.000 C 
ATOM     17  H   UNL     1      42.539   2.892  10.908  0.00  0.00    +0.000 HD
ENDBRANCH  10  12
ENDBRANCH   9  10
ENDBRANCH   8   9
ENDBRANCH   5   8
ENDBRANCH   1   2
BRANCH   1  19
ATOM     18  C   UNL     1      49.065   8.962  17.197  0.00  0.00    +0.000 C 
ATOM     19  N   UNL     1      49.046   7.529  16.911  0.00  0.00    +0.000 N 
ATOM     20  C   UNL     1      48.459   6.727  17.905  0.00  0.00    +0.000 C 
ATOM     21  O   UNL     1      48.010   7.225  18.936  0.00  0.00    +0.000 OA
BRANCH  20  22
ATOM     22  C   UNL     1      48.417   5.270  17.733  0.00  0.00    +0.000 A 
ATOM     23  C   UNL     1      47.294   4.554  17.355  0.00  0.00    +0.000 A 
ATOM     24  S   UNL     1      47.580   2.881  17.160  0.00  0.00    +0.000 S 
ATOM     25  C   UNL     1      49.244   3.080  17.437  0.00  0.00    +0.000 A 
ATOM     26  N   UNL     1      50.111   2.039  17.314  0.00  0.00    +0.000 NA
ATOM     27  C   UNL     1      51.352   2.360  17.484  0.00  0.00    +0.000 A 
ATOM     28  N   UNL     1      51.802   3.614  17.809  0.00  0.00    +0.000 N 
ATOM     29  C   UNL     1      50.952   4.670  18.080  0.00  0.00    +0.000 A 
ATOM     30  O   UNL     1      51.367   5.699  18.599  0.00  0.00    +0.000 OA
ATOM     31  C   UNL     1      49.559   4.385  17.772  0.00  0.00    +0.000 A 
ATOM     32  H   UNL     1      52.779   3.780  17.990  0.00  0.00    +0.000 HD
ENDBRANCH  20  22
ENDBRANCH   1  19
TORSDOF 7
ENDMDL
