MODEL 1
REMARK VINA RESULT:    -8.121      0.000      0.000
REMARK INTER + INTRA:         -13.409
REMARK INTER:                 -11.920
REMARK INTRA:                  -1.489
REMARK UNBOUND:                -1.489
REMARK  Name = 
REMARK  9 active torsions:
REMARK  status: ('A' for Active; 'I' for Inactive)
REMARK    1  A    between atoms: C_1  and  O_2
REMARK    2  A    between atoms: O_2  and  C_3
REMARK    3  A    between atoms: C_10  and  C_11
REMARK    4  A    between atoms: N_13  and  C_14
REMARK    5  A    between atoms: C_14  and  C_15
REMARK    6  A    between atoms: C_18  and  C_19
REMARK    7  A    between atoms: C_19  and  O_20
REMARK    8  A    between atoms: O_20  and  C_21
REMARK    9  A    between atoms: C_21  and  C_22
REMARK                            x       y       z     vdW  Elec       q    Type
REMARK                         _______ _______ _______ _____ _____    ______ ____
ROOT
ATOM      1  C   UNL     1      46.899   7.819  13.137  0.00  0.00    +0.000 C 
ENDROOT
BRANCH   1   2
ATOM      2  C   UNL     1      46.037   6.830  12.396  0.00  0.00    +0.000 A 
ATOM      3  C   UNL     1      44.943   6.223  13.026  0.00  0.00    +0.000 A 
ATOM      4  C   UNL     1      44.196   5.244  12.365  0.00  0.00    +0.000 A 
ATOM      5  C   UNL     1      44.532   4.854  11.061  0.00  0.00    +0.000 A 
ATOM      6  C   UNL     1      45.605   5.484  10.420  0.00  0.00    +0.000 A 
ATOM      7  C   UNL     1      46.354   6.458  11.082  0.00  0.00    +0.000 A 
BRANCH   5   8
ATOM      8  C   UNL     1      43.730   3.792  10.350  0.00  0.00    +0.000 C 
BRANCH   8   9
ATOM      9  O   UNL     1      44.266   3.478   9.065  0.00  0.00    +0.000 OA
BRANCH   9  10
ATOM     10  C   UNL     1      45.078   2.303   9.083  0.00  0.00    +0.000 C 
BRANCH  10  11
ATOM     11  C   UNL     1      46.048   2.320   7.940  0.00  0.00    +0.000 A 
ATOM     12  C   UNL     1      46.147   3.387   7.045  0.00  0.00    +0.000 A 
ATOM     13  C   UNL     1      47.056   3.325   5.992  0.00  0.00    +0.000 A 
ATOM     14  C   UNL     1      47.829   2.183   5.860  0.00  0.00    +0.000 A 
ATOM     15  N   UNL     1      47.749   1.121   6.689  0.00  0.00    +0.000 NA
ATOM     16  C   UNL     1      46.862   1.214   7.705  0.00  0.00    +0.000 A 
ENDBRANCH  10  11
ENDBRANCH   9  10
ENDBRANCH   8   9
ENDBRANCH   5   8
ENDBRANCH   1   2
BRANCH   1  19
ATOM     17  C   UNL     1      48.745   6.850  14.434  0.00  0.00    +0.000 C 
ATOM     18  O   UNL     1      49.502   6.974  13.473  0.00  0.00    +0.000 OA
ATOM     19  N   UNL     1      47.432   7.236  14.347  0.00  0.00    +0.000 N 
ATOM     20  H   UNL     1      46.805   7.096  15.129  0.00  0.00    +0.000 HD
BRANCH  17  28
ATOM     21  C   UNL     1      47.607   4.330  16.511  0.00  0.00    +0.000 A 
ATOM     22  N   UNL     1      47.379   3.452  17.512  0.00  0.00    +0.000 NA
ATOM     23  C   UNL     1      48.222   3.435  18.546  0.00  0.00    +0.000 A 
ATOM     24  N   UNL     1      49.292   4.202  18.714  0.00  0.00    +0.000 NA
ATOM     25  C   UNL     1      49.481   5.070  17.706  0.00  0.00    +0.000 A 
ATOM     26  S   UNL     1      50.804   6.130  17.761  0.00  0.00    +0.000 S 
ATOM     27  C   UNL     1      50.364   6.833  16.279  0.00  0.00    +0.000 A 
ATOM     28  C   UNL     1      49.217   6.286  15.711  0.00  0.00    +0.000 A 
ATOM     29  C   UNL     1      48.695   5.222  16.564  0.00  0.00    +0.000 A 
BRANCH  21  31
ATOM     30  C   UNL     1      47.207   3.450  14.374  0.00  0.00    +0.000 C 
ATOM     31  O   UNL     1      46.761   4.312  15.421  0.00  0.00    +0.000 OA
ENDBRANCH  21  31
ENDBRANCH  17  28
ENDBRANCH   1  19
TORSDOF 8
ENDMDL
MODEL 2
REMARK VINA RESULT:    -7.434      2.079      3.300
REMARK INTER + INTRA:         -12.400
REMARK INTER:                 -11.273
REMARK INTRA:                  -1.127
REMARK UNBOUND:                -1.489
REMARK  Name = 
REMARK  9 active torsions:
REMARK  status: ('A' for Active; 'I' for Inactive)
REMARK    1  A    between atoms: C_1  and  O_2
REMARK    2  A    between atoms: O_2  and  C_3
REMARK    3  A    between atoms: C_10  and  C_11
REMARK    4  A    between atoms: N_13  and  C_14
REMARK    5  A    between atoms: C_14  and  C_15
REMARK    6  A    between atoms: C_18  and  C_19
REMARK    7  A    between atoms: C_19  and  O_20
REMARK    8  A    between atoms: O_20  and  C_21
REMARK    9  A    between atoms: C_21  and  C_22
REMARK                            x       y       z     vdW  Elec       q    Type
REMARK                         _______ _______ _______ _____ _____    ______ ____
ROOT
ATOM      1  C   UNL     1      47.484   3.267  14.889  0.00  0.00    +0.000 C 
ENDROOT
BRANCH   1   2
ATOM      2  C   UNL     1      46.810   3.975  13.742  0.00  0.00    +0.000 A 
ATOM      3  C   UNL     1      45.851   3.318  12.962  0.00  0.00    +0.000 A 
ATOM      4  C   UNL     1      45.290   3.947  11.847  0.00  0.00    +0.000 A 
ATOM      5  C   UNL     1      45.681   5.245  11.493  0.00  0.00    +0.000 A 
ATOM      6  C   UNL     1      46.616   5.914  12.291  0.00  0.00    +0.000 A 
ATOM      7  C   UNL     1      47.180   5.283  13.402  0.00  0.00    +0.000 A 
BRANCH   5   8
ATOM      8  C   UNL     1      45.081   5.923  10.285  0.00  0.00    +0.000 C 
BRANCH   8   9
ATOM      9  O   UNL     1      45.582   5.390   9.060  0.00  0.00    +0.000 OA
BRANCH   9  10
ATOM     10  C   UNL     1      44.826   4.267   8.602  0.00  0.00    +0.000 C 
BRANCH  10  11
ATOM     11  C   UNL     1      45.741   3.188   8.105  0.00  0.00    +0.000 A 
ATOM     12  C   UNL     1      46.728   3.413   7.145  0.00  0.00    +0.000 A 
ATOM     13  C   UNL     1      47.528   2.359   6.714  0.00  0.00    +0.000 A 
ATOM     14  C   UNL     1      47.300   1.102   7.249  0.00  0.00    +0.000 A 
ATOM     15  N   UNL     1      46.343   0.836   8.163  0.00  0.00    +0.000 NA
ATOM     16  C   UNL     1      45.588   1.882   8.566  0.00  0.00    +0.000 A 
ENDBRANCH  10  11
ENDBRANCH   9  10
ENDBRANCH   8   9
ENDBRANCH   5   8
ENDBRANCH   1   2
BRANCH   1  19
ATOM     17  C   UNL     1      47.375   4.112  17.192  0.00  0.00    +0.000 C 
ATOM     18  O   UNL     1      46.562   3.239  17.488  0.00  0.00    +0.000 OA
ATOM     19  N   UNL     1      47.875   4.203  15.918  0.00  0.00    +0.000 N 
ATOM     20  H   UNL     1      48.514   4.948  15.671  0.00  0.00    +0.000 HD
BRANCH  17  28
ATOM     21  C   UNL     1      50.492   5.276  18.137  0.00  0.00    +0.000 A 
ATOM     22  N   UNL     1      51.552   5.866  18.731  0.00  0.00    +0.000 NA
ATOM     23  C   UNL     1      51.324   6.729  19.723  0.00  0.00    +0.000 A 
ATOM     24  N   UNL     1      50.142   7.088  20.211  0.00  0.00    +0.000 NA
ATOM     25  C   UNL     1      49.113   6.473  19.604  0.00  0.00    +0.000 A 
ATOM     26  S   UNL     1      47.530   6.815  20.107  0.00  0.00    +0.000 S 
ATOM     27  C   UNL     1      46.884   5.730  18.970  0.00  0.00    +0.000 A 
ATOM     28  C   UNL     1      47.841   5.091  18.190  0.00  0.00    +0.000 A 
ATOM     29  C   UNL     1      49.178   5.546  18.565  0.00  0.00    +0.000 A 
BRANCH  21  31
ATOM     30  C   UNL     1      50.969   3.073  17.487  0.00  0.00    +0.000 C 
ATOM     31  O   UNL     1      50.729   4.420  17.080  0.00  0.00    +0.000 OA
ENDBRANCH  21  31
ENDBRANCH  17  28
ENDBRANCH   1  19
TORSDOF 8
ENDMDL
MODEL 3
REMARK VINA RESULT:    -7.386      1.703      2.121
REMARK INTER + INTRA:         -12.330
REMARK INTER:                 -11.338
REMARK INTRA:                  -0.991
REMARK UNBOUND:                -1.489
REMARK  Name = 
REMARK  9 active torsions:
REMARK  status: ('A' for Active; 'I' for Inactive)
REMARK    1  A    between atoms: C_1  and  O_2
REMARK    2  A    between atoms: O_2  and  C_3
REMARK    3  A    between atoms: C_10  and  C_11
REMARK    4  A    between atoms: N_13  and  C_14
REMARK    5  A    between atoms: C_14  and  C_15
REMARK    6  A    between atoms: C_18  and  C_19
REMARK    7  A    between atoms: C_19  and  O_20
REMARK    8  A    between atoms: O_20  and  C_21
REMARK    9  A    between atoms: C_21  and  C_22
REMARK                            x       y       z     vdW  Elec       q    Type
REMARK                         _______ _______ _______ _____ _____    ______ ____
ROOT
ATOM      1  C   UNL     1      47.963   7.091  13.410  0.00  0.00    +0.000 C 
ENDROOT
BRANCH   1   2
ATOM      2  C   UNL     1      46.786   6.350  12.831  0.00  0.00    +0.000 A 
ATOM      3  C   UNL     1      46.106   6.850  11.713  0.00  0.00    +0.000 A 
ATOM      4  C   UNL     1      44.964   6.207  11.230  0.00  0.00    +0.000 A 
ATOM      5  C   UNL     1      44.480   5.051  11.859  0.00  0.00    +0.000 A 
ATOM      6  C   UNL     1      45.178   4.532  12.956  0.00  0.00    +0.000 A 
ATOM      7  C   UNL     1      46.317   5.179  13.442  0.00  0.00    +0.000 A 
BRANCH   5   8
ATOM      8  C   UNL     1      43.243   4.359  11.342  0.00  0.00    +0.000 C 
BRANCH   8   9
ATOM      9  O   UNL     1      43.473   3.689  10.104  0.00  0.00    +0.000 OA
BRANCH   9  10
ATOM     10  C   UNL     1      44.528   2.730  10.189  0.00  0.00    +0.000 C 
BRANCH  10  11
ATOM     11  C   UNL     1      45.384   2.782   8.958  0.00  0.00    +0.000 A 
ATOM     12  C   UNL     1      45.986   1.651   8.405  0.00  0.00    +0.000 A 
ATOM     13  C   UNL     1      46.786   1.777   7.272  0.00  0.00    +0.000 A 
ATOM     14  C   UNL     1      46.971   3.041   6.738  0.00  0.00    +0.000 A 
ATOM     15  N   UNL     1      46.425   4.163   7.254  0.00  0.00    +0.000 NA
ATOM     16  C   UNL     1      45.649   4.007   8.349  0.00  0.00    +0.000 A 
ENDBRANCH  10  11
ENDBRANCH   9  10
ENDBRANCH   8   9
ENDBRANCH   5   8
ENDBRANCH   1   2
BRANCH   1  19
ATOM     17  C   UNL     1      49.032   6.950  15.615  0.00  0.00    +0.000 C 
ATOM     18  O   UNL     1      50.127   6.764  15.087  0.00  0.00    +0.000 OA
ATOM     19  N   UNL     1      47.904   7.112  14.853  0.00  0.00    +0.000 N 
ATOM     20  H   UNL     1      47.000   7.226  15.294  0.00  0.00    +0.000 HD
BRANCH  17  28
ATOM     21  C   UNL     1      48.978   4.561  18.115  0.00  0.00    +0.000 A 
ATOM     22  N   UNL     1      48.877   3.865  19.269  0.00  0.00    +0.000 NA
ATOM     23  C   UNL     1      48.686   4.541  20.403  0.00  0.00    +0.000 A 
ATOM     24  N   UNL     1      48.579   5.858  20.538  0.00  0.00    +0.000 NA
ATOM     25  C   UNL     1      48.672   6.515  19.370  0.00  0.00    +0.000 A 
ATOM     26  S   UNL     1      48.554   8.207  19.359  0.00  0.00    +0.000 S 
ATOM     27  C   UNL     1      48.737   8.257  17.671  0.00  0.00    +0.000 A 
ATOM     28  C   UNL     1      48.892   7.007  17.081  0.00  0.00    +0.000 A 
ATOM     29  C   UNL     1      48.863   5.963  18.103  0.00  0.00    +0.000 A 
BRANCH  21  31
ATOM     30  C   UNL     1      48.279   2.819  16.708  0.00  0.00    +0.000 C 
ATOM     31  O   UNL     1      49.224   3.862  16.951  0.00  0.00    +0.000 OA
ENDBRANCH  21  31
ENDBRANCH  17  28
ENDBRANCH   1  19
TORSDOF 8
ENDMDL
MODEL 4
REMARK VINA RESULT:    -7.288      2.135      3.536
REMARK INTER + INTRA:         -12.186
REMARK INTER:                 -10.788
REMARK INTRA:                  -1.398
REMARK UNBOUND:                -1.489
REMARK  Name = 
REMARK  9 active torsions:
REMARK  status: ('A' for Active; 'I' for Inactive)
REMARK    1  A    between atoms: C_1  and  O_2
REMARK    2  A    between atoms: O_2  and  C_3
REMARK    3  A    between atoms: C_10  and  C_11
REMARK    4  A    between atoms: N_13  and  C_14
REMARK    5  A    between atoms: C_14  and  C_15
REMARK    6  A    between atoms: C_18  and  C_19
REMARK    7  A    between atoms: C_19  and  O_20
REMARK    8  A    between atoms: O_20  and  C_21
REMARK    9  A    between atoms: C_21  and  C_22
REMARK                            x       y       z     vdW  Elec       q    Type
REMARK                         _______ _______ _______ _____ _____    ______ ____
ROOT
ATOM      1  C   UNL     1      47.369   4.239  14.924  0.00  0.00    +0.000 C 
ENDROOT
BRANCH   1   2
ATOM      2  C   UNL     1      46.487   4.398  13.712  0.00  0.00    +0.000 A 
ATOM      3  C   UNL     1      46.141   5.672  13.244  0.00  0.00    +0.000 A 
ATOM      4  C   UNL     1      45.255   5.818  12.173  0.00  0.00    +0.000 A 
ATOM      5  C   UNL     1      44.699   4.691  11.552  0.00  0.00    +0.000 A 
ATOM      6  C   UNL     1      45.070   3.418  11.999  0.00  0.00    +0.000 A 
ATOM      7  C   UNL     1      45.951   3.272  13.073  0.00  0.00    +0.000 A 
BRANCH   5   8
ATOM      8  C   UNL     1      43.737   4.849  10.401  0.00  0.00    +0.000 C 
BRANCH   8   9
ATOM      9  O   UNL     1      44.027   3.957   9.326  0.00  0.00    +0.000 OA
BRANCH   9  10
ATOM     10  C   UNL     1      45.145   4.385   8.546  0.00  0.00    +0.000 C 
BRANCH  10  11
ATOM     11  C   UNL     1      45.895   3.201   8.011  0.00  0.00    +0.000 A 
ATOM     12  C   UNL     1      46.760   3.282   6.919  0.00  0.00    +0.000 A 
ATOM     13  C   UNL     1      47.407   2.136   6.462  0.00  0.00    +0.000 A 
ATOM     14  C   UNL     1      47.151   0.938   7.108  0.00  0.00    +0.000 A 
ATOM     15  N   UNL     1      46.307   0.812   8.153  0.00  0.00    +0.000 NA
ATOM     16  C   UNL     1      45.699   1.943   8.577  0.00  0.00    +0.000 A 
ENDBRANCH  10  11
ENDBRANCH   9  10
ENDBRANCH   8   9
ENDBRANCH   5   8
ENDBRANCH   1   2
BRANCH   1  19
ATOM     17  C   UNL     1      48.644   5.713  16.417  0.00  0.00    +0.000 C 
ATOM     18  O   UNL     1      49.454   4.813  16.634  0.00  0.00    +0.000 OA
ATOM     19  N   UNL     1      47.572   5.506  15.587  0.00  0.00    +0.000 N 
ATOM     20  H   UNL     1      46.888   6.238  15.444  0.00  0.00    +0.000 HD
BRANCH  17  28
ATOM     21  C   UNL     1      48.781   8.938  15.177  0.00  0.00    +0.000 A 
ATOM     22  N   UNL     1      48.909  10.268  14.981  0.00  0.00    +0.000 NA
ATOM     23  C   UNL     1      49.090  11.052  16.046  0.00  0.00    +0.000 A 
ATOM     24  N   UNL     1      49.162  10.668  17.315  0.00  0.00    +0.000 NA
ATOM     25  C   UNL     1      49.042   9.338  17.470  0.00  0.00    +0.000 A 
ATOM     26  S   UNL     1      49.114   8.676  19.030  0.00  0.00    +0.000 S 
ATOM     27  C   UNL     1      48.918   7.102  18.421  0.00  0.00    +0.000 A 
ATOM     28  C   UNL     1      48.793   7.041  17.037  0.00  0.00    +0.000 A 
ATOM     29  C   UNL     1      48.858   8.385  16.469  0.00  0.00    +0.000 A 
BRANCH  21  31
ATOM     30  C   UNL     1      49.742   7.695  13.435  0.00  0.00    +0.000 C 
ATOM     31  O   UNL     1      48.546   8.136  14.078  0.00  0.00    +0.000 OA
ENDBRANCH  21  31
ENDBRANCH  17  28
ENDBRANCH   1  19
TORSDOF 8
ENDMDL
MODEL 5
REMARK VINA RESULT:    -7.122      2.605      3.257
REMARK INTER + INTRA:         -11.942
REMARK INTER:                 -10.930
REMARK INTRA:                  -1.011
REMARK UNBOUND:                -1.489
REMARK  Name = 
REMARK  9 active torsions:
REMARK  status: ('A' for Active; 'I' for Inactive)
REMARK    1  A    between atoms: C_1  and  O_2
REMARK    2  A    between atoms: O_2  and  C_3
REMARK    3  A    between atoms: C_10  and  C_11
REMARK    4  A    between atoms: N_13  and  C_14
REMARK    5  A    between atoms: C_14  and  C_15
REMARK    6  A    between atoms: C_18  and  C_19
REMARK    7  A    between atoms: C_19  and  O_20
REMARK    8  A    between atoms: O_20  and  C_21
REMARK    9  A    between atoms: C_21  and  C_22
REMARK                            x       y       z     vdW  Elec       q    Type
REMARK                         _______ _______ _______ _____ _____    ______ ____
ROOT
ATOM      1  C   UNL     1      47.504   4.198  15.304  0.00  0.00    +0.000 C 
ENDROOT
BRANCH   1   2
ATOM      2  C   UNL     1      46.678   4.383  14.057  0.00  0.00    +0.000 A 
ATOM      3  C   UNL     1      46.255   5.659  13.663  0.00  0.00    +0.000 A 
ATOM      4  C   UNL     1      45.419   5.819  12.555  0.00  0.00    +0.000 A 
ATOM      5  C   UNL     1      44.989   4.705  11.822  0.00  0.00    +0.000 A 
ATOM      6  C   UNL     1      45.438   3.432  12.196  0.00  0.00    +0.000 A 
ATOM      7  C   UNL     1      46.269   3.272  13.307  0.00  0.00    +0.000 A 
BRANCH   5   8
ATOM      8  C   UNL     1      44.081   4.876  10.630  0.00  0.00    +0.000 C 
BRANCH   8   9
ATOM      9  O   UNL     1      44.102   3.743   9.763  0.00  0.00    +0.000 OA
BRANCH   9  10
ATOM     10  C   UNL     1      44.552   4.069   8.447  0.00  0.00    +0.000 C 
BRANCH  10  11
ATOM     11  C   UNL     1      45.598   3.094   7.995  0.00  0.00    +0.000 A 
ATOM     12  C   UNL     1      46.553   3.402   7.024  0.00  0.00    +0.000 A 
ATOM     13  C   UNL     1      47.482   2.440   6.637  0.00  0.00    +0.000 A 
ATOM     14  C   UNL     1      47.413   1.189   7.226  0.00  0.00    +0.000 A 
ATOM     15  N   UNL     1      46.494   0.843   8.152  0.00  0.00    +0.000 NA
ATOM     16  C   UNL     1      45.611   1.801   8.512  0.00  0.00    +0.000 A 
ENDBRANCH  10  11
ENDBRANCH   9  10
ENDBRANCH   8   9
ENDBRANCH   5   8
ENDBRANCH   1   2
BRANCH   1  19
ATOM     17  C   UNL     1      48.675   5.956  16.555  0.00  0.00    +0.000 C 
ATOM     18  O   UNL     1      49.759   5.433  16.299  0.00  0.00    +0.000 OA
ATOM     19  N   UNL     1      47.505   5.399  16.107  0.00  0.00    +0.000 N 
ATOM     20  H   UNL     1      46.615   5.812  16.353  0.00  0.00    +0.000 HD
BRANCH  17  28
ATOM     21  C   UNL     1      47.835   6.651  19.837  0.00  0.00    +0.000 A 
ATOM     22  N   UNL     1      47.519   7.214  21.024  0.00  0.00    +0.000 NA
ATOM     23  C   UNL     1      47.601   8.541  21.139  0.00  0.00    +0.000 A 
ATOM     24  N   UNL     1      47.967   9.401  20.196  0.00  0.00    +0.000 NA
ATOM     25  C   UNL     1      48.261   8.807  19.027  0.00  0.00    +0.000 A 
ATOM     26  S   UNL     1      48.746   9.762  17.711  0.00  0.00    +0.000 S 
ATOM     27  C   UNL     1      48.900   8.394  16.715  0.00  0.00    +0.000 A 
ATOM     28  C   UNL     1      48.593   7.194  17.349  0.00  0.00    +0.000 A 
ATOM     29  C   UNL     1      48.220   7.443  18.739  0.00  0.00    +0.000 A 
BRANCH  21  31
ATOM     30  C   UNL     1      48.710   4.618  20.614  0.00  0.00    +0.000 C 
ATOM     31  O   UNL     1      47.795   5.275  19.736  0.00  0.00    +0.000 OA
ENDBRANCH  21  31
ENDBRANCH  17  28
ENDBRANCH   1  19
TORSDOF 8
ENDMDL
MODEL 6
REMARK VINA RESULT:    -6.537      3.365      7.962
REMARK INTER + INTRA:         -11.083
REMARK INTER:                  -9.378
REMARK INTRA:                  -1.706
REMARK UNBOUND:                -1.489
REMARK  Name = 
REMARK  9 active torsions:
REMARK  status: ('A' for Active; 'I' for Inactive)
REMARK    1  A    between atoms: C_1  and  O_2
REMARK    2  A    between atoms: O_2  and  C_3
REMARK    3  A    between atoms: C_10  and  C_11
REMARK    4  A    between atoms: N_13  and  C_14
REMARK    5  A    between atoms: C_14  and  C_15
REMARK    6  A    between atoms: C_18  and  C_19
REMARK    7  A    between atoms: C_19  and  O_20
REMARK    8  A    between atoms: O_20  and  C_21
REMARK    9  A    between atoms: C_21  and  C_22
REMARK                            x       y       z     vdW  Elec       q    Type
REMARK                         _______ _______ _______ _____ _____    ______ ____
ROOT
ATOM      1  C   UNL     1      48.342   7.992  11.898  0.00  0.00    +0.000 C 
ENDROOT
BRANCH   1   2
ATOM      2  C   UNL     1      48.488   7.934  13.397  0.00  0.00    +0.000 A 
ATOM      3  C   UNL     1      47.856   8.880  14.213  0.00  0.00    +0.000 A 
ATOM      4  C   UNL     1      48.060   8.876  15.595  0.00  0.00    +0.000 A 
ATOM      5  C   UNL     1      48.904   7.924  16.186  0.00  0.00    +0.000 A 
ATOM      6  C   UNL     1      49.510   6.958  15.374  0.00  0.00    +0.000 A 
ATOM      7  C   UNL     1      49.309   6.967  13.992  0.00  0.00    +0.000 A 
BRANCH   5   8
ATOM      8  C   UNL     1      49.131   7.923  17.677  0.00  0.00    +0.000 C 
BRANCH   8   9
ATOM      9  O   UNL     1      48.063   7.299  18.388  0.00  0.00    +0.000 OA
BRANCH   9  10
ATOM     10  C   UNL     1      48.501   6.183  19.165  0.00  0.00    +0.000 C 
BRANCH  10  11
ATOM     11  C   UNL     1      48.362   4.912  18.381  0.00  0.00    +0.000 A 
ATOM     12  C   UNL     1      49.447   4.094  18.064  0.00  0.00    +0.000 A 
ATOM     13  C   UNL     1      49.247   2.939  17.313  0.00  0.00    +0.000 A 
ATOM     14  C   UNL     1      47.961   2.648  16.887  0.00  0.00    +0.000 A 
ATOM     15  N   UNL     1      46.888   3.423  17.153  0.00  0.00    +0.000 NA
ATOM     16  C   UNL     1      47.114   4.533  17.890  0.00  0.00    +0.000 A 
ENDBRANCH  10  11
ENDBRANCH   9  10
ENDBRANCH   8   9
ENDBRANCH   5   8
ENDBRANCH   1   2
BRANCH   1  19
ATOM     17  C   UNL     1      46.247   6.906  11.222  0.00  0.00    +0.000 C 
ATOM     18  O   UNL     1      45.615   7.925  11.494  0.00  0.00    +0.000 OA
ATOM     19  N   UNL     1      47.605   6.852  11.405  0.00  0.00    +0.000 N 
ATOM     20  H   UNL     1      48.113   5.997  11.216  0.00  0.00    +0.000 HD
BRANCH  17  28
ATOM     21  C   UNL     1      44.452   4.326  12.667  0.00  0.00    +0.000 A 
ATOM     22  N   UNL     1      43.766   3.198  12.950  0.00  0.00    +0.000 NA
ATOM     23  C   UNL     1      43.435   2.386  11.943  0.00  0.00    +0.000 A 
ATOM     24  N   UNL     1      43.709   2.562  10.656  0.00  0.00    +0.000 NA
ATOM     25  C   UNL     1      44.402   3.687  10.414  0.00  0.00    +0.000 A 
ATOM     26  S   UNL     1      44.839   4.065   8.819  0.00  0.00    +0.000 S 
ATOM     27  C   UNL     1      45.623   5.486   9.320  0.00  0.00    +0.000 A 
ATOM     28  C   UNL     1      45.572   5.708  10.693  0.00  0.00    +0.000 A 
ATOM     29  C   UNL     1      44.830   4.632  11.346  0.00  0.00    +0.000 A 
BRANCH  21  31
ATOM     30  C   UNL     1      46.091   5.058  14.177  0.00  0.00    +0.000 C 
ATOM     31  O   UNL     1      44.750   5.187  13.705  0.00  0.00    +0.000 OA
ENDBRANCH  21  31
ENDBRANCH  17  28
ENDBRANCH   1  19
TORSDOF 8
ENDMDL
MODEL 7
REMARK VINA RESULT:    -6.528      4.622      9.174
REMARK INTER + INTRA:         -11.070
REMARK INTER:                 -10.061
REMARK INTRA:                  -1.009
REMARK UNBOUND:                -1.489
REMARK  Name = 
REMARK  9 active torsions:
REMARK  status: ('A' for Active; 'I' for Inactive)
REMARK    1  A    between atoms: C_1  and  O_2
REMARK    2  A    between atoms: O_2  and  C_3
REMARK    3  A    between atoms: C_10  and  C_11
REMARK    4  A    between atoms: N_13  and  C_14
REMARK    5  A    between atoms: C_14  and  C_15
REMARK    6  A    between atoms: C_18  and  C_19
REMARK    7  A    between atoms: C_19  and  O_20
REMARK    8  A    between atoms: O_20  and  C_21
REMARK    9  A    between atoms: C_21  and  C_22
REMARK                            x       y       z     vdW  Elec       q    Type
REMARK                         _______ _______ _______ _____ _____    ______ ____
ROOT
ATOM      1  C   UNL     1      47.252   3.286  16.851  0.00  0.00    +0.000 C 
ENDROOT
BRANCH   1   2
ATOM      2  C   UNL     1      48.705   3.251  17.247  0.00  0.00    +0.000 A 
ATOM      3  C   UNL     1      49.315   4.370  17.828  0.00  0.00    +0.000 A 
ATOM      4  C   UNL     1      50.682   4.365  18.116  0.00  0.00    +0.000 A 
ATOM      5  C   UNL     1      51.465   3.239  17.827  0.00  0.00    +0.000 A 
ATOM      6  C   UNL     1      50.850   2.108  17.277  0.00  0.00    +0.000 A 
ATOM      7  C   UNL     1      49.484   2.116  16.983  0.00  0.00    +0.000 A 
BRANCH   5   8
ATOM      8  C   UNL     1      52.942   3.235  18.132  0.00  0.00    +0.000 C 
BRANCH   8   9
ATOM      9  O   UNL     1      53.326   2.128  18.945  0.00  0.00    +0.000 OA
BRANCH   9  10
ATOM     10  C   UNL     1      54.707   1.793  18.799  0.00  0.00    +0.000 C 
BRANCH  10  11
ATOM     11  C   UNL     1      54.857   0.514  18.030  0.00  0.00    +0.000 A 
ATOM     12  C   UNL     1      55.212   0.479  16.680  0.00  0.00    +0.000 A 
ATOM     13  C   UNL     1      55.312  -0.745  16.023  0.00  0.00    +0.000 A 
ATOM     14  C   UNL     1      55.036  -1.898  16.739  0.00  0.00    +0.000 A 
ATOM     15  N   UNL     1      54.669  -1.906  18.038  0.00  0.00    +0.000 NA
ATOM     16  C   UNL     1      54.587  -0.703  18.650  0.00  0.00    +0.000 A 
ENDBRANCH  10  11
ENDBRANCH   9  10
ENDBRANCH   8   9
ENDBRANCH   5   8
ENDBRANCH   1   2
BRANCH   1  19
ATOM     17  C   UNL     1      47.023   4.198  14.582  0.00  0.00    +0.000 C 
ATOM     18  O   UNL     1      47.297   3.100  14.100  0.00  0.00    +0.000 OA
ATOM     19  N   UNL     1      46.990   4.377  15.942  0.00  0.00    +0.000 N 
ATOM     20  H   UNL     1      46.801   5.292  16.332  0.00  0.00    +0.000 HD
BRANCH  17  28
ATOM     21  C   UNL     1      44.297   5.111  12.660  0.00  0.00    +0.000 A 
ATOM     22  N   UNL     1      43.420   5.689  11.810  0.00  0.00    +0.000 NA
ATOM     23  C   UNL     1      43.763   6.842  11.232  0.00  0.00    +0.000 A 
ATOM     24  N   UNL     1      44.899   7.510  11.398  0.00  0.00    +0.000 NA
ATOM     25  C   UNL     1      45.750   6.900  12.239  0.00  0.00    +0.000 A 
ATOM     26  S   UNL     1      47.253   7.617  12.562  0.00  0.00    +0.000 S 
ATOM     27  C   UNL     1      47.691   6.343  13.597  0.00  0.00    +0.000 A 
ATOM     28  C   UNL     1      46.720   5.355  13.723  0.00  0.00    +0.000 A 
ATOM     29  C   UNL     1      45.551   5.696  12.915  0.00  0.00    +0.000 A 
BRANCH  21  31
ATOM     30  C   UNL     1      43.654   2.872  12.387  0.00  0.00    +0.000 C 
ATOM     31  O   UNL     1      43.920   3.944  13.292  0.00  0.00    +0.000 OA
ENDBRANCH  21  31
ENDBRANCH  17  28
ENDBRANCH   1  19
TORSDOF 8
ENDMDL
MODEL 8
REMARK VINA RESULT:    -6.428      2.411      3.257
REMARK INTER + INTRA:         -10.923
REMARK INTER:                  -9.798
REMARK INTRA:                  -1.125
REMARK UNBOUND:                -1.489
REMARK  Name = 
REMARK  9 active torsions:
REMARK  status: ('A' for Active; 'I' for Inactive)
REMARK    1  A    between atoms: C_1  and  O_2
REMARK    2  A    between atoms: O_2  and  C_3
REMARK    3  A    between atoms: C_10  and  C_11
REMARK    4  A    between atoms: N_13  and  C_14
REMARK    5  A    between atoms: C_14  and  C_15
REMARK    6  A    between atoms: C_18  and  C_19
REMARK    7  A    between atoms: C_19  and  O_20
REMARK    8  A    between atoms: O_20  and  C_21
REMARK    9  A    between atoms: C_21  and  C_22
REMARK                            x       y       z     vdW  Elec       q    Type
REMARK                         _______ _______ _______ _____ _____    ______ ____
ROOT
ATOM      1  C   UNL     1      47.241   4.403  15.925  0.00  0.00    +0.000 C 
ENDROOT
BRANCH   1   2
ATOM      2  C   UNL     1      46.749   4.672  14.526  0.00  0.00    +0.000 A 
ATOM      3  C   UNL     1      46.062   3.685  13.808  0.00  0.00    +0.000 A 
ATOM      4  C   UNL     1      45.682   3.907  12.482  0.00  0.00    +0.000 A 
ATOM      5  C   UNL     1      45.985   5.120  11.850  0.00  0.00    +0.000 A 
ATOM      6  C   UNL     1      46.643   6.119  12.577  0.00  0.00    +0.000 A 
ATOM      7  C   UNL     1      47.028   5.895  13.901  0.00  0.00    +0.000 A 
BRANCH   5   8
ATOM      8  C   UNL     1      45.581   5.358  10.415  0.00  0.00    +0.000 C 
BRANCH   8   9
ATOM      9  O   UNL     1      44.719   4.336   9.918  0.00  0.00    +0.000 OA
BRANCH   9  10
ATOM     10  C   UNL     1      44.722   4.262   8.492  0.00  0.00    +0.000 C 
BRANCH  10  11
ATOM     11  C   UNL     1      45.684   3.212   8.023  0.00  0.00    +0.000 A 
ATOM     12  C   UNL     1      46.651   3.451   7.046  0.00  0.00    +0.000 A 
ATOM     13  C   UNL     1      47.498   2.422   6.643  0.00  0.00    +0.000 A 
ATOM     14  C   UNL     1      47.337   1.175   7.225  0.00  0.00    +0.000 A 
ATOM     15  N   UNL     1      46.402   0.896   8.157  0.00  0.00    +0.000 NA
ATOM     16  C   UNL     1      45.599   1.917   8.531  0.00  0.00    +0.000 A 
ENDBRANCH  10  11
ENDBRANCH   9  10
ENDBRANCH   8   9
ENDBRANCH   5   8
ENDBRANCH   1   2
BRANCH   1  19
ATOM     17  C   UNL     1      49.049   5.681  16.985  0.00  0.00    +0.000 C 
ATOM     18  O   UNL     1      48.238   6.250  17.712  0.00  0.00    +0.000 OA
ATOM     19  N   UNL     1      48.635   4.756  16.061  0.00  0.00    +0.000 N 
ATOM     20  H   UNL     1      49.304   4.320  15.438  0.00  0.00    +0.000 HD
BRANCH  17  28
ATOM     21  C   UNL     1      51.845   3.750  17.630  0.00  0.00    +0.000 A 
ATOM     22  N   UNL     1      53.079   3.267  17.892  0.00  0.00    +0.000 NA
ATOM     23  C   UNL     1      54.110   4.115  17.873  0.00  0.00    +0.000 A 
ATOM     24  N   UNL     1      54.065   5.418  17.621  0.00  0.00    +0.000 NA
ATOM     25  C   UNL     1      52.821   5.864  17.377  0.00  0.00    +0.000 A 
ATOM     26  S   UNL     1      52.583   7.509  17.038  0.00  0.00    +0.000 S 
ATOM     27  C   UNL     1      50.906   7.282  16.880  0.00  0.00    +0.000 A 
ATOM     28  C   UNL     1      50.491   5.969  17.077  0.00  0.00    +0.000 A 
ATOM     29  C   UNL     1      51.644   5.117  17.365  0.00  0.00    +0.000 A 
BRANCH  21  31
ATOM     30  C   UNL     1      51.190   1.516  17.342  0.00  0.00    +0.000 C 
ATOM     31  O   UNL     1      50.789   2.862  17.602  0.00  0.00    +0.000 OA
ENDBRANCH  21  31
ENDBRANCH  17  28
ENDBRANCH   1  19
TORSDOF 8
ENDMDL
MODEL 9
REMARK VINA RESULT:    -6.328      3.390      5.679
REMARK INTER + INTRA:         -10.776
REMARK INTER:                  -9.271
REMARK INTRA:                  -1.505
REMARK UNBOUND:                -1.489
REMARK  Name = 
REMARK  9 active torsions:
REMARK  status: ('A' for Active; 'I' for Inactive)
REMARK    1  A    between atoms: C_1  and  O_2
REMARK    2  A    between atoms: O_2  and  C_3
REMARK    3  A    between atoms: C_10  and  C_11
REMARK    4  A    between atoms: N_13  and  C_14
REMARK    5  A    between atoms: C_14  and  C_15
REMARK    6  A    between atoms: C_18  and  C_19
REMARK    7  A    between atoms: C_19  and  O_20
REMARK    8  A    between atoms: O_20  and  C_21
REMARK    9  A    between atoms: C_21  and  C_22
REMARK                            x       y       z     vdW  Elec       q    Type
REMARK                         _______ _______ _______ _____ _____    ______ ____
ROOT
ATOM      1  C   UNL     1      47.856   3.432  17.382  0.00  0.00    +0.000 C 
ENDROOT
BRANCH   1   2
ATOM      2  C   UNL     1      47.768   4.261  16.127  0.00  0.00    +0.000 A 
ATOM      3  C   UNL     1      48.302   5.555  16.086  0.00  0.00    +0.000 A 
ATOM      4  C   UNL     1      48.145   6.353  14.951  0.00  0.00    +0.000 A 
ATOM      5  C   UNL     1      47.449   5.871  13.834  0.00  0.00    +0.000 A 
ATOM      6  C   UNL     1      46.943   4.566  13.862  0.00  0.00    +0.000 A 
ATOM      7  C   UNL     1      47.095   3.771  15.000  0.00  0.00    +0.000 A 
BRANCH   5   8
ATOM      8  C   UNL     1      47.272   6.735  12.610  0.00  0.00    +0.000 C 
BRANCH   8   9
ATOM      9  O   UNL     1      46.094   7.536  12.676  0.00  0.00    +0.000 OA
BRANCH   9  10
ATOM     10  C   UNL     1      45.224   7.323  11.563  0.00  0.00    +0.000 C 
BRANCH  10  11
ATOM     11  C   UNL     1      44.508   6.013  11.701  0.00  0.00    +0.000 A 
ATOM     12  C   UNL     1      43.752   5.676  12.825  0.00  0.00    +0.000 A 
ATOM     13  C   UNL     1      43.132   4.432  12.895  0.00  0.00    +0.000 A 
ATOM     14  C   UNL     1      43.303   3.554  11.838  0.00  0.00    +0.000 A 
ATOM     15  N   UNL     1      44.042   3.831  10.743  0.00  0.00    +0.000 NA
ATOM     16  C   UNL     1      44.626   5.049  10.702  0.00  0.00    +0.000 A 
ENDBRANCH  10  11
ENDBRANCH   9  10
ENDBRANCH   8   9
ENDBRANCH   5   8
ENDBRANCH   1   2
BRANCH   1  19
ATOM     17  C   UNL     1      50.041   2.347  17.104  0.00  0.00    +0.000 C 
ATOM     18  O   UNL     1      49.608   1.688  16.161  0.00  0.00    +0.000 OA
ATOM     19  N   UNL     1      49.232   3.229  17.773  0.00  0.00    +0.000 N 
ATOM     20  H   UNL     1      49.584   3.739  18.574  0.00  0.00    +0.000 HD
BRANCH  17  28
ATOM     21  C   UNL     1      52.428   4.589  18.214  0.00  0.00    +0.000 A 
ATOM     22  N   UNL     1      53.547   5.223  18.627  0.00  0.00    +0.000 NA
ATOM     23  C   UNL     1      54.643   4.494  18.851  0.00  0.00    +0.000 A 
ATOM     24  N   UNL     1      54.768   3.180  18.712  0.00  0.00    +0.000 NA
ATOM     25  C   UNL     1      53.640   2.586  18.289  0.00  0.00    +0.000 A 
ATOM     26  S   UNL     1      53.625   0.906  18.054  0.00  0.00    +0.000 S 
ATOM     27  C   UNL     1      52.003   0.943  17.552  0.00  0.00    +0.000 A 
ATOM     28  C   UNL     1      51.439   2.214  17.550  0.00  0.00    +0.000 A 
ATOM     29  C   UNL     1      52.420   3.198  18.003  0.00  0.00    +0.000 A 
BRANCH  21  31
ATOM     30  C   UNL     1      50.937   6.129  19.167  0.00  0.00    +0.000 C 
ATOM     31  O   UNL     1      51.284   5.339  18.029  0.00  0.00    +0.000 OA
ENDBRANCH  21  31
ENDBRANCH  17  28
ENDBRANCH   1  19
TORSDOF 8
ENDMDL
