MODEL 1
REMARK VINA RESULT:    -7.887      0.000      0.000
REMARK INTER + INTRA:         -12.002
REMARK INTER:                 -10.884
REMARK INTRA:                  -1.118
REMARK UNBOUND:                -1.118
REMARK  Name = 
REMARK  8 active torsions:
REMARK  status: ('A' for Active; 'I' for Inactive)
REMARK    1  A    between atoms: C_1  and  C_2
REMARK    2  A    between atoms: C_2  and  C_3
REMARK    3  A    between atoms: C_7  and  C_8
REMARK    4  A    between atoms: C_8  and  C_9
REMARK    5  A    between atoms: C_9  and  N_10
REMARK    6  A    between atoms: N_10  and  C_11
REMARK    7  A    between atoms: C_14  and  C_15
REMARK    8  A    between atoms: C_23  and  O_24
REMARK                            x       y       z     vdW  Elec       q    Type
REMARK                         _______ _______ _______ _____ _____    ______ ____
ROOT
ATOM      1  C   UNL     1      46.990   6.779  12.989  0.00  0.00    +0.000 A 
ATOM      2  C   UNL     1      47.520   5.681  13.685  0.00  0.00    +0.000 A 
ATOM      3  C   UNL     1      46.753   4.533  13.915  0.00  0.00    +0.000 A 
ATOM      4  C   UNL     1      45.433   4.457  13.466  0.00  0.00    +0.000 A 
ATOM      5  C   UNL     1      44.870   5.522  12.761  0.00  0.00    +0.000 A 
ATOM      6  C   UNL     1      45.675   6.652  12.515  0.00  0.00    +0.000 A 
ENDROOT
BRANCH   1   8
ATOM      7  C   UNL     1      48.225   8.506  14.270  0.00  0.00    +0.000 C 
ATOM      8  C   UNL     1      47.776   8.104  12.843  0.00  0.00    +0.000 C 
ATOM      9  C   UNL     1      49.005   7.907  11.913  0.00  0.00    +0.000 C 
ATOM     10  C   UNL     1      49.784   9.198  11.644  0.00  0.00    +0.000 C 
ATOM     11  C   UNL     1      48.895  10.314  11.103  0.00  0.00    +0.000 C 
ATOM     12  C   UNL     1      47.683  10.557  11.991  0.00  0.00    +0.000 C 
ATOM     13  C   UNL     1      46.913   9.265  12.249  0.00  0.00    +0.000 C 
BRANCH  11  14
ATOM     14  O   UNL     1      49.648  11.516  10.994  0.00  0.00    +0.000 OA
ATOM     15  H   UNL     1      49.721  11.910  11.881  0.00  0.00    +0.000 HD
ENDBRANCH  11  14
ENDBRANCH   1   8
BRANCH   5  16
ATOM     16  C   UNL     1      43.412   5.460  12.326  0.00  0.00    +0.000 C 
BRANCH  16  17
ATOM     17  C   UNL     1      43.225   4.941  10.894  0.00  0.00    +0.000 C 
BRANCH  17  18
ATOM     18  N   UNL     1      43.603   3.539  10.712  0.00  0.00    +0.000 N 
ATOM     19  H   UNL     1      42.789   2.929  10.646  0.00  0.00    +0.000 HD
BRANCH  18  20
ATOM     20  C   UNL     1      44.502   3.306   9.646  0.00  0.00    +0.000 A 
ATOM     21  C   UNL     1      45.165   4.333   8.962  0.00  0.00    +0.000 A 
ATOM     22  C   UNL     1      46.100   4.049   7.968  0.00  0.00    +0.000 A 
ATOM     23  C   UNL     1      46.381   2.722   7.699  0.00  0.00    +0.000 A 
ATOM     24  N   UNL     1      45.797   1.678   8.349  0.00  0.00    +0.000 NA
ATOM     25  C   UNL     1      44.894   2.005   9.309  0.00  0.00    +0.000 A 
BRANCH  23  26
ATOM     26  C   UNL     1      47.401   2.387   6.654  0.00  0.00    +0.000 C 
ATOM     27  N   UNL     1      47.258   3.052   5.468  0.00  0.00    +0.000 N 
ATOM     28  O   UNL     1      48.296   1.572   6.836  0.00  0.00    +0.000 OA
ATOM     29  H   UNL     1      46.485   3.696   5.351  0.00  0.00    +0.000 HD
ATOM     30  H   UNL     1      47.886   2.848   4.704  0.00  0.00    +0.000 HD
ENDBRANCH  23  26
ENDBRANCH  18  20
ENDBRANCH  17  18
ENDBRANCH  16  17
ENDBRANCH   5  16
TORSDOF 7
ENDMDL
MODEL 2
REMARK VINA RESULT:    -7.759      1.629      2.362
REMARK INTER + INTRA:         -11.826
REMARK INTER:                 -10.951
REMARK INTRA:                  -0.875
REMARK UNBOUND:                -1.118
REMARK  Name = 
REMARK  8 active torsions:
REMARK  status: ('A' for Active; 'I' for Inactive)
REMARK    1  A    between atoms: C_1  and  C_2
REMARK    2  A    between atoms: C_2  and  C_3
REMARK    3  A    between atoms: C_7  and  C_8
REMARK    4  A    between atoms: C_8  and  C_9
REMARK    5  A    between atoms: C_9  and  N_10
REMARK    6  A    between atoms: N_10  and  C_11
REMARK    7  A    between atoms: C_14  and  C_15
REMARK    8  A    between atoms: C_23  and  O_24
REMARK                            x       y       z     vdW  Elec       q    Type
REMARK                         _______ _______ _______ _____ _____    ______ ____
ROOT
ATOM      1  C   UNL     1      47.657   8.377  12.225  0.00  0.00    +0.000 A 
ATOM      2  C   UNL     1      46.628   9.321  12.368  0.00  0.00    +0.000 A 
ATOM      3  C   UNL     1      45.283   8.941  12.288  0.00  0.00    +0.000 A 
ATOM      4  C   UNL     1      44.933   7.611  12.051  0.00  0.00    +0.000 A 
ATOM      5  C   UNL     1      45.925   6.638  11.913  0.00  0.00    +0.000 A 
ATOM      6  C   UNL     1      47.269   7.044  12.030  0.00  0.00    +0.000 A 
ENDROOT
BRANCH   1   8
ATOM      7  C   UNL     1      49.601   8.967  13.648  0.00  0.00    +0.000 C 
ATOM      8  C   UNL     1      49.146   8.800  12.177  0.00  0.00    +0.000 C 
ATOM      9  C   UNL     1      49.996   7.718  11.455  0.00  0.00    +0.000 C 
ATOM     10  C   UNL     1      51.467   8.106  11.286  0.00  0.00    +0.000 C 
ATOM     11  C   UNL     1      51.640   9.452  10.589  0.00  0.00    +0.000 C 
ATOM     12  C   UNL     1      50.837  10.552  11.270  0.00  0.00    +0.000 C 
ATOM     13  C   UNL     1      49.373  10.155  11.430  0.00  0.00    +0.000 C 
BRANCH  11  14
ATOM     14  O   UNL     1      53.016   9.811  10.575  0.00  0.00    +0.000 OA
ATOM     15  H   UNL     1      53.462   9.330  11.294  0.00  0.00    +0.000 HD
ENDBRANCH  11  14
ENDBRANCH   1   8
BRANCH   5  16
ATOM     16  C   UNL     1      45.541   5.199  11.594  0.00  0.00    +0.000 C 
BRANCH  16  17
ATOM     17  C   UNL     1      44.060   5.033  11.222  0.00  0.00    +0.000 C 
BRANCH  17  18
ATOM     18  N   UNL     1      43.811   4.948   9.782  0.00  0.00    +0.000 N 
ATOM     19  H   UNL     1      43.862   5.860   9.331  0.00  0.00    +0.000 HD
BRANCH  18  20
ATOM     20  C   UNL     1      44.607   3.998   9.103  0.00  0.00    +0.000 A 
ATOM     21  C   UNL     1      45.605   4.349   8.184  0.00  0.00    +0.000 A 
ATOM     22  C   UNL     1      46.415   3.378   7.596  0.00  0.00    +0.000 A 
ATOM     23  C   UNL     1      46.229   2.060   7.971  0.00  0.00    +0.000 A 
ATOM     24  N   UNL     1      45.300   1.657   8.882  0.00  0.00    +0.000 NA
ATOM     25  C   UNL     1      44.537   2.638   9.428  0.00  0.00    +0.000 A 
BRANCH  23  26
ATOM     26  C   UNL     1      47.102   0.999   7.375  0.00  0.00    +0.000 C 
ATOM     27  N   UNL     1      46.721  -0.286   7.646  0.00  0.00    +0.000 N 
ATOM     28  O   UNL     1      48.092   1.254   6.702  0.00  0.00    +0.000 OA
ATOM     29  H   UNL     1      45.913  -0.451   8.232  0.00  0.00    +0.000 HD
ATOM     30  H   UNL     1      47.285  -1.053   7.309  0.00  0.00    +0.000 HD
ENDBRANCH  23  26
ENDBRANCH  18  20
ENDBRANCH  17  18
ENDBRANCH  16  17
ENDBRANCH   5  16
TORSDOF 7
ENDMDL
MODEL 3
REMARK VINA RESULT:    -7.682      3.411      7.699
REMARK INTER + INTRA:         -11.720
REMARK INTER:                 -10.738
REMARK INTRA:                  -0.982
REMARK UNBOUND:                -1.118
REMARK  Name = 
REMARK  8 active torsions:
REMARK  status: ('A' for Active; 'I' for Inactive)
REMARK    1  A    between atoms: C_1  and  C_2
REMARK    2  A    between atoms: C_2  and  C_3
REMARK    3  A    between atoms: C_7  and  C_8
REMARK    4  A    between atoms: C_8  and  C_9
REMARK    5  A    between atoms: C_9  and  N_10
REMARK    6  A    between atoms: N_10  and  C_11
REMARK    7  A    between atoms: C_14  and  C_15
REMARK    8  A    between atoms: C_23  and  O_24
REMARK                            x       y       z     vdW  Elec       q    Type
REMARK                         _______ _______ _______ _____ _____    ______ ____
ROOT
ATOM      1  C   UNL     1      44.761   3.718   9.690  0.00  0.00    +0.000 A 
ATOM      2  C   UNL     1      44.081   2.890  10.597  0.00  0.00    +0.000 A 
ATOM      3  C   UNL     1      43.606   3.391  11.815  0.00  0.00    +0.000 A 
ATOM      4  C   UNL     1      43.807   4.728  12.162  0.00  0.00    +0.000 A 
ATOM      5  C   UNL     1      44.470   5.588  11.284  0.00  0.00    +0.000 A 
ATOM      6  C   UNL     1      44.909   5.065  10.051  0.00  0.00    +0.000 A 
ENDROOT
BRANCH   1   8
ATOM      7  C   UNL     1      44.281   3.072   7.344  0.00  0.00    +0.000 C 
ATOM      8  C   UNL     1      45.409   3.151   8.403  0.00  0.00    +0.000 C 
ATOM      9  C   UNL     1      46.557   4.080   7.918  0.00  0.00    +0.000 C 
ATOM     10  C   UNL     1      47.309   3.539   6.699  0.00  0.00    +0.000 C 
ATOM     11  C   UNL     1      47.841   2.126   6.921  0.00  0.00    +0.000 C 
ATOM     12  C   UNL     1      46.748   1.172   7.382  0.00  0.00    +0.000 C 
ATOM     13  C   UNL     1      46.007   1.720   8.599  0.00  0.00    +0.000 C 
BRANCH  11  14
ATOM     14  O   UNL     1      48.417   1.636   5.716  0.00  0.00    +0.000 OA
ATOM     15  H   UNL     1      49.113   0.997   5.950  0.00  0.00    +0.000 HD
ENDBRANCH  11  14
ENDBRANCH   1   8
BRANCH   5  16
ATOM     16  C   UNL     1      44.743   7.029  11.692  0.00  0.00    +0.000 C 
BRANCH  16  17
ATOM     17  C   UNL     1      46.116   7.227  12.349  0.00  0.00    +0.000 C 
BRANCH  17  18
ATOM     18  N   UNL     1      46.906   6.001  12.464  0.00  0.00    +0.000 N 
ATOM     19  H   UNL     1      47.744   6.029  11.885  0.00  0.00    +0.000 HD
BRANCH  18  20
ATOM     20  C   UNL     1      47.217   5.624  13.791  0.00  0.00    +0.000 A 
ATOM     21  C   UNL     1      46.681   4.488  14.413  0.00  0.00    +0.000 A 
ATOM     22  C   UNL     1      47.077   4.118  15.697  0.00  0.00    +0.000 A 
ATOM     23  C   UNL     1      48.041   4.883  16.328  0.00  0.00    +0.000 A 
ATOM     24  N   UNL     1      48.625   5.978  15.767  0.00  0.00    +0.000 NA
ATOM     25  C   UNL     1      48.207   6.299  14.515  0.00  0.00    +0.000 A 
BRANCH  23  26
ATOM     26  C   UNL     1      48.504   4.492  17.698  0.00  0.00    +0.000 C 
ATOM     27  N   UNL     1      47.729   3.560  18.330  0.00  0.00    +0.000 N 
ATOM     28  O   UNL     1      49.499   4.973  18.225  0.00  0.00    +0.000 OA
ATOM     29  H   UNL     1      46.899   3.211  17.868  0.00  0.00    +0.000 HD
ATOM     30  H   UNL     1      47.958   3.278  19.272  0.00  0.00    +0.000 HD
ENDBRANCH  23  26
ENDBRANCH  18  20
ENDBRANCH  17  18
ENDBRANCH  16  17
ENDBRANCH   5  16
TORSDOF 7
ENDMDL
MODEL 4
REMARK VINA RESULT:    -7.547      3.420      4.845
REMARK INTER + INTRA:         -11.534
REMARK INTER:                 -10.600
REMARK INTRA:                  -0.934
REMARK UNBOUND:                -1.118
REMARK  Name = 
REMARK  8 active torsions:
REMARK  status: ('A' for Active; 'I' for Inactive)
REMARK    1  A    between atoms: C_1  and  C_2
REMARK    2  A    between atoms: C_2  and  C_3
REMARK    3  A    between atoms: C_7  and  C_8
REMARK    4  A    between atoms: C_8  and  C_9
REMARK    5  A    between atoms: C_9  and  N_10
REMARK    6  A    between atoms: N_10  and  C_11
REMARK    7  A    between atoms: C_14  and  C_15
REMARK    8  A    between atoms: C_23  and  O_24
REMARK                            x       y       z     vdW  Elec       q    Type
REMARK                         _______ _______ _______ _____ _____    ______ ____
ROOT
ATOM      1  C   UNL     1      47.823   5.510  15.184  0.00  0.00    +0.000 A 
ATOM      2  C   UNL     1      48.323   6.580  14.425  0.00  0.00    +0.000 A 
ATOM      3  C   UNL     1      47.885   6.803  13.114  0.00  0.00    +0.000 A 
ATOM      4  C   UNL     1      46.945   5.956  12.525  0.00  0.00    +0.000 A 
ATOM      5  C   UNL     1      46.414   4.885  13.248  0.00  0.00    +0.000 A 
ATOM      6  C   UNL     1      46.849   4.705  14.576  0.00  0.00    +0.000 A 
ENDROOT
BRANCH   1   8
ATOM      7  C   UNL     1      49.802   5.809  16.648  0.00  0.00    +0.000 C 
ATOM      8  C   UNL     1      48.393   5.171  16.583  0.00  0.00    +0.000 C 
ATOM      9  C   UNL     1      47.475   5.745  17.698  0.00  0.00    +0.000 C 
ATOM     10  C   UNL     1      47.923   5.372  19.113  0.00  0.00    +0.000 C 
ATOM     11  C   UNL     1      48.084   3.865  19.296  0.00  0.00    +0.000 C 
ATOM     12  C   UNL     1      48.990   3.257  18.235  0.00  0.00    +0.000 C 
ATOM     13  C   UNL     1      48.532   3.633  16.829  0.00  0.00    +0.000 C 
BRANCH  11  14
ATOM     14  O   UNL     1      48.620   3.594  20.586  0.00  0.00    +0.000 OA
ATOM     15  H   UNL     1      48.286   2.728  20.877  0.00  0.00    +0.000 HD
ENDBRANCH  11  14
ENDBRANCH   1   8
BRANCH   5  16
ATOM     16  C   UNL     1      45.436   3.928  12.581  0.00  0.00    +0.000 C 
BRANCH  16  17
ATOM     17  C   UNL     1      44.409   4.634  11.684  0.00  0.00    +0.000 C 
BRANCH  17  18
ATOM     18  N   UNL     1      43.814   3.771  10.662  0.00  0.00    +0.000 N 
ATOM     19  H   UNL     1      42.924   4.134  10.325  0.00  0.00    +0.000 HD
BRANCH  18  20
ATOM     20  C   UNL     1      44.675   3.454   9.586  0.00  0.00    +0.000 A 
ATOM     21  C   UNL     1      45.330   4.425   8.816  0.00  0.00    +0.000 A 
ATOM     22  C   UNL     1      46.228   4.061   7.814  0.00  0.00    +0.000 A 
ATOM     23  C   UNL     1      46.481   2.714   7.623  0.00  0.00    +0.000 A 
ATOM     24  N   UNL     1      45.903   1.724   8.358  0.00  0.00    +0.000 NA
ATOM     25  C   UNL     1      45.037   2.128   9.323  0.00  0.00    +0.000 A 
BRANCH  23  26
ATOM     26  C   UNL     1      47.462   2.295   6.571  0.00  0.00    +0.000 C 
ATOM     27  N   UNL     1      47.347   2.951   5.377  0.00  0.00    +0.000 N 
ATOM     28  O   UNL     1      48.302   1.424   6.755  0.00  0.00    +0.000 OA
ATOM     29  H   UNL     1      46.619   3.644   5.259  0.00  0.00    +0.000 HD
ATOM     30  H   UNL     1      47.950   2.694   4.608  0.00  0.00    +0.000 HD
ENDBRANCH  23  26
ENDBRANCH  18  20
ENDBRANCH  17  18
ENDBRANCH  16  17
ENDBRANCH   5  16
TORSDOF 7
ENDMDL
MODEL 5
REMARK VINA RESULT:    -7.462      4.575      7.834
REMARK INTER + INTRA:         -11.416
REMARK INTER:                  -9.801
REMARK INTRA:                  -1.615
REMARK UNBOUND:                -1.118
REMARK  Name = 
REMARK  8 active torsions:
REMARK  status: ('A' for Active; 'I' for Inactive)
REMARK    1  A    between atoms: C_1  and  C_2
REMARK    2  A    between atoms: C_2  and  C_3
REMARK    3  A    between atoms: C_7  and  C_8
REMARK    4  A    between atoms: C_8  and  C_9
REMARK    5  A    between atoms: C_9  and  N_10
REMARK    6  A    between atoms: N_10  and  C_11
REMARK    7  A    between atoms: C_14  and  C_15
REMARK    8  A    between atoms: C_23  and  O_24
REMARK                            x       y       z     vdW  Elec       q    Type
REMARK                         _______ _______ _______ _____ _____    ______ ____
ROOT
ATOM      1  C   UNL     1      45.819   7.082  11.633  0.00  0.00    +0.000 A 
ATOM      2  C   UNL     1      45.025   8.200  11.927  0.00  0.00    +0.000 A 
ATOM      3  C   UNL     1      45.602   9.408  12.338  0.00  0.00    +0.000 A 
ATOM      4  C   UNL     1      46.986   9.525  12.475  0.00  0.00    +0.000 A 
ATOM      5  C   UNL     1      47.814   8.439  12.183  0.00  0.00    +0.000 A 
ATOM      6  C   UNL     1      47.208   7.246  11.740  0.00  0.00    +0.000 A 
ENDROOT
BRANCH   1   8
ATOM      7  C   UNL     1      45.640   5.347   9.869  0.00  0.00    +0.000 C 
ATOM      8  C   UNL     1      45.192   5.703  11.308  0.00  0.00    +0.000 C 
ATOM      9  C   UNL     1      45.683   4.631  12.320  0.00  0.00    +0.000 C 
ATOM     10  C   UNL     1      45.035   3.259  12.121  0.00  0.00    +0.000 C 
ATOM     11  C   UNL     1      43.510   3.326  12.132  0.00  0.00    +0.000 C 
ATOM     12  C   UNL     1      42.979   4.353  11.143  0.00  0.00    +0.000 C 
ATOM     13  C   UNL     1      43.630   5.717  11.353  0.00  0.00    +0.000 C 
BRANCH  11  14
ATOM     14  O   UNL     1      42.972   2.047  11.819  0.00  0.00    +0.000 OA
ATOM     15  H   UNL     1      43.349   1.399  12.440  0.00  0.00    +0.000 HD
ENDBRANCH  11  14
ENDBRANCH   1   8
BRANCH   5  16
ATOM     16  C   UNL     1      49.318   8.551  12.393  0.00  0.00    +0.000 C 
BRANCH  16  17
ATOM     17  C   UNL     1      49.868   7.541  13.410  0.00  0.00    +0.000 C 
BRANCH  17  18
ATOM     18  N   UNL     1      49.536   7.853  14.801  0.00  0.00    +0.000 N 
ATOM     19  H   UNL     1      48.970   8.696  14.880  0.00  0.00    +0.000 HD
BRANCH  18  20
ATOM     20  C   UNL     1      48.959   6.782  15.522  0.00  0.00    +0.000 A 
ATOM     21  C   UNL     1      48.055   5.874  14.955  0.00  0.00    +0.000 A 
ATOM     22  C   UNL     1      47.572   4.790  15.686  0.00  0.00    +0.000 A 
ATOM     23  C   UNL     1      48.036   4.616  16.977  0.00  0.00    +0.000 A 
ATOM     24  N   UNL     1      48.937   5.443  17.575  0.00  0.00    +0.000 NA
ATOM     25  C   UNL     1      49.380   6.483  16.823  0.00  0.00    +0.000 A 
BRANCH  23  26
ATOM     26  C   UNL     1      47.553   3.445  17.777  0.00  0.00    +0.000 C 
ATOM     27  N   UNL     1      48.340   3.105  18.842  0.00  0.00    +0.000 N 
ATOM     28  O   UNL     1      46.534   2.826  17.500  0.00  0.00    +0.000 OA
ATOM     29  H   UNL     1      49.190   3.626  19.017  0.00  0.00    +0.000 HD
ATOM     30  H   UNL     1      48.098   2.301  19.404  0.00  0.00    +0.000 HD
ENDBRANCH  23  26
ENDBRANCH  18  20
ENDBRANCH  17  18
ENDBRANCH  16  17
ENDBRANCH   5  16
TORSDOF 7
ENDMDL
MODEL 6
REMARK VINA RESULT:    -7.068      1.498      2.227
REMARK INTER + INTRA:         -10.872
REMARK INTER:                  -9.864
REMARK INTRA:                  -1.008
REMARK UNBOUND:                -1.118
REMARK  Name = 
REMARK  8 active torsions:
REMARK  status: ('A' for Active; 'I' for Inactive)
REMARK    1  A    between atoms: C_1  and  C_2
REMARK    2  A    between atoms: C_2  and  C_3
REMARK    3  A    between atoms: C_7  and  C_8
REMARK    4  A    between atoms: C_8  and  C_9
REMARK    5  A    between atoms: C_9  and  N_10
REMARK    6  A    between atoms: N_10  and  C_11
REMARK    7  A    between atoms: C_14  and  C_15
REMARK    8  A    between atoms: C_23  and  O_24
REMARK                            x       y       z     vdW  Elec       q    Type
REMARK                         _______ _______ _______ _____ _____    ______ ____
ROOT
ATOM      1  C   UNL     1      47.581   6.556  13.416  0.00  0.00    +0.000 A 
ATOM      2  C   UNL     1      47.744   5.334  14.086  0.00  0.00    +0.000 A 
ATOM      3  C   UNL     1      46.720   4.380  14.109  0.00  0.00    +0.000 A 
ATOM      4  C   UNL     1      45.503   4.628  13.472  0.00  0.00    +0.000 A 
ATOM      5  C   UNL     1      45.302   5.827  12.786  0.00  0.00    +0.000 A 
ATOM      6  C   UNL     1      46.361   6.755  12.752  0.00  0.00    +0.000 A 
ENDROOT
BRANCH   1   8
ATOM      7  C   UNL     1      49.298   7.757  12.090  0.00  0.00    +0.000 C 
ATOM      8  C   UNL     1      48.649   7.674  13.494  0.00  0.00    +0.000 C 
ATOM      9  C   UNL     1      47.992   9.029  13.879  0.00  0.00    +0.000 C 
ATOM     10  C   UNL     1      48.998  10.167  14.066  0.00  0.00    +0.000 C 
ATOM     11  C   UNL     1      50.096   9.818  15.067  0.00  0.00    +0.000 C 
ATOM     12  C   UNL     1      50.783   8.504  14.723  0.00  0.00    +0.000 C 
ATOM     13  C   UNL     1      49.770   7.376  14.542  0.00  0.00    +0.000 C 
BRANCH  11  14
ATOM     14  O   UNL     1      51.062  10.861  15.102  0.00  0.00    +0.000 OA
ATOM     15  H   UNL     1      51.592  10.810  14.287  0.00  0.00    +0.000 HD
ENDBRANCH  11  14
ENDBRANCH   1   8
BRANCH   5  16
ATOM     16  C   UNL     1      43.951   6.119  12.145  0.00  0.00    +0.000 C 
BRANCH  16  17
ATOM     17  C   UNL     1      43.919   5.834  10.637  0.00  0.00    +0.000 C 
BRANCH  17  18
ATOM     18  N   UNL     1      43.580   4.452  10.297  0.00  0.00    +0.000 N 
ATOM     19  H   UNL     1      42.657   4.377   9.870  0.00  0.00    +0.000 HD
BRANCH  18  20
ATOM     20  C   UNL     1      44.554   3.781   9.522  0.00  0.00    +0.000 A 
ATOM     21  C   UNL     1      44.695   2.387   9.505  0.00  0.00    +0.000 A 
ATOM     22  C   UNL     1      45.622   1.768   8.667  0.00  0.00    +0.000 A 
ATOM     23  C   UNL     1      46.375   2.567   7.827  0.00  0.00    +0.000 A 
ATOM     24  N   UNL     1      46.264   3.923   7.771  0.00  0.00    +0.000 NA
ATOM     25  C   UNL     1      45.347   4.480   8.605  0.00  0.00    +0.000 A 
BRANCH  23  26
ATOM     26  C   UNL     1      47.360   1.927   6.896  0.00  0.00    +0.000 C 
ATOM     27  N   UNL     1      48.418   2.716   6.539  0.00  0.00    +0.000 N 
ATOM     28  O   UNL     1      47.231   0.785   6.475  0.00  0.00    +0.000 OA
ATOM     29  H   UNL     1      48.470   3.664   6.888  0.00  0.00    +0.000 HD
ATOM     30  H   UNL     1      49.102   2.365   5.884  0.00  0.00    +0.000 HD
ENDBRANCH  23  26
ENDBRANCH  18  20
ENDBRANCH  17  18
ENDBRANCH  16  17
ENDBRANCH   5  16
TORSDOF 7
ENDMDL
MODEL 7
REMARK VINA RESULT:    -6.925      4.680      8.008
REMARK INTER + INTRA:         -10.674
REMARK INTER:                  -9.616
REMARK INTRA:                  -1.059
REMARK UNBOUND:                -1.118
REMARK  Name = 
REMARK  8 active torsions:
REMARK  status: ('A' for Active; 'I' for Inactive)
REMARK    1  A    between atoms: C_1  and  C_2
REMARK    2  A    between atoms: C_2  and  C_3
REMARK    3  A    between atoms: C_7  and  C_8
REMARK    4  A    between atoms: C_8  and  C_9
REMARK    5  A    between atoms: C_9  and  N_10
REMARK    6  A    between atoms: N_10  and  C_11
REMARK    7  A    between atoms: C_14  and  C_15
REMARK    8  A    between atoms: C_23  and  O_24
REMARK                            x       y       z     vdW  Elec       q    Type
REMARK                         _______ _______ _______ _____ _____    ______ ____
ROOT
ATOM      1  C   UNL     1      45.993   6.899  12.176  0.00  0.00    +0.000 A 
ATOM      2  C   UNL     1      45.427   8.172  12.012  0.00  0.00    +0.000 A 
ATOM      3  C   UNL     1      46.015   9.304  12.589  0.00  0.00    +0.000 A 
ATOM      4  C   UNL     1      47.177   9.190  13.354  0.00  0.00    +0.000 A 
ATOM      5  C   UNL     1      47.779   7.943  13.534  0.00  0.00    +0.000 A 
ATOM      6  C   UNL     1      47.183   6.826  12.915  0.00  0.00    +0.000 A 
ENDROOT
BRANCH   1   8
ATOM      7  C   UNL     1      45.667   5.485  10.164  0.00  0.00    +0.000 C 
ATOM      8  C   UNL     1      45.285   5.622  11.659  0.00  0.00    +0.000 C 
ATOM      9  C   UNL     1      45.751   4.378  12.465  0.00  0.00    +0.000 C 
ATOM     10  C   UNL     1      45.026   3.088  12.073  0.00  0.00    +0.000 C 
ATOM     11  C   UNL     1      43.508   3.223  12.156  0.00  0.00    +0.000 C 
ATOM     12  C   UNL     1      43.000   4.421  11.368  0.00  0.00    +0.000 C 
ATOM     13  C   UNL     1      43.727   5.701  11.769  0.00  0.00    +0.000 C 
BRANCH  11  14
ATOM     14  O   UNL     1      42.894   2.038  11.663  0.00  0.00    +0.000 OA
ATOM     15  H   UNL     1      42.594   2.209  10.753  0.00  0.00    +0.000 HD
ENDBRANCH  11  14
ENDBRANCH   1   8
BRANCH   5  16
ATOM     16  C   UNL     1      49.011   7.814  14.420  0.00  0.00    +0.000 C 
BRANCH  16  17
ATOM     17  C   UNL     1      48.814   8.399  15.826  0.00  0.00    +0.000 C 
BRANCH  17  18
ATOM     18  N   UNL     1      48.260   7.453  16.795  0.00  0.00    +0.000 N 
ATOM     19  H   UNL     1      47.263   7.299  16.654  0.00  0.00    +0.000 HD
BRANCH  18  20
ATOM     20  C   UNL     1      48.958   6.226  16.884  0.00  0.00    +0.000 A 
ATOM     21  C   UNL     1      50.272   6.123  17.359  0.00  0.00    +0.000 A 
ATOM     22  C   UNL     1      50.891   4.881  17.498  0.00  0.00    +0.000 A 
ATOM     23  C   UNL     1      50.158   3.750  17.187  0.00  0.00    +0.000 A 
ATOM     24  N   UNL     1      48.868   3.780  16.753  0.00  0.00    +0.000 NA
ATOM     25  C   UNL     1      48.309   5.011  16.634  0.00  0.00    +0.000 A 
BRANCH  23  26
ATOM     26  C   UNL     1      50.789   2.401  17.353  0.00  0.00    +0.000 C 
ATOM     27  N   UNL     1      51.800   2.342  18.270  0.00  0.00    +0.000 N 
ATOM     28  O   UNL     1      50.437   1.420  16.711  0.00  0.00    +0.000 OA
ATOM     29  H   UNL     1      52.079   3.184  18.757  0.00  0.00    +0.000 HD
ATOM     30  H   UNL     1      52.298   1.473  18.407  0.00  0.00    +0.000 HD
ENDBRANCH  23  26
ENDBRANCH  18  20
ENDBRANCH  17  18
ENDBRANCH  16  17
ENDBRANCH   5  16
TORSDOF 7
ENDMDL
MODEL 8
REMARK VINA RESULT:    -6.667      4.025      6.212
REMARK INTER + INTRA:         -10.318
REMARK INTER:                  -9.185
REMARK INTRA:                  -1.133
REMARK UNBOUND:                -1.118
REMARK  Name = 
REMARK  8 active torsions:
REMARK  status: ('A' for Active; 'I' for Inactive)
REMARK    1  A    between atoms: C_1  and  C_2
REMARK    2  A    between atoms: C_2  and  C_3
REMARK    3  A    between atoms: C_7  and  C_8
REMARK    4  A    between atoms: C_8  and  C_9
REMARK    5  A    between atoms: C_9  and  N_10
REMARK    6  A    between atoms: N_10  and  C_11
REMARK    7  A    between atoms: C_14  and  C_15
REMARK    8  A    between atoms: C_23  and  O_24
REMARK                            x       y       z     vdW  Elec       q    Type
REMARK                         _______ _______ _______ _____ _____    ______ ____
ROOT
ATOM      1  C   UNL     1      49.523   6.920  15.722  0.00  0.00    +0.000 A 
ATOM      2  C   UNL     1      50.807   7.473  15.605  0.00  0.00    +0.000 A 
ATOM      3  C   UNL     1      51.233   8.065  14.410  0.00  0.00    +0.000 A 
ATOM      4  C   UNL     1      50.389   8.111  13.299  0.00  0.00    +0.000 A 
ATOM      5  C   UNL     1      49.099   7.580  13.376  0.00  0.00    +0.000 A 
ATOM      6  C   UNL     1      48.687   7.019  14.601  0.00  0.00    +0.000 A 
ENDROOT
BRANCH   1   8
ATOM      7  C   UNL     1      48.539   7.199  17.982  0.00  0.00    +0.000 C 
ATOM      8  C   UNL     1      49.086   6.144  16.989  0.00  0.00    +0.000 C 
ATOM      9  C   UNL     1      47.991   5.099  16.635  0.00  0.00    +0.000 C 
ATOM     10  C   UNL     1      47.571   4.227  17.821  0.00  0.00    +0.000 C 
ATOM     11  C   UNL     1      48.757   3.532  18.484  0.00  0.00    +0.000 C 
ATOM     12  C   UNL     1      49.853   4.518  18.865  0.00  0.00    +0.000 C 
ATOM     13  C   UNL     1      50.265   5.380  17.675  0.00  0.00    +0.000 C 
BRANCH  11  14
ATOM     14  O   UNL     1      48.318   2.842  19.648  0.00  0.00    +0.000 OA
ATOM     15  H   UNL     1      47.408   3.124  19.843  0.00  0.00    +0.000 HD
ENDBRANCH  11  14
ENDBRANCH   1   8
BRANCH   5  16
ATOM     16  C   UNL     1      48.204   7.576  12.143  0.00  0.00    +0.000 C 
BRANCH  16  17
ATOM     17  C   UNL     1      46.944   8.437  12.303  0.00  0.00    +0.000 C 
BRANCH  17  18
ATOM     18  N   UNL     1      45.883   7.806  13.089  0.00  0.00    +0.000 N 
ATOM     19  H   UNL     1      45.085   8.425  13.223  0.00  0.00    +0.000 HD
BRANCH  18  20
ATOM     20  C   UNL     1      45.471   6.540  12.611  0.00  0.00    +0.000 A 
ATOM     21  C   UNL     1      45.639   5.354  13.337  0.00  0.00    +0.000 A 
ATOM     22  C   UNL     1      45.149   4.141  12.856  0.00  0.00    +0.000 A 
ATOM     23  C   UNL     1      44.460   4.147  11.657  0.00  0.00    +0.000 A 
ATOM     24  N   UNL     1      44.234   5.269  10.919  0.00  0.00    +0.000 NA
ATOM     25  C   UNL     1      44.730   6.426  11.430  0.00  0.00    +0.000 A 
BRANCH  23  26
ATOM     26  C   UNL     1      43.898   2.862  11.128  0.00  0.00    +0.000 C 
ATOM     27  N   UNL     1      44.535   2.359  10.029  0.00  0.00    +0.000 N 
ATOM     28  O   UNL     1      42.934   2.301  11.633  0.00  0.00    +0.000 OA
ATOM     29  H   UNL     1      45.310   2.871   9.626  0.00  0.00    +0.000 HD
ATOM     30  H   UNL     1      44.187   1.516   9.594  0.00  0.00    +0.000 HD
ENDBRANCH  23  26
ENDBRANCH  18  20
ENDBRANCH  17  18
ENDBRANCH  16  17
ENDBRANCH   5  16
TORSDOF 7
ENDMDL
MODEL 9
REMARK VINA RESULT:    -6.521      4.204      6.524
REMARK INTER + INTRA:         -10.117
REMARK INTER:                  -9.347
REMARK INTRA:                  -0.769
REMARK UNBOUND:                -1.118
REMARK  Name = 
REMARK  8 active torsions:
REMARK  status: ('A' for Active; 'I' for Inactive)
REMARK    1  A    between atoms: C_1  and  C_2
REMARK    2  A    between atoms: C_2  and  C_3
REMARK    3  A    between atoms: C_7  and  C_8
REMARK    4  A    between atoms: C_8  and  C_9
REMARK    5  A    between atoms: C_9  and  N_10
REMARK    6  A    between atoms: N_10  and  C_11
REMARK    7  A    between atoms: C_14  and  C_15
REMARK    8  A    between atoms: C_23  and  O_24
REMARK                            x       y       z     vdW  Elec       q    Type
REMARK                         _______ _______ _______ _____ _____    ______ ____
ROOT
ATOM      1  C   UNL     1      49.000   6.427  17.043  0.00  0.00    +0.000 A 
ATOM      2  C   UNL     1      48.625   7.484  17.886  0.00  0.00    +0.000 A 
ATOM      3  C   UNL     1      48.330   8.751  17.369  0.00  0.00    +0.000 A 
ATOM      4  C   UNL     1      48.412   8.997  15.998  0.00  0.00    +0.000 A 
ATOM      5  C   UNL     1      48.772   7.970  15.122  0.00  0.00    +0.000 A 
ATOM      6  C   UNL     1      49.032   6.697  15.667  0.00  0.00    +0.000 A 
ENDROOT
BRANCH   1   8
ATOM      7  C   UNL     1      49.213   5.114  19.136  0.00  0.00    +0.000 C 
ATOM      8  C   UNL     1      49.458   5.060  17.608  0.00  0.00    +0.000 C 
ATOM      9  C   UNL     1      48.648   3.904  16.959  0.00  0.00    +0.000 C 
ATOM     10  C   UNL     1      49.106   2.512  17.399  0.00  0.00    +0.000 C 
ATOM     11  C   UNL     1      50.599   2.290  17.174  0.00  0.00    +0.000 C 
ATOM     12  C   UNL     1      51.439   3.391  17.807  0.00  0.00    +0.000 C 
ATOM     13  C   UNL     1      50.975   4.774  17.358  0.00  0.00    +0.000 C 
BRANCH  11  14
ATOM     14  O   UNL     1      50.984   1.032  17.716  0.00  0.00    +0.000 OA
ATOM     15  H   UNL     1      51.919   0.879  17.492  0.00  0.00    +0.000 HD
ENDBRANCH  11  14
ENDBRANCH   1   8
BRANCH   5  16
ATOM     16  C   UNL     1      48.921   8.258  13.634  0.00  0.00    +0.000 C 
BRANCH  16  17
ATOM     17  C   UNL     1      47.707   7.818  12.804  0.00  0.00    +0.000 C 
BRANCH  17  18
ATOM     18  N   UNL     1      46.626   7.226  13.593  0.00  0.00    +0.000 N 
ATOM     19  H   UNL     1      45.990   7.932  13.961  0.00  0.00    +0.000 HD
BRANCH  18  20
ATOM     20  C   UNL     1      45.917   6.194  12.937  0.00  0.00    +0.000 A 
ATOM     21  C   UNL     1      45.721   6.158  11.550  0.00  0.00    +0.000 A 
ATOM     22  C   UNL     1      45.080   5.080  10.942  0.00  0.00    +0.000 A 
ATOM     23  C   UNL     1      44.673   4.028  11.743  0.00  0.00    +0.000 A 
ATOM     24  N   UNL     1      44.863   3.986  13.090  0.00  0.00    +0.000 NA
ATOM     25  C   UNL     1      45.492   5.058  13.636  0.00  0.00    +0.000 A 
BRANCH  23  26
ATOM     26  C   UNL     1      44.005   2.844  11.112  0.00  0.00    +0.000 C 
ATOM     27  N   UNL     1      44.582   2.400   9.956  0.00  0.00    +0.000 N 
ATOM     28  O   UNL     1      43.010   2.312  11.587  0.00  0.00    +0.000 OA
ATOM     29  H   UNL     1      45.387   2.888   9.583  0.00  0.00    +0.000 HD
ATOM     30  H   UNL     1      44.163   1.630   9.454  0.00  0.00    +0.000 HD
ENDBRANCH  23  26
ENDBRANCH  18  20
ENDBRANCH  17  18
ENDBRANCH  16  17
ENDBRANCH   5  16
TORSDOF 7
ENDMDL
