MODEL 1
REMARK VINA RESULT:    -6.935      0.000      0.000
REMARK INTER + INTRA:          -8.587
REMARK INTER:                  -8.151
REMARK INTRA:                  -0.435
REMARK UNBOUND:                -0.435
REMARK  Name = 
REMARK  4 active torsions:
REMARK  status: ('A' for Active; 'I' for Inactive)
REMARK    1  A    between atoms: C_1  and  C_2
REMARK    2  A    between atoms: C_2  and  N_3
REMARK    3  A    between atoms: C_2  and  C_13
REMARK    4  A    between atoms: C_8  and  C_9
REMARK                            x       y       z     vdW  Elec       q    Type
REMARK                         _______ _______ _______ _____ _____    ______ ____
ROOT
ATOM      1  N   UNL     1      45.462   3.064  12.400  0.00  0.00    +0.000 N 
ATOM      2  C   UNL     1      46.131   4.122  13.039  0.00  0.00    +0.000 A 
ATOM      3  C   UNL     1      47.078   3.842  14.036  0.00  0.00    +0.000 A 
ATOM      4  N   UNL     1      47.779   4.789  14.715  0.00  0.00    +0.000 NA
ATOM      5  C   UNL     1      47.501   6.065  14.361  0.00  0.00    +0.000 A 
ATOM      6  C   UNL     1      46.568   6.362  13.383  0.00  0.00    +0.000 A 
ATOM      7  N   UNL     1      45.859   5.404  12.715  0.00  0.00    +0.000 NA
ATOM      8  H   UNL     1      46.148   2.432  11.992  0.00  0.00    +0.000 HD
ENDROOT
BRANCH   6   9
ATOM      9  C   UNL     1      46.334   7.775  12.986  0.00  0.00    +0.000 C 
ATOM     10  N   UNL     1      46.666   8.718  13.925  0.00  0.00    +0.000 N 
ATOM     11  O   UNL     1      45.857   8.087  11.902  0.00  0.00    +0.000 OA
ATOM     12  H   UNL     1      47.048   8.429  14.819  0.00  0.00    +0.000 HD
ATOM     13  H   UNL     1      46.502   9.696  13.730  0.00  0.00    +0.000 HD
ENDBRANCH   6   9
BRANCH   1  15
ATOM     14  C   UNL     1      43.210   2.541  11.579  0.00  0.00    +0.000 C 
ATOM     15  C   UNL     1      44.432   3.452  11.430  0.00  0.00    +0.000 C 
BRANCH  15  16
ATOM     16  C   UNL     1      44.993   3.395  10.016  0.00  0.00    +0.000 A 
ATOM     17  C   UNL     1      45.202   2.142   9.414  0.00  0.00    +0.000 A 
ATOM     18  C   UNL     1      45.788   2.042   8.153  0.00  0.00    +0.000 A 
ATOM     19  C   UNL     1      46.165   3.193   7.468  0.00  0.00    +0.000 A 
ATOM     20  C   UNL     1      45.939   4.446   8.038  0.00  0.00    +0.000 A 
ATOM     21  C   UNL     1      45.351   4.548   9.301  0.00  0.00    +0.000 A 
ENDBRANCH  15  16
ENDBRANCH   1  15
TORSDOF 3
ENDMDL
MODEL 2
REMARK VINA RESULT:    -6.917      1.908      2.453
REMARK INTER + INTRA:          -8.565
REMARK INTER:                  -8.094
REMARK INTRA:                  -0.472
REMARK UNBOUND:                -0.435
REMARK  Name = 
REMARK  4 active torsions:
REMARK  status: ('A' for Active; 'I' for Inactive)
REMARK    1  A    between atoms: C_1  and  C_2
REMARK    2  A    between atoms: C_2  and  N_3
REMARK    3  A    between atoms: C_2  and  C_13
REMARK    4  A    between atoms: C_8  and  C_9
REMARK                            x       y       z     vdW  Elec       q    Type
REMARK                         _______ _______ _______ _____ _____    ______ ____
ROOT
ATOM      1  N   UNL     1      45.442   4.766  11.808  0.00  0.00    +0.000 N 
ATOM      2  C   UNL     1      45.531   6.144  12.075  0.00  0.00    +0.000 A 
ATOM      3  C   UNL     1      46.442   6.604  13.037  0.00  0.00    +0.000 A 
ATOM      4  N   UNL     1      46.607   7.913  13.372  0.00  0.00    +0.000 NA
ATOM      5  C   UNL     1      45.812   8.776  12.697  0.00  0.00    +0.000 A 
ATOM      6  C   UNL     1      44.906   8.341  11.747  0.00  0.00    +0.000 A 
ATOM      7  N   UNL     1      44.738   7.023  11.427  0.00  0.00    +0.000 NA
ATOM      8  H   UNL     1      46.361   4.416  11.543  0.00  0.00    +0.000 HD
ENDROOT
BRANCH   6   9
ATOM      9  C   UNL     1      44.092   9.328  10.990  0.00  0.00    +0.000 C 
ATOM     10  N   UNL     1      42.801   8.952  10.723  0.00  0.00    +0.000 N 
ATOM     11  O   UNL     1      44.542  10.401  10.609  0.00  0.00    +0.000 OA
ATOM     12  H   UNL     1      42.460   8.052  11.041  0.00  0.00    +0.000 HD
ATOM     13  H   UNL     1      42.204   9.565  10.185  0.00  0.00    +0.000 HD
ENDBRANCH   6   9
BRANCH   1  15
ATOM     14  C   UNL     1      43.416   3.412  11.519  0.00  0.00    +0.000 C 
ATOM     15  C   UNL     1      44.407   4.367  10.848  0.00  0.00    +0.000 C 
BRANCH  15  16
ATOM     16  C   UNL     1      45.046   3.727   9.622  0.00  0.00    +0.000 A 
ATOM     17  C   UNL     1      45.101   2.325   9.535  0.00  0.00    +0.000 A 
ATOM     18  C   UNL     1      45.749   1.699   8.470  0.00  0.00    +0.000 A 
ATOM     19  C   UNL     1      46.339   2.464   7.469  0.00  0.00    +0.000 A 
ATOM     20  C   UNL     1      46.269   3.856   7.525  0.00  0.00    +0.000 A 
ATOM     21  C   UNL     1      45.621   4.485   8.591  0.00  0.00    +0.000 A 
ENDBRANCH  15  16
ENDBRANCH   1  15
TORSDOF 3
ENDMDL
MODEL 3
REMARK VINA RESULT:    -6.580      1.898      2.740
REMARK INTER + INTRA:          -8.170
REMARK INTER:                  -9.518
REMARK INTRA:                   1.349
REMARK UNBOUND:                -0.435
REMARK  Name = 
REMARK  4 active torsions:
REMARK  status: ('A' for Active; 'I' for Inactive)
REMARK    1  A    between atoms: C_1  and  C_2
REMARK    2  A    between atoms: C_2  and  N_3
REMARK    3  A    between atoms: C_2  and  C_13
REMARK    4  A    between atoms: C_8  and  C_9
REMARK                            x       y       z     vdW  Elec       q    Type
REMARK                         _______ _______ _______ _____ _____    ______ ____
ROOT
ATOM      1  N   UNL     1      43.956   5.039  10.071  0.00  0.00    +0.000 N 
ATOM      2  C   UNL     1      44.727   5.531  11.138  0.00  0.00    +0.000 A 
ATOM      3  C   UNL     1      44.848   6.916  11.324  0.00  0.00    +0.000 A 
ATOM      4  N   UNL     1      45.569   7.495  12.322  0.00  0.00    +0.000 NA
ATOM      5  C   UNL     1      46.186   6.626  13.156  0.00  0.00    +0.000 A 
ATOM      6  C   UNL     1      46.081   5.257  12.987  0.00  0.00    +0.000 A 
ATOM      7  N   UNL     1      45.365   4.684  11.973  0.00  0.00    +0.000 NA
ATOM      8  H   UNL     1      43.012   5.416  10.138  0.00  0.00    +0.000 HD
ENDROOT
BRANCH   6   9
ATOM      9  C   UNL     1      46.729   4.338  13.958  0.00  0.00    +0.000 C 
ATOM     10  N   UNL     1      46.871   4.825  15.232  0.00  0.00    +0.000 N 
ATOM     11  O   UNL     1      47.131   3.224  13.647  0.00  0.00    +0.000 OA
ATOM     12  H   UNL     1      46.539   5.756  15.457  0.00  0.00    +0.000 HD
ATOM     13  H   UNL     1      47.331   4.262  15.933  0.00  0.00    +0.000 HD
ENDBRANCH   6   9
BRANCH   1  15
ATOM     14  C   UNL     1      44.163   2.902  11.260  0.00  0.00    +0.000 C 
ATOM     15  C   UNL     1      43.951   3.581   9.903  0.00  0.00    +0.000 C 
BRANCH  15  16
ATOM     16  C   UNL     1      45.023   3.164   8.904  0.00  0.00    +0.000 A 
ATOM     17  C   UNL     1      45.404   1.813   8.837  0.00  0.00    +0.000 A 
ATOM     18  C   UNL     1      46.437   1.402   7.994  0.00  0.00    +0.000 A 
ATOM     19  C   UNL     1      47.095   2.332   7.196  0.00  0.00    +0.000 A 
ATOM     20  C   UNL     1      46.710   3.672   7.229  0.00  0.00    +0.000 A 
ATOM     21  C   UNL     1      45.676   4.086   8.073  0.00  0.00    +0.000 A 
ENDBRANCH  15  16
ENDBRANCH   1  15
TORSDOF 3
ENDMDL
MODEL 4
REMARK VINA RESULT:    -6.443      0.851      1.407
REMARK INTER + INTRA:          -8.009
REMARK INTER:                  -7.529
REMARK INTRA:                  -0.480
REMARK UNBOUND:                -0.435
REMARK  Name = 
REMARK  4 active torsions:
REMARK  status: ('A' for Active; 'I' for Inactive)
REMARK    1  A    between atoms: C_1  and  C_2
REMARK    2  A    between atoms: C_2  and  N_3
REMARK    3  A    between atoms: C_2  and  C_13
REMARK    4  A    between atoms: C_8  and  C_9
REMARK                            x       y       z     vdW  Elec       q    Type
REMARK                         _______ _______ _______ _____ _____    ______ ____
ROOT
ATOM      1  N   UNL     1      45.333   3.787  12.474  0.00  0.00    +0.000 N 
ATOM      2  C   UNL     1      46.185   4.722  13.087  0.00  0.00    +0.000 A 
ATOM      3  C   UNL     1      46.933   4.344  14.212  0.00  0.00    +0.000 A 
ATOM      4  N   UNL     1      47.785   5.169  14.878  0.00  0.00    +0.000 NA
ATOM      5  C   UNL     1      47.872   6.423  14.375  0.00  0.00    +0.000 A 
ATOM      6  C   UNL     1      47.140   6.815  13.269  0.00  0.00    +0.000 A 
ATOM      7  N   UNL     1      46.277   5.983  12.613  0.00  0.00    +0.000 NA
ATOM      8  H   UNL     1      45.872   2.963  12.213  0.00  0.00    +0.000 HD
ENDROOT
BRANCH   6   9
ATOM      9  C   UNL     1      47.308   8.185  12.716  0.00  0.00    +0.000 C 
ATOM     10  N   UNL     1      46.480   9.143  13.243  0.00  0.00    +0.000 N 
ATOM     11  O   UNL     1      48.115   8.447  11.834  0.00  0.00    +0.000 OA
ATOM     12  H   UNL     1      45.813   8.893  13.965  0.00  0.00    +0.000 HD
ATOM     13  H   UNL     1      46.522  10.088  12.889  0.00  0.00    +0.000 HD
ENDBRANCH   6   9
BRANCH   1  15
ATOM     14  C   UNL     1      43.068   3.867  11.534  0.00  0.00    +0.000 C 
ATOM     15  C   UNL     1      44.529   4.291  11.356  0.00  0.00    +0.000 C 
BRANCH  15  16
ATOM     16  C   UNL     1      45.092   3.787  10.034  0.00  0.00    +0.000 A 
ATOM     17  C   UNL     1      45.557   4.719   9.090  0.00  0.00    +0.000 A 
ATOM     18  C   UNL     1      46.006   4.306   7.836  0.00  0.00    +0.000 A 
ATOM     19  C   UNL     1      46.010   2.953   7.511  0.00  0.00    +0.000 A 
ATOM     20  C   UNL     1      45.579   2.012   8.446  0.00  0.00    +0.000 A 
ATOM     21  C   UNL     1      45.129   2.424   9.703  0.00  0.00    +0.000 A 
ENDBRANCH  15  16
ENDBRANCH   1  15
TORSDOF 3
ENDMDL
MODEL 5
REMARK VINA RESULT:    -6.144      2.558      5.865
REMARK INTER + INTRA:          -7.657
REMARK INTER:                  -7.210
REMARK INTRA:                  -0.447
REMARK UNBOUND:                -0.435
REMARK  Name = 
REMARK  4 active torsions:
REMARK  status: ('A' for Active; 'I' for Inactive)
REMARK    1  A    between atoms: C_1  and  C_2
REMARK    2  A    between atoms: C_2  and  N_3
REMARK    3  A    between atoms: C_2  and  C_13
REMARK    4  A    between atoms: C_8  and  C_9
REMARK                            x       y       z     vdW  Elec       q    Type
REMARK                         _______ _______ _______ _____ _____    ______ ____
ROOT
ATOM      1  N   UNL     1      45.795   6.123  13.161  0.00  0.00    +0.000 N 
ATOM      2  C   UNL     1      45.089   5.044  12.600  0.00  0.00    +0.000 A 
ATOM      3  C   UNL     1      44.163   4.341  13.384  0.00  0.00    +0.000 A 
ATOM      4  N   UNL     1      43.429   3.285  12.940  0.00  0.00    +0.000 NA
ATOM      5  C   UNL     1      43.653   2.939  11.651  0.00  0.00    +0.000 A 
ATOM      6  C   UNL     1      44.565   3.618  10.863  0.00  0.00    +0.000 A 
ATOM      7  N   UNL     1      45.307   4.670  11.322  0.00  0.00    +0.000 NA
ATOM      8  H   UNL     1      45.132   6.804  13.525  0.00  0.00    +0.000 HD
ENDROOT
BRANCH   6   9
ATOM      9  C   UNL     1      44.739   3.240   9.437  0.00  0.00    +0.000 C 
ATOM     10  N   UNL     1      44.160   4.083   8.524  0.00  0.00    +0.000 N 
ATOM     11  O   UNL     1      45.342   2.232   9.089  0.00  0.00    +0.000 OA
ATOM     12  H   UNL     1      43.657   4.904   8.843  0.00  0.00    +0.000 HD
ATOM     13  H   UNL     1      44.215   3.867   7.539  0.00  0.00    +0.000 HD
ENDBRANCH   6   9
BRANCH   1  15
ATOM     14  C   UNL     1      48.203   6.481  12.852  0.00  0.00    +0.000 C 
ATOM     15  C   UNL     1      46.802   6.748  12.295  0.00  0.00    +0.000 C 
BRANCH  15  16
ATOM     16  C   UNL     1      46.533   8.241  12.171  0.00  0.00    +0.000 A 
ATOM     17  C   UNL     1      45.203   8.693  12.112  0.00  0.00    +0.000 A 
ATOM     18  C   UNL     1      44.913  10.043  11.918  0.00  0.00    +0.000 A 
ATOM     19  C   UNL     1      45.947  10.965  11.791  0.00  0.00    +0.000 A 
ATOM     20  C   UNL     1      47.273  10.538  11.876  0.00  0.00    +0.000 A 
ATOM     21  C   UNL     1      47.565   9.186  12.070  0.00  0.00    +0.000 A 
ENDBRANCH  15  16
ENDBRANCH   1  15
TORSDOF 3
ENDMDL
MODEL 6
REMARK VINA RESULT:    -5.899      3.637      5.839
REMARK INTER + INTRA:          -7.369
REMARK INTER:                  -6.924
REMARK INTRA:                  -0.445
REMARK UNBOUND:                -0.435
REMARK  Name = 
REMARK  4 active torsions:
REMARK  status: ('A' for Active; 'I' for Inactive)
REMARK    1  A    between atoms: C_1  and  C_2
REMARK    2  A    between atoms: C_2  and  N_3
REMARK    3  A    between atoms: C_2  and  C_13
REMARK    4  A    between atoms: C_8  and  C_9
REMARK                            x       y       z     vdW  Elec       q    Type
REMARK                         _______ _______ _______ _____ _____    ______ ____
ROOT
ATOM      1  N   UNL     1      47.912   6.422  15.753  0.00  0.00    +0.000 N 
ATOM      2  C   UNL     1      48.266   5.474  16.729  0.00  0.00    +0.000 A 
ATOM      3  C   UNL     1      47.928   5.701  18.071  0.00  0.00    +0.000 A 
ATOM      4  N   UNL     1      48.223   4.850  19.090  0.00  0.00    +0.000 NA
ATOM      5  C   UNL     1      48.886   3.730  18.721  0.00  0.00    +0.000 A 
ATOM      6  C   UNL     1      49.232   3.489  17.403  0.00  0.00    +0.000 A 
ATOM      7  N   UNL     1      48.942   4.356  16.387  0.00  0.00    +0.000 NA
ATOM      8  H   UNL     1      46.906   6.578  15.787  0.00  0.00    +0.000 HD
ENDROOT
BRANCH   6   9
ATOM      9  C   UNL     1      49.911   2.220  17.034  0.00  0.00    +0.000 C 
ATOM     10  N   UNL     1      50.883   1.793  17.902  0.00  0.00    +0.000 N 
ATOM     11  O   UNL     1      49.643   1.599  16.013  0.00  0.00    +0.000 OA
ATOM     12  H   UNL     1      51.092   2.335  18.734  0.00  0.00    +0.000 HD
ATOM     13  H   UNL     1      51.404   0.953  17.694  0.00  0.00    +0.000 HD
ENDBRANCH   6   9
BRANCH   1  15
ATOM     14  C   UNL     1      49.197   7.326  13.868  0.00  0.00    +0.000 C 
ATOM     15  C   UNL     1      48.377   6.143  14.390  0.00  0.00    +0.000 C 
BRANCH  15  16
ATOM     16  C   UNL     1      47.191   5.849  13.481  0.00  0.00    +0.000 A 
ATOM     17  C   UNL     1      46.382   4.732  13.752  0.00  0.00    +0.000 A 
ATOM     18  C   UNL     1      45.336   4.381  12.900  0.00  0.00    +0.000 A 
ATOM     19  C   UNL     1      45.073   5.149  11.769  0.00  0.00    +0.000 A 
ATOM     20  C   UNL     1      45.848   6.277  11.500  0.00  0.00    +0.000 A 
ATOM     21  C   UNL     1      46.896   6.630  12.353  0.00  0.00    +0.000 A 
ENDBRANCH  15  16
ENDBRANCH   1  15
TORSDOF 3
ENDMDL
MODEL 7
REMARK VINA RESULT:    -5.797      2.690      6.071
REMARK INTER + INTRA:          -7.249
REMARK INTER:                  -6.855
REMARK INTRA:                  -0.394
REMARK UNBOUND:                -0.435
REMARK  Name = 
REMARK  4 active torsions:
REMARK  status: ('A' for Active; 'I' for Inactive)
REMARK    1  A    between atoms: C_1  and  C_2
REMARK    2  A    between atoms: C_2  and  N_3
REMARK    3  A    between atoms: C_2  and  C_13
REMARK    4  A    between atoms: C_8  and  C_9
REMARK                            x       y       z     vdW  Elec       q    Type
REMARK                         _______ _______ _______ _____ _____    ______ ____
ROOT
ATOM      1  N   UNL     1      46.472   6.562  10.876  0.00  0.00    +0.000 N 
ATOM      2  C   UNL     1      45.686   5.462  10.489  0.00  0.00    +0.000 A 
ATOM      3  C   UNL     1      45.637   5.087   9.139  0.00  0.00    +0.000 A 
ATOM      4  N   UNL     1      44.911   4.041   8.659  0.00  0.00    +0.000 NA
ATOM      5  C   UNL     1      44.212   3.358   9.596  0.00  0.00    +0.000 A 
ATOM      6  C   UNL     1      44.245   3.715  10.932  0.00  0.00    +0.000 A 
ATOM      7  N   UNL     1      44.968   4.775  11.403  0.00  0.00    +0.000 NA
ATOM      8  H   UNL     1      47.432   6.412  10.571  0.00  0.00    +0.000 HD
ENDROOT
BRANCH   6   9
ATOM      9  C   UNL     1      43.506   2.904  11.935  0.00  0.00    +0.000 C 
ATOM     10  N   UNL     1      43.586   3.346  13.231  0.00  0.00    +0.000 N 
ATOM     11  O   UNL     1      42.881   1.894  11.637  0.00  0.00    +0.000 OA
ATOM     12  H   UNL     1      44.121   4.179  13.449  0.00  0.00    +0.000 HD
ATOM     13  H   UNL     1      43.132   2.822  13.965  0.00  0.00    +0.000 HD
ENDBRANCH   6   9
BRANCH   1  15
ATOM     14  C   UNL     1      45.436   8.109  12.474  0.00  0.00    +0.000 C 
ATOM     15  C   UNL     1      46.399   6.933  12.294  0.00  0.00    +0.000 C 
BRANCH  15  16
ATOM     16  C   UNL     1      47.788   7.271  12.819  0.00  0.00    +0.000 A 
ATOM     17  C   UNL     1      48.757   7.757  11.924  0.00  0.00    +0.000 A 
ATOM     18  C   UNL     1      50.063   8.003  12.347  0.00  0.00    +0.000 A 
ATOM     19  C   UNL     1      50.418   7.779  13.674  0.00  0.00    +0.000 A 
ATOM     20  C   UNL     1      49.461   7.326  14.582  0.00  0.00    +0.000 A 
ATOM     21  C   UNL     1      48.153   7.078  14.161  0.00  0.00    +0.000 A 
ENDBRANCH  15  16
ENDBRANCH   1  15
TORSDOF 3
ENDMDL
MODEL 8
REMARK VINA RESULT:    -5.514      2.778      5.566
REMARK INTER + INTRA:          -6.917
REMARK INTER:                  -6.614
REMARK INTRA:                  -0.303
REMARK UNBOUND:                -0.435
REMARK  Name = 
REMARK  4 active torsions:
REMARK  status: ('A' for Active; 'I' for Inactive)
REMARK    1  A    between atoms: C_1  and  C_2
REMARK    2  A    between atoms: C_2  and  N_3
REMARK    3  A    between atoms: C_2  and  C_13
REMARK    4  A    between atoms: C_8  and  C_9
REMARK                            x       y       z     vdW  Elec       q    Type
REMARK                         _______ _______ _______ _____ _____    ______ ____
ROOT
ATOM      1  N   UNL     1      45.803   7.237  11.590  0.00  0.00    +0.000 N 
ATOM      2  C   UNL     1      45.849   5.906  12.042  0.00  0.00    +0.000 A 
ATOM      3  C   UNL     1      45.273   4.891  11.264  0.00  0.00    +0.000 A 
ATOM      4  N   UNL     1      45.262   3.575  11.608  0.00  0.00    +0.000 NA
ATOM      5  C   UNL     1      45.860   3.292  12.789  0.00  0.00    +0.000 A 
ATOM      6  C   UNL     1      46.430   4.279  13.572  0.00  0.00    +0.000 A 
ATOM      7  N   UNL     1      46.425   5.601  13.223  0.00  0.00    +0.000 NA
ATOM      8  H   UNL     1      46.227   7.291  10.665  0.00  0.00    +0.000 HD
ENDROOT
BRANCH   6   9
ATOM      9  C   UNL     1      47.125   3.917  14.834  0.00  0.00    +0.000 C 
ATOM     10  N   UNL     1      47.098   4.868  15.821  0.00  0.00    +0.000 N 
ATOM     11  O   UNL     1      47.704   2.848  14.986  0.00  0.00    +0.000 OA
ATOM     12  H   UNL     1      46.620   5.749  15.662  0.00  0.00    +0.000 HD
ATOM     13  H   UNL     1      47.578   4.697  16.693  0.00  0.00    +0.000 HD
ENDBRANCH   6   9
BRANCH   1  15
ATOM     14  C   UNL     1      45.385   9.419  12.631  0.00  0.00    +0.000 C 
ATOM     15  C   UNL     1      46.356   8.242  12.504  0.00  0.00    +0.000 C 
BRANCH  15  16
ATOM     16  C   UNL     1      47.721   8.705  12.013  0.00  0.00    +0.000 A 
ATOM     17  C   UNL     1      48.745   7.755  11.848  0.00  0.00    +0.000 A 
ATOM     18  C   UNL     1      50.031   8.146  11.477  0.00  0.00    +0.000 A 
ATOM     19  C   UNL     1      50.312   9.491  11.254  0.00  0.00    +0.000 A 
ATOM     20  C   UNL     1      49.301  10.443  11.386  0.00  0.00    +0.000 A 
ATOM     21  C   UNL     1      48.012  10.053  11.757  0.00  0.00    +0.000 A 
ENDBRANCH  15  16
ENDBRANCH   1  15
TORSDOF 3
ENDMDL
MODEL 9
REMARK VINA RESULT:    -5.329      4.075      7.581
REMARK INTER + INTRA:          -6.699
REMARK INTER:                  -6.216
REMARK INTRA:                  -0.483
REMARK UNBOUND:                -0.435
REMARK  Name = 
REMARK  4 active torsions:
REMARK  status: ('A' for Active; 'I' for Inactive)
REMARK    1  A    between atoms: C_1  and  C_2
REMARK    2  A    between atoms: C_2  and  N_3
REMARK    3  A    between atoms: C_2  and  C_13
REMARK    4  A    between atoms: C_8  and  C_9
REMARK                            x       y       z     vdW  Elec       q    Type
REMARK                         _______ _______ _______ _____ _____    ______ ____
ROOT
ATOM      1  N   UNL     1      49.317   5.920  17.014  0.00  0.00    +0.000 N 
ATOM      2  C   UNL     1      48.686   6.042  15.763  0.00  0.00    +0.000 A 
ATOM      3  C   UNL     1      48.914   7.184  14.981  0.00  0.00    +0.000 A 
ATOM      4  N   UNL     1      48.354   7.401  13.760  0.00  0.00    +0.000 NA
ATOM      5  C   UNL     1      47.534   6.415  13.328  0.00  0.00    +0.000 A 
ATOM      6  C   UNL     1      47.294   5.283  14.087  0.00  0.00    +0.000 A 
ATOM      7  N   UNL     1      47.851   5.080  15.318  0.00  0.00    +0.000 NA
ATOM      8  H   UNL     1      50.325   6.002  16.890  0.00  0.00    +0.000 HD
ENDROOT
BRANCH   6   9
ATOM      9  C   UNL     1      46.429   4.200  13.550  0.00  0.00    +0.000 C 
ATOM     10  N   UNL     1      45.225   4.603  13.033  0.00  0.00    +0.000 N 
ATOM     11  O   UNL     1      46.754   3.019  13.580  0.00  0.00    +0.000 OA
ATOM     12  H   UNL     1      44.979   5.587  13.032  0.00  0.00    +0.000 HD
ATOM     13  H   UNL     1      44.577   3.913  12.680  0.00  0.00    +0.000 HD
ENDBRANCH   6   9
BRANCH   1  15
ATOM     14  C   UNL     1      48.549   5.152  19.214  0.00  0.00    +0.000 C 
ATOM     15  C   UNL     1      48.958   4.734  17.799  0.00  0.00    +0.000 C 
BRANCH  15  16
ATOM     16  C   UNL     1      50.121   3.751  17.828  0.00  0.00    +0.000 A 
ATOM     17  C   UNL     1      51.356   4.171  18.351  0.00  0.00    +0.000 A 
ATOM     18  C   UNL     1      52.469   3.331  18.323  0.00  0.00    +0.000 A 
ATOM     19  C   UNL     1      52.361   2.052  17.785  0.00  0.00    +0.000 A 
ATOM     20  C   UNL     1      51.135   1.608  17.289  0.00  0.00    +0.000 A 
ATOM     21  C   UNL     1      50.020   2.449  17.315  0.00  0.00    +0.000 A 
ENDBRANCH  15  16
ENDBRANCH   1  15
TORSDOF 3
ENDMDL
