MODEL 1
REMARK VINA RESULT:    -7.357      0.000      0.000
REMARK INTER + INTRA:         -11.474
REMARK INTER:                 -10.368
REMARK INTRA:                  -1.106
REMARK UNBOUND:                -1.106
REMARK  Name = 
REMARK  8 active torsions:
REMARK  status: ('A' for Active; 'I' for Inactive)
REMARK    1  A    between atoms: C_1  and  O_2
REMARK    2  A    between atoms: O_2  and  C_3
REMARK    3  A    between atoms: C_3  and  C_4
REMARK    4  A    between atoms: C_3  and  C_25
REMARK    5  A    between atoms: C_4  and  N_5
REMARK    6  A    between atoms: C_8  and  C_9
REMARK    7  A    between atoms: C_9  and  N_10
REMARK    8  A    between atoms: C_11  and  C_13
REMARK                            x       y       z     vdW  Elec       q    Type
REMARK                         _______ _______ _______ _____ _____    ______ ____
ROOT
ATOM      1  N   UNL     1      43.520   3.649  10.465  0.00  0.00    +0.000 NA
ATOM      2  C   UNL     1      44.313   2.940  11.502  0.00  0.00    +0.000 C 
ATOM      3  C   UNL     1      43.906   3.217  12.953  0.00  0.00    +0.000 C 
ATOM      4  C   UNL     1      43.865   4.717  13.256  0.00  0.00    +0.000 C 
ATOM      5  C   UNL     1      42.908   5.342  12.227  0.00  0.00    +0.000 C 
ATOM      6  C   UNL     1      43.345   5.076  10.775  0.00  0.00    +0.000 C 
ENDROOT
BRANCH   1   7
ATOM      7  C   UNL     1      44.204   3.442   9.142  0.00  0.00    +0.000 C 
BRANCH   7   8
ATOM      8  C   UNL     1      45.722   3.761   8.905  0.00  0.00    +0.000 C 
BRANCH   8   9
ATOM      9  C   UNL     1      46.229   2.903   7.727  0.00  0.00    +0.000 A 
ATOM     10  C   UNL     1      46.455   3.523   6.489  0.00  0.00    +0.000 A 
ATOM     11  C   UNL     1      47.074   2.823   5.462  0.00  0.00    +0.000 A 
ATOM     12  C   UNL     1      47.447   1.506   5.680  0.00  0.00    +0.000 A 
ATOM     13  C   UNL     1      47.158   0.942   6.915  0.00  0.00    +0.000 A 
ATOM     14  N   UNL     1      46.552   1.599   7.937  0.00  0.00    +0.000 NA
ENDBRANCH   8   9
BRANCH   8  16
ATOM     15  C   UNL     1      46.344   6.050   9.427  0.00  0.00    +0.000 C 
ATOM     16  O   UNL     1      45.991   5.098   8.452  0.00  0.00    +0.000 OA
ENDBRANCH   8  16
ENDBRANCH   7   8
ENDBRANCH   1   7
BRANCH   4  17
ATOM     17  C   UNL     1      45.252   5.405  13.221  0.00  0.00    +0.000 C 
BRANCH  17  18
ATOM     18  N   UNL     1      46.009   5.291  14.457  0.00  0.00    +0.000 N 
ATOM     19  C   UNL     1      46.967   4.320  14.638  0.00  0.00    +0.000 C 
ATOM     20  O   UNL     1      47.280   3.544  13.738  0.00  0.00    +0.000 OA
ATOM     21  H   UNL     1      45.645   5.769  15.277  0.00  0.00    +0.000 HD
BRANCH  19  22
ATOM     22  C   UNL     1      47.653   4.287  15.939  0.00  0.00    +0.000 A 
ATOM     23  C   UNL     1      47.508   3.170  16.750  0.00  0.00    +0.000 A 
ATOM     24  S   UNL     1      48.381   3.264  18.211  0.00  0.00    +0.000 S 
ATOM     25  C   UNL     1      48.930   4.831  17.847  0.00  0.00    +0.000 A 
ATOM     26  N   UNL     1      49.714   5.520  18.718  0.00  0.00    +0.000 NA
ATOM     27  C   UNL     1      50.011   6.711  18.344  0.00  0.00    +0.000 A 
ATOM     28  N   UNL     1      49.609   7.279  17.161  0.00  0.00    +0.000 N 
ATOM     29  C   UNL     1      48.883   6.595  16.211  0.00  0.00    +0.000 A 
ATOM     30  O   UNL     1      48.628   7.087  15.117  0.00  0.00    +0.000 OA
ATOM     31  C   UNL     1      48.484   5.263  16.607  0.00  0.00    +0.000 A 
ATOM     32  H   UNL     1      49.893   8.217  16.916  0.00  0.00    +0.000 HD
ENDBRANCH  19  22
ENDBRANCH  17  18
ENDBRANCH   4  17
TORSDOF 7
ENDMDL
MODEL 2
REMARK VINA RESULT:    -7.327      1.929      2.773
REMARK INTER + INTRA:         -11.431
REMARK INTER:                 -10.419
REMARK INTRA:                  -1.012
REMARK UNBOUND:                -1.106
REMARK  Name = 
REMARK  8 active torsions:
REMARK  status: ('A' for Active; 'I' for Inactive)
REMARK    1  A    between atoms: C_1  and  O_2
REMARK    2  A    between atoms: O_2  and  C_3
REMARK    3  A    between atoms: C_3  and  C_4
REMARK    4  A    between atoms: C_3  and  C_25
REMARK    5  A    between atoms: C_4  and  N_5
REMARK    6  A    between atoms: C_8  and  C_9
REMARK    7  A    between atoms: C_9  and  N_10
REMARK    8  A    between atoms: C_11  and  C_13
REMARK                            x       y       z     vdW  Elec       q    Type
REMARK                         _______ _______ _______ _____ _____    ______ ____
ROOT
ATOM      1  N   UNL     1      44.732   5.637  10.819  0.00  0.00    +0.000 NA
ATOM      2  C   UNL     1      45.121   5.346  12.224  0.00  0.00    +0.000 C 
ATOM      3  C   UNL     1      44.740   6.416  13.253  0.00  0.00    +0.000 C 
ATOM      4  C   UNL     1      45.242   7.804  12.843  0.00  0.00    +0.000 C 
ATOM      5  C   UNL     1      44.669   8.077  11.442  0.00  0.00    +0.000 C 
ATOM      6  C   UNL     1      45.083   7.006  10.416  0.00  0.00    +0.000 C 
ENDROOT
BRANCH   1   7
ATOM      7  C   UNL     1      45.386   4.608   9.940  0.00  0.00    +0.000 C 
BRANCH   7   8
ATOM      8  C   UNL     1      44.628   3.354   9.381  0.00  0.00    +0.000 C 
BRANCH   8   9
ATOM      9  C   UNL     1      45.531   2.651   8.345  0.00  0.00    +0.000 A 
ATOM     10  C   UNL     1      46.070   3.410   7.295  0.00  0.00    +0.000 A 
ATOM     11  C   UNL     1      47.022   2.852   6.452  0.00  0.00    +0.000 A 
ATOM     12  C   UNL     1      47.412   1.538   6.658  0.00  0.00    +0.000 A 
ATOM     13  C   UNL     1      46.810   0.833   7.690  0.00  0.00    +0.000 A 
ATOM     14  N   UNL     1      45.875   1.348   8.530  0.00  0.00    +0.000 NA
ENDBRANCH   8   9
BRANCH   8  16
ATOM     15  C   UNL     1      43.395   2.541  11.309  0.00  0.00    +0.000 C 
ATOM     16  O   UNL     1      44.395   2.314  10.344  0.00  0.00    +0.000 OA
ENDBRANCH   8  16
ENDBRANCH   7   8
ENDBRANCH   1   7
BRANCH   4  17
ATOM     17  C   UNL     1      46.784   7.944  12.856  0.00  0.00    +0.000 C 
BRANCH  17  18
ATOM     18  N   UNL     1      47.410   7.563  14.111  0.00  0.00    +0.000 N 
ATOM     19  C   UNL     1      48.286   6.504  14.197  0.00  0.00    +0.000 C 
ATOM     20  O   UNL     1      48.635   5.871  13.203  0.00  0.00    +0.000 OA
ATOM     21  H   UNL     1      46.999   7.920  14.970  0.00  0.00    +0.000 HD
BRANCH  19  22
ATOM     22  C   UNL     1      48.840   6.196  15.524  0.00  0.00    +0.000 A 
ATOM     23  C   UNL     1      49.893   6.960  16.009  0.00  0.00    +0.000 A 
ATOM     24  S   UNL     1      50.411   6.505  17.567  0.00  0.00    +0.000 S 
ATOM     25  C   UNL     1      49.296   5.223  17.625  0.00  0.00    +0.000 A 
ATOM     26  N   UNL     1      49.237   4.391  18.698  0.00  0.00    +0.000 NA
ATOM     27  C   UNL     1      48.389   3.434  18.588  0.00  0.00    +0.000 A 
ATOM     28  N   UNL     1      47.573   3.237  17.501  0.00  0.00    +0.000 N 
ATOM     29  C   UNL     1      47.538   4.098  16.426  0.00  0.00    +0.000 A 
ATOM     30  O   UNL     1      46.726   3.962  15.519  0.00  0.00    +0.000 OA
ATOM     31  C   UNL     1      48.510   5.167  16.484  0.00  0.00    +0.000 A 
ATOM     32  H   UNL     1      46.912   2.474  17.484  0.00  0.00    +0.000 HD
ENDBRANCH  19  22
ENDBRANCH  17  18
ENDBRANCH   4  17
TORSDOF 7
ENDMDL
MODEL 3
REMARK VINA RESULT:    -7.003      2.825      4.567
REMARK INTER + INTRA:         -10.975
REMARK INTER:                 -10.239
REMARK INTRA:                  -0.736
REMARK UNBOUND:                -1.106
REMARK  Name = 
REMARK  8 active torsions:
REMARK  status: ('A' for Active; 'I' for Inactive)
REMARK    1  A    between atoms: C_1  and  O_2
REMARK    2  A    between atoms: O_2  and  C_3
REMARK    3  A    between atoms: C_3  and  C_4
REMARK    4  A    between atoms: C_3  and  C_25
REMARK    5  A    between atoms: C_4  and  N_5
REMARK    6  A    between atoms: C_8  and  C_9
REMARK    7  A    between atoms: C_9  and  N_10
REMARK    8  A    between atoms: C_11  and  C_13
REMARK                            x       y       z     vdW  Elec       q    Type
REMARK                         _______ _______ _______ _____ _____    ______ ____
ROOT
ATOM      1  N   UNL     1      46.878   6.543  12.324  0.00  0.00    +0.000 NA
ATOM      2  C   UNL     1      46.409   7.625  13.228  0.00  0.00    +0.000 C 
ATOM      3  C   UNL     1      47.491   8.591  13.723  0.00  0.00    +0.000 C 
ATOM      4  C   UNL     1      48.670   7.849  14.357  0.00  0.00    +0.000 C 
ATOM      5  C   UNL     1      49.180   6.858  13.297  0.00  0.00    +0.000 C 
ATOM      6  C   UNL     1      48.087   5.878  12.830  0.00  0.00    +0.000 C 
ENDROOT
BRANCH   1   7
ATOM      7  C   UNL     1      45.742   5.576  12.138  0.00  0.00    +0.000 C 
BRANCH   7   8
ATOM      8  C   UNL     1      44.759   5.634  10.917  0.00  0.00    +0.000 C 
BRANCH   8   9
ATOM      9  C   UNL     1      45.212   4.599   9.867  0.00  0.00    +0.000 A 
ATOM     10  C   UNL     1      44.798   3.266  10.011  0.00  0.00    +0.000 A 
ATOM     11  C   UNL     1      45.038   2.349   8.997  0.00  0.00    +0.000 A 
ATOM     12  C   UNL     1      45.704   2.771   7.856  0.00  0.00    +0.000 A 
ATOM     13  C   UNL     1      46.121   4.093   7.796  0.00  0.00    +0.000 A 
ATOM     14  N   UNL     1      45.903   5.013   8.772  0.00  0.00    +0.000 NA
ENDBRANCH   8   9
BRANCH   8  16
ATOM     15  C   UNL     1      42.937   5.439  12.511  0.00  0.00    +0.000 C 
ATOM     16  O   UNL     1      43.416   5.213  11.207  0.00  0.00    +0.000 OA
ENDBRANCH   8  16
ENDBRANCH   7   8
ENDBRANCH   1   7
BRANCH   4  17
ATOM     17  C   UNL     1      48.320   7.125  15.680  0.00  0.00    +0.000 C 
BRANCH  17  18
ATOM     18  N   UNL     1      49.434   6.421  16.292  0.00  0.00    +0.000 N 
ATOM     19  C   UNL     1      49.266   5.225  16.953  0.00  0.00    +0.000 C 
ATOM     20  O   UNL     1      48.177   4.658  16.999  0.00  0.00    +0.000 OA
ATOM     21  H   UNL     1      50.292   6.944  16.450  0.00  0.00    +0.000 HD
BRANCH  19  22
ATOM     22  C   UNL     1      50.463   4.615  17.552  0.00  0.00    +0.000 A 
ATOM     23  C   UNL     1      51.346   5.417  18.262  0.00  0.00    +0.000 A 
ATOM     24  S   UNL     1      52.669   4.567  18.919  0.00  0.00    +0.000 S 
ATOM     25  C   UNL     1      52.150   3.106  18.221  0.00  0.00    +0.000 A 
ATOM     26  N   UNL     1      52.868   1.963  18.371  0.00  0.00    +0.000 NA
ATOM     27  C   UNL     1      52.393   0.946  17.748  0.00  0.00    +0.000 A 
ATOM     28  N   UNL     1      51.245   0.961  16.994  0.00  0.00    +0.000 N 
ATOM     29  C   UNL     1      50.440   2.073  16.879  0.00  0.00    +0.000 A 
ATOM     30  O   UNL     1      49.366   2.032  16.290  0.00  0.00    +0.000 OA
ATOM     31  C   UNL     1      50.959   3.258  17.527  0.00  0.00    +0.000 A 
ATOM     32  H   UNL     1      50.913   0.121  16.543  0.00  0.00    +0.000 HD
ENDBRANCH  19  22
ENDBRANCH  17  18
ENDBRANCH   4  17
TORSDOF 7
ENDMDL
MODEL 4
REMARK VINA RESULT:    -6.988      2.699      8.557
REMARK INTER + INTRA:         -10.954
REMARK INTER:                  -9.810
REMARK INTRA:                  -1.144
REMARK UNBOUND:                -1.106
REMARK  Name = 
REMARK  8 active torsions:
REMARK  status: ('A' for Active; 'I' for Inactive)
REMARK    1  A    between atoms: C_1  and  O_2
REMARK    2  A    between atoms: O_2  and  C_3
REMARK    3  A    between atoms: C_3  and  C_4
REMARK    4  A    between atoms: C_3  and  C_25
REMARK    5  A    between atoms: C_4  and  N_5
REMARK    6  A    between atoms: C_8  and  C_9
REMARK    7  A    between atoms: C_9  and  N_10
REMARK    8  A    between atoms: C_11  and  C_13
REMARK                            x       y       z     vdW  Elec       q    Type
REMARK                         _______ _______ _______ _____ _____    ______ ____
ROOT
ATOM      1  N   UNL     1      49.601   7.850  14.179  0.00  0.00    +0.000 NA
ATOM      2  C   UNL     1      48.971   6.951  13.177  0.00  0.00    +0.000 C 
ATOM      3  C   UNL     1      48.338   7.646  11.966  0.00  0.00    +0.000 C 
ATOM      4  C   UNL     1      47.352   8.738  12.389  0.00  0.00    +0.000 C 
ATOM      5  C   UNL     1      48.132   9.699  13.302  0.00  0.00    +0.000 C 
ATOM      6  C   UNL     1      48.739   8.989  14.526  0.00  0.00    +0.000 C 
ENDROOT
BRANCH   1   7
ATOM      7  C   UNL     1      49.949   7.021  15.384  0.00  0.00    +0.000 C 
BRANCH   7   8
ATOM      8  C   UNL     1      49.044   6.950  16.663  0.00  0.00    +0.000 C 
BRANCH   8   9
ATOM      9  C   UNL     1      48.665   5.476  16.920  0.00  0.00    +0.000 A 
ATOM     10  C   UNL     1      48.747   4.977  18.229  0.00  0.00    +0.000 A 
ATOM     11  C   UNL     1      48.249   3.715  18.524  0.00  0.00    +0.000 A 
ATOM     12  C   UNL     1      47.690   2.960  17.505  0.00  0.00    +0.000 A 
ATOM     13  C   UNL     1      47.677   3.498  16.226  0.00  0.00    +0.000 A 
ATOM     14  N   UNL     1      48.158   4.728  15.904  0.00  0.00    +0.000 NA
ENDBRANCH   8   9
BRANCH   8  16
ATOM     15  C   UNL     1      49.390   8.576  18.434  0.00  0.00    +0.000 C 
ATOM     16  O   UNL     1      49.703   7.317  17.886  0.00  0.00    +0.000 OA
ENDBRANCH   8  16
ENDBRANCH   7   8
ENDBRANCH   1   7
BRANCH   4  17
ATOM     17  C   UNL     1      46.082   8.201  13.093  0.00  0.00    +0.000 C 
BRANCH  17  18
ATOM     18  N   UNL     1      45.703   6.854  12.700  0.00  0.00    +0.000 N 
ATOM     19  C   UNL     1      44.789   6.619  11.697  0.00  0.00    +0.000 C 
ATOM     20  O   UNL     1      44.301   7.534  11.037  0.00  0.00    +0.000 OA
ATOM     21  H   UNL     1      45.921   6.096  13.341  0.00  0.00    +0.000 HD
BRANCH  19  22
ATOM     22  C   UNL     1      44.465   5.215  11.399  0.00  0.00    +0.000 A 
ATOM     23  C   UNL     1      43.724   4.484  12.318  0.00  0.00    +0.000 A 
ATOM     24  S   UNL     1      43.404   2.885  11.826  0.00  0.00    +0.000 S 
ATOM     25  C   UNL     1      44.304   3.085  10.397  0.00  0.00    +0.000 A 
ATOM     26  N   UNL     1      44.463   2.060   9.519  0.00  0.00    +0.000 NA
ATOM     27  C   UNL     1      45.209   2.331   8.510  0.00  0.00    +0.000 A 
ATOM     28  N   UNL     1      45.804   3.548   8.285  0.00  0.00    +0.000 N 
ATOM     29  C   UNL     1      45.607   4.639   9.102  0.00  0.00    +0.000 A 
ATOM     30  O   UNL     1      46.061   5.743   8.823  0.00  0.00    +0.000 OA
ATOM     31  C   UNL     1      44.810   4.370  10.279  0.00  0.00    +0.000 A 
ATOM     32  H   UNL     1      46.366   3.702   7.461  0.00  0.00    +0.000 HD
ENDBRANCH  19  22
ENDBRANCH  17  18
ENDBRANCH   4  17
TORSDOF 7
ENDMDL
MODEL 5
REMARK VINA RESULT:    -6.951      2.868      4.518
REMARK INTER + INTRA:         -10.901
REMARK INTER:                  -9.937
REMARK INTRA:                  -0.964
REMARK UNBOUND:                -1.106
REMARK  Name = 
REMARK  8 active torsions:
REMARK  status: ('A' for Active; 'I' for Inactive)
REMARK    1  A    between atoms: C_1  and  O_2
REMARK    2  A    between atoms: O_2  and  C_3
REMARK    3  A    between atoms: C_3  and  C_4
REMARK    4  A    between atoms: C_3  and  C_25
REMARK    5  A    between atoms: C_4  and  N_5
REMARK    6  A    between atoms: C_8  and  C_9
REMARK    7  A    between atoms: C_9  and  N_10
REMARK    8  A    between atoms: C_11  and  C_13
REMARK                            x       y       z     vdW  Elec       q    Type
REMARK                         _______ _______ _______ _____ _____    ______ ____
ROOT
ATOM      1  N   UNL     1      46.622   5.691  12.278  0.00  0.00    +0.000 NA
ATOM      2  C   UNL     1      46.969   6.911  11.503  0.00  0.00    +0.000 C 
ATOM      3  C   UNL     1      48.341   7.522  11.806  0.00  0.00    +0.000 C 
ATOM      4  C   UNL     1      48.532   7.778  13.303  0.00  0.00    +0.000 C 
ATOM      5  C   UNL     1      48.297   6.431  14.008  0.00  0.00    +0.000 C 
ATOM      6  C   UNL     1      46.905   5.844  13.713  0.00  0.00    +0.000 C 
ENDROOT
BRANCH   1   7
ATOM      7  C   UNL     1      45.174   5.381  12.022  0.00  0.00    +0.000 C 
BRANCH   7   8
ATOM      8  C   UNL     1      44.509   5.509  10.606  0.00  0.00    +0.000 C 
BRANCH   8   9
ATOM      9  C   UNL     1      45.104   4.426   9.681  0.00  0.00    +0.000 A 
ATOM     10  C   UNL     1      44.832   3.078   9.960  0.00  0.00    +0.000 A 
ATOM     11  C   UNL     1      45.201   2.092   9.054  0.00  0.00    +0.000 A 
ATOM     12  C   UNL     1      45.852   2.464   7.888  0.00  0.00    +0.000 A 
ATOM     13  C   UNL     1      46.125   3.810   7.694  0.00  0.00    +0.000 A 
ATOM     14  N   UNL     1      45.779   4.798   8.561  0.00  0.00    +0.000 NA
ENDBRANCH   8   9
BRANCH   8  16
ATOM     15  C   UNL     1      42.365   5.452  11.745  0.00  0.00    +0.000 C 
ATOM     16  O   UNL     1      43.105   5.207  10.573  0.00  0.00    +0.000 OA
ENDBRANCH   8  16
ENDBRANCH   7   8
ENDBRANCH   1   7
BRANCH   4  17
ATOM     17  C   UNL     1      47.605   8.879  13.876  0.00  0.00    +0.000 C 
BRANCH  17  18
ATOM     18  N   UNL     1      47.425   8.822  15.317  0.00  0.00    +0.000 N 
ATOM     19  C   UNL     1      48.242   9.513  16.182  0.00  0.00    +0.000 C 
ATOM     20  O   UNL     1      49.122  10.269  15.776  0.00  0.00    +0.000 OA
ATOM     21  H   UNL     1      46.856   8.066  15.690  0.00  0.00    +0.000 HD
BRANCH  19  22
ATOM     22  C   UNL     1      47.979   9.361  17.621  0.00  0.00    +0.000 A 
ATOM     23  C   UNL     1      47.650  10.483  18.369  0.00  0.00    +0.000 A 
ATOM     24  S   UNL     1      47.347  10.149  20.012  0.00  0.00    +0.000 S 
ATOM     25  C   UNL     1      47.714   8.502  19.802  0.00  0.00    +0.000 A 
ATOM     26  N   UNL     1      47.682   7.637  20.850  0.00  0.00    +0.000 NA
ATOM     27  C   UNL     1      48.033   6.436  20.564  0.00  0.00    +0.000 A 
ATOM     28  N   UNL     1      48.400   6.009  19.311  0.00  0.00    +0.000 N 
ATOM     29  C   UNL     1      48.371   6.827  18.204  0.00  0.00    +0.000 A 
ATOM     30  O   UNL     1      48.599   6.397  17.079  0.00  0.00    +0.000 OA
ATOM     31  C   UNL     1      48.026   8.204  18.485  0.00  0.00    +0.000 A 
ATOM     32  H   UNL     1      48.648   5.044  19.148  0.00  0.00    +0.000 HD
ENDBRANCH  19  22
ENDBRANCH  17  18
ENDBRANCH   4  17
TORSDOF 7
ENDMDL
MODEL 6
REMARK VINA RESULT:    -6.805      2.461      4.117
REMARK INTER + INTRA:         -10.696
REMARK INTER:                  -9.778
REMARK INTRA:                  -0.919
REMARK UNBOUND:                -1.106
REMARK  Name = 
REMARK  8 active torsions:
REMARK  status: ('A' for Active; 'I' for Inactive)
REMARK    1  A    between atoms: C_1  and  O_2
REMARK    2  A    between atoms: O_2  and  C_3
REMARK    3  A    between atoms: C_3  and  C_4
REMARK    4  A    between atoms: C_3  and  C_25
REMARK    5  A    between atoms: C_4  and  N_5
REMARK    6  A    between atoms: C_8  and  C_9
REMARK    7  A    between atoms: C_9  and  N_10
REMARK    8  A    between atoms: C_11  and  C_13
REMARK                            x       y       z     vdW  Elec       q    Type
REMARK                         _______ _______ _______ _____ _____    ______ ____
ROOT
ATOM      1  N   UNL     1      46.483   6.697  11.721  0.00  0.00    +0.000 NA
ATOM      2  C   UNL     1      45.756   7.879  12.254  0.00  0.00    +0.000 C 
ATOM      3  C   UNL     1      46.589   9.156  12.408  0.00  0.00    +0.000 C 
ATOM      4  C   UNL     1      47.862   8.910  13.223  0.00  0.00    +0.000 C 
ATOM      5  C   UNL     1      48.618   7.773  12.513  0.00  0.00    +0.000 C 
ATOM      6  C   UNL     1      47.776   6.490  12.389  0.00  0.00    +0.000 C 
ENDROOT
BRANCH   1   7
ATOM      7  C   UNL     1      45.582   5.503  11.861  0.00  0.00    +0.000 C 
BRANCH   7   8
ATOM      8  C   UNL     1      44.359   5.237  10.914  0.00  0.00    +0.000 C 
BRANCH   8   9
ATOM      9  C   UNL     1      44.786   4.229   9.826  0.00  0.00    +0.000 A 
ATOM     10  C   UNL     1      45.574   4.684   8.758  0.00  0.00    +0.000 A 
ATOM     11  C   UNL     1      46.120   3.775   7.860  0.00  0.00    +0.000 A 
ATOM     12  C   UNL     1      45.860   2.425   8.033  0.00  0.00    +0.000 A 
ATOM     13  C   UNL     1      45.041   2.048   9.087  0.00  0.00    +0.000 A 
ATOM     14  N   UNL     1      44.489   2.911   9.980  0.00  0.00    +0.000 NA
ENDBRANCH   8   9
BRANCH   8  16
ATOM     15  C   UNL     1      42.993   4.870  12.888  0.00  0.00    +0.000 C 
ATOM     16  O   UNL     1      43.251   4.568  11.537  0.00  0.00    +0.000 OA
ENDBRANCH   8  16
ENDBRANCH   7   8
ENDBRANCH   1   7
BRANCH   4  17
ATOM     17  C   UNL     1      47.601   8.567  14.710  0.00  0.00    +0.000 C 
BRANCH  17  18
ATOM     18  N   UNL     1      48.421   7.485  15.229  0.00  0.00    +0.000 N 
ATOM     19  C   UNL     1      48.888   7.482  16.524  0.00  0.00    +0.000 C 
ATOM     20  O   UNL     1      48.577   8.358  17.327  0.00  0.00    +0.000 OA
ATOM     21  H   UNL     1      48.861   6.863  14.556  0.00  0.00    +0.000 HD
BRANCH  19  22
ATOM     22  C   UNL     1      49.728   6.346  16.932  0.00  0.00    +0.000 A 
ATOM     23  C   UNL     1      51.042   6.581  17.314  0.00  0.00    +0.000 A 
ATOM     24  S   UNL     1      51.882   5.175  17.785  0.00  0.00    +0.000 S 
ATOM     25  C   UNL     1      50.545   4.188  17.430  0.00  0.00    +0.000 A 
ATOM     26  N   UNL     1      50.608   2.839  17.582  0.00  0.00    +0.000 NA
ATOM     27  C   UNL     1      49.547   2.210  17.227  0.00  0.00    +0.000 A 
ATOM     28  N   UNL     1      48.410   2.810  16.744  0.00  0.00    +0.000 N 
ATOM     29  C   UNL     1      48.269   4.177  16.648  0.00  0.00    +0.000 A 
ATOM     30  O   UNL     1      47.207   4.693  16.316  0.00  0.00    +0.000 OA
ATOM     31  C   UNL     1      49.456   4.927  16.993  0.00  0.00    +0.000 A 
ATOM     32  H   UNL     1      47.600   2.259  16.499  0.00  0.00    +0.000 HD
ENDBRANCH  19  22
ENDBRANCH  17  18
ENDBRANCH   4  17
TORSDOF 7
ENDMDL
MODEL 7
REMARK VINA RESULT:    -6.713      2.469      3.832
REMARK INTER + INTRA:         -10.566
REMARK INTER:                  -9.309
REMARK INTRA:                  -1.258
REMARK UNBOUND:                -1.106
REMARK  Name = 
REMARK  8 active torsions:
REMARK  status: ('A' for Active; 'I' for Inactive)
REMARK    1  A    between atoms: C_1  and  O_2
REMARK    2  A    between atoms: O_2  and  C_3
REMARK    3  A    between atoms: C_3  and  C_4
REMARK    4  A    between atoms: C_3  and  C_25
REMARK    5  A    between atoms: C_4  and  N_5
REMARK    6  A    between atoms: C_8  and  C_9
REMARK    7  A    between atoms: C_9  and  N_10
REMARK    8  A    between atoms: C_11  and  C_13
REMARK                            x       y       z     vdW  Elec       q    Type
REMARK                         _______ _______ _______ _____ _____    ______ ____
ROOT
ATOM      1  N   UNL     1      46.310   7.018  11.807  0.00  0.00    +0.000 NA
ATOM      2  C   UNL     1      46.245   7.310  13.263  0.00  0.00    +0.000 C 
ATOM      3  C   UNL     1      47.107   8.482  13.743  0.00  0.00    +0.000 C 
ATOM      4  C   UNL     1      48.565   8.335  13.300  0.00  0.00    +0.000 C 
ATOM      5  C   UNL     1      48.541   8.187  11.770  0.00  0.00    +0.000 C 
ATOM      6  C   UNL     1      47.691   6.989  11.305  0.00  0.00    +0.000 C 
ENDROOT
BRANCH   1   7
ATOM      7  C   UNL     1      45.599   5.716  11.568  0.00  0.00    +0.000 C 
BRANCH   7   8
ATOM      8  C   UNL     1      44.657   5.467  10.338  0.00  0.00    +0.000 C 
BRANCH   8   9
ATOM      9  C   UNL     1      45.307   4.407   9.423  0.00  0.00    +0.000 A 
ATOM     10  C   UNL     1      45.046   3.051   9.673  0.00  0.00    +0.000 A 
ATOM     11  C   UNL     1      45.469   2.084   8.770  0.00  0.00    +0.000 A 
ATOM     12  C   UNL     1      46.159   2.483   7.636  0.00  0.00    +0.000 A 
ATOM     13  C   UNL     1      46.417   3.836   7.471  0.00  0.00    +0.000 A 
ATOM     14  N   UNL     1      46.020   4.806   8.336  0.00  0.00    +0.000 NA
ENDBRANCH   8   9
BRANCH   8  16
ATOM     15  C   UNL     1      42.744   5.315  11.825  0.00  0.00    +0.000 C 
ATOM     16  O   UNL     1      43.394   4.865  10.660  0.00  0.00    +0.000 OA
ENDBRANCH   8  16
ENDBRANCH   7   8
ENDBRANCH   1   7
BRANCH   4  17
ATOM     17  C   UNL     1      49.309   7.152  13.967  0.00  0.00    +0.000 C 
BRANCH  17  18
ATOM     18  N   UNL     1      49.239   7.142  15.419  0.00  0.00    +0.000 N 
ATOM     19  C   UNL     1      48.613   6.130  16.111  0.00  0.00    +0.000 C 
ATOM     20  O   UNL     1      48.143   5.149  15.539  0.00  0.00    +0.000 OA
ATOM     21  H   UNL     1      49.429   8.014  15.906  0.00  0.00    +0.000 HD
BRANCH  19  22
ATOM     22  C   UNL     1      48.584   6.237  17.578  0.00  0.00    +0.000 A 
ATOM     23  C   UNL     1      48.843   5.107  18.342  0.00  0.00    +0.000 A 
ATOM     24  S   UNL     1      48.801   5.390  20.022  0.00  0.00    +0.000 S 
ATOM     25  C   UNL     1      48.366   7.017  19.794  0.00  0.00    +0.000 A 
ATOM     26  N   UNL     1      48.136   7.837  20.853  0.00  0.00    +0.000 NA
ATOM     27  C   UNL     1      47.762   9.024  20.540  0.00  0.00    +0.000 A 
ATOM     28  N   UNL     1      47.612   9.480  19.253  0.00  0.00    +0.000 N 
ATOM     29  C   UNL     1      47.911   8.714  18.148  0.00  0.00    +0.000 A 
ATOM     30  O   UNL     1      47.872   9.176  17.014  0.00  0.00    +0.000 OA
ATOM     31  C   UNL     1      48.292   7.351  18.450  0.00  0.00    +0.000 A 
ATOM     32  H   UNL     1      47.333  10.433  19.073  0.00  0.00    +0.000 HD
ENDBRANCH  19  22
ENDBRANCH  17  18
ENDBRANCH   4  17
TORSDOF 7
ENDMDL
MODEL 8
REMARK VINA RESULT:    -6.332      2.518      4.179
REMARK INTER + INTRA:         -10.029
REMARK INTER:                  -8.973
REMARK INTRA:                  -1.057
REMARK UNBOUND:                -1.106
REMARK  Name = 
REMARK  8 active torsions:
REMARK  status: ('A' for Active; 'I' for Inactive)
REMARK    1  A    between atoms: C_1  and  O_2
REMARK    2  A    between atoms: O_2  and  C_3
REMARK    3  A    between atoms: C_3  and  C_4
REMARK    4  A    between atoms: C_3  and  C_25
REMARK    5  A    between atoms: C_4  and  N_5
REMARK    6  A    between atoms: C_8  and  C_9
REMARK    7  A    between atoms: C_9  and  N_10
REMARK    8  A    between atoms: C_11  and  C_13
REMARK                            x       y       z     vdW  Elec       q    Type
REMARK                         _______ _______ _______ _____ _____    ______ ____
ROOT
ATOM      1  N   UNL     1      46.435   6.924  11.716  0.00  0.00    +0.000 NA
ATOM      2  C   UNL     1      46.102   7.159  13.145  0.00  0.00    +0.000 C 
ATOM      3  C   UNL     1      46.664   8.448  13.754  0.00  0.00    +0.000 C 
ATOM      4  C   UNL     1      48.175   8.568  13.539  0.00  0.00    +0.000 C 
ATOM      5  C   UNL     1      48.407   8.461  12.022  0.00  0.00    +0.000 C 
ATOM      6  C   UNL     1      47.860   7.148  11.431  0.00  0.00    +0.000 C 
ENDROOT
BRANCH   1   7
ATOM      7  C   UNL     1      46.007   5.526  11.369  0.00  0.00    +0.000 C 
BRANCH   7   8
ATOM      8  C   UNL     1      44.720   5.207  10.531  0.00  0.00    +0.000 C 
BRANCH   8   9
ATOM      9  C   UNL     1      45.061   4.115   9.495  0.00  0.00    +0.000 A 
ATOM     10  C   UNL     1      45.708   4.490   8.308  0.00  0.00    +0.000 A 
ATOM     11  C   UNL     1      46.185   3.518   7.439  0.00  0.00    +0.000 A 
ATOM     12  C   UNL     1      45.996   2.182   7.759  0.00  0.00    +0.000 A 
ATOM     13  C   UNL     1      45.313   1.882   8.929  0.00  0.00    +0.000 A 
ATOM     14  N   UNL     1      44.832   2.809   9.798  0.00  0.00    +0.000 NA
ENDBRANCH   8   9
BRANCH   8  16
ATOM     15  C   UNL     1      42.552   5.419  11.604  0.00  0.00    +0.000 C 
ATOM     16  O   UNL     1      43.651   4.603  11.276  0.00  0.00    +0.000 OA
ENDBRANCH   8  16
ENDBRANCH   7   8
ENDBRANCH   1   7
BRANCH   4  17
ATOM     17  C   UNL     1      49.006   7.512  14.310  0.00  0.00    +0.000 C 
BRANCH  17  18
ATOM     18  N   UNL     1      48.604   7.328  15.694  0.00  0.00    +0.000 N 
ATOM     19  C   UNL     1      49.184   8.039  16.721  0.00  0.00    +0.000 C 
ATOM     20  O   UNL     1      50.020   8.914  16.512  0.00  0.00    +0.000 OA
ATOM     21  H   UNL     1      48.077   6.490  15.924  0.00  0.00    +0.000 HD
BRANCH  19  22
ATOM     22  C   UNL     1      48.713   7.753  18.085  0.00  0.00    +0.000 A 
ATOM     23  C   UNL     1      48.121   8.769  18.822  0.00  0.00    +0.000 A 
ATOM     24  S   UNL     1      47.603   8.282  20.371  0.00  0.00    +0.000 S 
ATOM     25  C   UNL     1      48.215   6.713  20.144  0.00  0.00    +0.000 A 
ATOM     26  N   UNL     1      48.128   5.777  21.126  0.00  0.00    +0.000 NA
ATOM     27  C   UNL     1      48.677   4.652  20.843  0.00  0.00    +0.000 A 
ATOM     28  N   UNL     1      49.296   4.365  19.651  0.00  0.00    +0.000 N 
ATOM     29  C   UNL     1      49.338   5.250  18.597  0.00  0.00    +0.000 A 
ATOM     30  O   UNL     1      49.801   4.933  17.508  0.00  0.00    +0.000 OA
ATOM     31  C   UNL     1      48.773   6.550  18.885  0.00  0.00    +0.000 A 
ATOM     32  H   UNL     1      49.693   3.451  19.484  0.00  0.00    +0.000 HD
ENDBRANCH  19  22
ENDBRANCH  17  18
ENDBRANCH   4  17
TORSDOF 7
ENDMDL
MODEL 9
REMARK VINA RESULT:    -6.279      4.648      5.868
REMARK INTER + INTRA:          -9.955
REMARK INTER:                  -8.765
REMARK INTRA:                  -1.190
REMARK UNBOUND:                -1.106
REMARK  Name = 
REMARK  8 active torsions:
REMARK  status: ('A' for Active; 'I' for Inactive)
REMARK    1  A    between atoms: C_1  and  O_2
REMARK    2  A    between atoms: O_2  and  C_3
REMARK    3  A    between atoms: C_3  and  C_4
REMARK    4  A    between atoms: C_3  and  C_25
REMARK    5  A    between atoms: C_4  and  N_5
REMARK    6  A    between atoms: C_8  and  C_9
REMARK    7  A    between atoms: C_9  and  N_10
REMARK    8  A    between atoms: C_11  and  C_13
REMARK                            x       y       z     vdW  Elec       q    Type
REMARK                         _______ _______ _______ _____ _____    ______ ____
ROOT
ATOM      1  N   UNL     1      45.858   6.114  13.088  0.00  0.00    +0.000 NA
ATOM      2  C   UNL     1      47.330   6.031  13.273  0.00  0.00    +0.000 C 
ATOM      3  C   UNL     1      47.983   7.243  13.945  0.00  0.00    +0.000 C 
ATOM      4  C   UNL     1      47.613   8.552  13.242  0.00  0.00    +0.000 C 
ATOM      5  C   UNL     1      46.077   8.619  13.230  0.00  0.00    +0.000 C 
ATOM      6  C   UNL     1      45.438   7.406  12.528  0.00  0.00    +0.000 C 
ENDROOT
BRANCH   1   7
ATOM      7  C   UNL     1      45.439   4.962  12.218  0.00  0.00    +0.000 C 
BRANCH   7   8
ATOM      8  C   UNL     1      44.565   5.139  10.927  0.00  0.00    +0.000 C 
BRANCH   8   9
ATOM      9  C   UNL     1      45.141   4.241   9.812  0.00  0.00    +0.000 A 
ATOM     10  C   UNL     1      44.928   2.856   9.884  0.00  0.00    +0.000 A 
ATOM     11  C   UNL     1      45.278   2.041   8.815  0.00  0.00    +0.000 A 
ATOM     12  C   UNL     1      45.851   2.619   7.693  0.00  0.00    +0.000 A 
ATOM     13  C   UNL     1      46.070   3.989   7.704  0.00  0.00    +0.000 A 
ATOM     14  N   UNL     1      45.742   4.812   8.734  0.00  0.00    +0.000 NA
ENDBRANCH   8   9
BRANCH   8  16
ATOM     15  C   UNL     1      42.294   5.485  11.714  0.00  0.00    +0.000 C 
ATOM     16  O   UNL     1      43.216   4.659  11.044  0.00  0.00    +0.000 OA
ENDBRANCH   8  16
ENDBRANCH   7   8
ENDBRANCH   1   7
BRANCH   4  17
ATOM     17  C   UNL     1      48.192   8.683  11.812  0.00  0.00    +0.000 C 
BRANCH  17  18
ATOM     18  N   UNL     1      49.623   8.443  11.720  0.00  0.00    +0.000 N 
ATOM     19  C   UNL     1      50.505   9.434  11.353  0.00  0.00    +0.000 C 
ATOM     20  O   UNL     1      50.136  10.588  11.153  0.00  0.00    +0.000 OA
ATOM     21  H   UNL     1      49.937   7.477  11.677  0.00  0.00    +0.000 HD
BRANCH  19  22
ATOM     22  C   UNL     1      51.928   9.070  11.272  0.00  0.00    +0.000 A 
ATOM     23  C   UNL     1      52.597   9.225  10.065  0.00  0.00    +0.000 A 
ATOM     24  S   UNL     1      54.242   8.788  10.130  0.00  0.00    +0.000 S 
ATOM     25  C   UNL     1      54.109   8.308  11.755  0.00  0.00    +0.000 A 
ATOM     26  N   UNL     1      55.173   7.792  12.425  0.00  0.00    +0.000 NA
ATOM     27  C   UNL     1      54.920   7.421  13.627  0.00  0.00    +0.000 A 
ATOM     28  N   UNL     1      53.695   7.532  14.236  0.00  0.00    +0.000 N 
ATOM     29  C   UNL     1      52.609   8.122  13.628  0.00  0.00    +0.000 A 
ATOM     30  O   UNL     1      51.557   8.308  14.229  0.00  0.00    +0.000 OA
ATOM     31  C   UNL     1      52.832   8.515  12.254  0.00  0.00    +0.000 A 
ATOM     32  H   UNL     1      53.566   7.238  15.193  0.00  0.00    +0.000 HD
ENDBRANCH  19  22
ENDBRANCH  17  18
ENDBRANCH   4  17
TORSDOF 7
ENDMDL
