MODEL 1
REMARK VINA RESULT:    -8.270      0.000      0.000
REMARK INTER + INTRA:         -11.305
REMARK INTER:                 -10.687
REMARK INTRA:                  -0.618
REMARK UNBOUND:                -0.618
REMARK  Name = 
REMARK  7 active torsions:
REMARK  status: ('A' for Active; 'I' for Inactive)
REMARK    1  A    between atoms: C_1  and  C_2
REMARK    2  A    between atoms: C_2  and  N_3
REMARK    3  A    between atoms: C_2  and  C_17
REMARK    4  A    between atoms: C_4  and  C_6
REMARK    5  A    between atoms: N_12  and  C_13
REMARK    6  A    between atoms: C_20  and  C_21
REMARK    7  A    between atoms: C_21  and  C_22
REMARK                            x       y       z     vdW  Elec       q    Type
REMARK                         _______ _______ _______ _____ _____    ______ ____
ROOT
ATOM      1  C   UNL     1      46.146   7.965  13.267  0.00  0.00    +0.000 C 
ATOM      2  C   UNL     1      46.833   6.608  13.079  0.00  0.00    +0.000 C 
ENDROOT
BRANCH   2   3
ATOM      3  C   UNL     1      46.074   5.796  12.035  0.00  0.00    +0.000 A 
ATOM      4  C   UNL     1      46.057   6.156  10.689  0.00  0.00    +0.000 A 
ATOM      5  N   UNL     1      45.531   5.372   9.709  0.00  0.00    +0.000 NA
ATOM      6  C   UNL     1      45.008   4.185  10.115  0.00  0.00    +0.000 A 
ATOM      7  C   UNL     1      44.989   3.840  11.461  0.00  0.00    +0.000 A 
ATOM      8  N   UNL     1      45.506   4.629  12.437  0.00  0.00    +0.000 NA
BRANCH   6   9
ATOM      9  C   UNL     1      44.486   3.234   9.068  0.00  0.00    +0.000 C 
BRANCH   9  10
ATOM     10  C   UNL     1      45.550   2.661   8.159  0.00  0.00    +0.000 A 
ATOM     11  C   UNL     1      45.978   3.361   7.029  0.00  0.00    +0.000 A 
ATOM     12  C   UNL     1      46.913   2.774   6.181  0.00  0.00    +0.000 A 
ATOM     13  C   UNL     1      47.395   1.504   6.471  0.00  0.00    +0.000 A 
ATOM     14  C   UNL     1      46.924   0.876   7.611  0.00  0.00    +0.000 A 
ATOM     15  N   UNL     1      46.021   1.422   8.458  0.00  0.00    +0.000 NA
ENDBRANCH   9  10
ENDBRANCH   6   9
ENDBRANCH   2   3
BRANCH   2  16
ATOM     16  N   UNL     1      46.994   5.900  14.342  0.00  0.00    +0.000 N 
ATOM     17  C   UNL     1      48.171   5.871  15.047  0.00  0.00    +0.000 C 
ATOM     18  O   UNL     1      49.205   6.385  14.630  0.00  0.00    +0.000 OA
ATOM     19  H   UNL     1      46.162   5.499  14.761  0.00  0.00    +0.000 HD
BRANCH  17  20
ATOM     20  C   UNL     1      48.139   5.170  16.340  0.00  0.00    +0.000 A 
ATOM     21  C   UNL     1      47.808   3.823  16.396  0.00  0.00    +0.000 A 
ATOM     22  S   UNL     1      47.849   3.180  17.976  0.00  0.00    +0.000 S 
ATOM     23  C   UNL     1      48.349   4.669  18.631  0.00  0.00    +0.000 A 
ATOM     24  N   UNL     1      48.608   4.799  19.956  0.00  0.00    +0.000 NA
ATOM     25  C   UNL     1      49.009   5.977  20.312  0.00  0.00    +0.000 A 
ATOM     26  N   UNL     1      49.166   7.058  19.470  0.00  0.00    +0.000 N 
ATOM     27  C   UNL     1      49.582   8.345  19.976  0.00  0.00    +0.000 C 
ATOM     28  C   UNL     1      48.866   6.969  18.113  0.00  0.00    +0.000 A 
ATOM     29  O   UNL     1      48.921   7.937  17.361  0.00  0.00    +0.000 OA
ATOM     30  C   UNL     1      48.450   5.653  17.666  0.00  0.00    +0.000 A 
ENDBRANCH  17  20
ENDBRANCH   2  16
TORSDOF 5
ENDMDL
MODEL 2
REMARK VINA RESULT:    -8.220      3.197      4.093
REMARK INTER + INTRA:         -11.241
REMARK INTER:                 -10.244
REMARK INTRA:                  -0.997
REMARK UNBOUND:                -0.618
REMARK  Name = 
REMARK  7 active torsions:
REMARK  status: ('A' for Active; 'I' for Inactive)
REMARK    1  A    between atoms: C_1  and  C_2
REMARK    2  A    between atoms: C_2  and  N_3
REMARK    3  A    between atoms: C_2  and  C_17
REMARK    4  A    between atoms: C_4  and  C_6
REMARK    5  A    between atoms: N_12  and  C_13
REMARK    6  A    between atoms: C_20  and  C_21
REMARK    7  A    between atoms: C_21  and  C_22
REMARK                            x       y       z     vdW  Elec       q    Type
REMARK                         _______ _______ _______ _____ _____    ______ ____
ROOT
ATOM      1  C   UNL     1      46.994   4.392  14.983  0.00  0.00    +0.000 C 
ATOM      2  C   UNL     1      46.650   5.470  13.949  0.00  0.00    +0.000 C 
ENDROOT
BRANCH   2   3
ATOM      3  C   UNL     1      45.908   4.831  12.779  0.00  0.00    +0.000 A 
ATOM      4  C   UNL     1      45.662   5.524  11.595  0.00  0.00    +0.000 A 
ATOM      5  N   UNL     1      45.152   4.940  10.477  0.00  0.00    +0.000 NA
ATOM      6  C   UNL     1      44.886   3.610  10.571  0.00  0.00    +0.000 A 
ATOM      7  C   UNL     1      45.095   2.926  11.761  0.00  0.00    +0.000 A 
ATOM      8  N   UNL     1      45.596   3.513  12.878  0.00  0.00    +0.000 NA
BRANCH   6   9
ATOM      9  C   UNL     1      44.399   2.887   9.340  0.00  0.00    +0.000 C 
BRANCH   9  10
ATOM     10  C   UNL     1      45.488   2.521   8.358  0.00  0.00    +0.000 A 
ATOM     11  C   UNL     1      45.881   3.415   7.361  0.00  0.00    +0.000 A 
ATOM     12  C   UNL     1      46.843   3.020   6.435  0.00  0.00    +0.000 A 
ATOM     13  C   UNL     1      47.385   1.744   6.517  0.00  0.00    +0.000 A 
ATOM     14  C   UNL     1      46.946   0.917   7.536  0.00  0.00    +0.000 A 
ATOM     15  N   UNL     1      46.018   1.273   8.454  0.00  0.00    +0.000 NA
ENDBRANCH   9  10
ENDBRANCH   6   9
ENDBRANCH   2   3
BRANCH   2  16
ATOM     16  N   UNL     1      47.827   6.221  13.534  0.00  0.00    +0.000 N 
ATOM     17  C   UNL     1      47.851   7.589  13.427  0.00  0.00    +0.000 C 
ATOM     18  O   UNL     1      46.856   8.284  13.607  0.00  0.00    +0.000 OA
ATOM     19  H   UNL     1      48.693   5.705  13.419  0.00  0.00    +0.000 HD
BRANCH  17  20
ATOM     20  C   UNL     1      49.143   8.191  13.064  0.00  0.00    +0.000 A 
ATOM     21  C   UNL     1      49.242   9.015  11.951  0.00  0.00    +0.000 A 
ATOM     22  S   UNL     1      50.812   9.638  11.706  0.00  0.00    +0.000 S 
ATOM     23  C   UNL     1      51.400   8.859  13.101  0.00  0.00    +0.000 A 
ATOM     24  N   UNL     1      52.689   9.012  13.496  0.00  0.00    +0.000 NA
ATOM     25  C   UNL     1      52.993   8.389  14.589  0.00  0.00    +0.000 A 
ATOM     26  N   UNL     1      52.133   7.606  15.330  0.00  0.00    +0.000 N 
ATOM     27  C   UNL     1      52.584   6.919  16.518  0.00  0.00    +0.000 C 
ATOM     28  C   UNL     1      50.817   7.393  14.927  0.00  0.00    +0.000 A 
ATOM     29  O   UNL     1      50.059   6.637  15.526  0.00  0.00    +0.000 OA
ATOM     30  C   UNL     1      50.425   8.106  13.726  0.00  0.00    +0.000 A 
ENDBRANCH  17  20
ENDBRANCH   2  16
TORSDOF 5
ENDMDL
MODEL 3
REMARK VINA RESULT:    -7.807      1.837      2.817
REMARK INTER + INTRA:         -10.707
REMARK INTER:                  -9.599
REMARK INTRA:                  -1.107
REMARK UNBOUND:                -0.618
REMARK  Name = 
REMARK  7 active torsions:
REMARK  status: ('A' for Active; 'I' for Inactive)
REMARK    1  A    between atoms: C_1  and  C_2
REMARK    2  A    between atoms: C_2  and  N_3
REMARK    3  A    between atoms: C_2  and  C_17
REMARK    4  A    between atoms: C_4  and  C_6
REMARK    5  A    between atoms: N_12  and  C_13
REMARK    6  A    between atoms: C_20  and  C_21
REMARK    7  A    between atoms: C_21  and  C_22
REMARK                            x       y       z     vdW  Elec       q    Type
REMARK                         _______ _______ _______ _____ _____    ______ ____
ROOT
ATOM      1  C   UNL     1      47.163   9.609  13.081  0.00  0.00    +0.000 C 
ATOM      2  C   UNL     1      47.604   8.150  13.246  0.00  0.00    +0.000 C 
ENDROOT
BRANCH   2   3
ATOM      3  C   UNL     1      46.559   7.231  12.621  0.00  0.00    +0.000 A 
ATOM      4  C   UNL     1      45.487   7.727  11.882  0.00  0.00    +0.000 A 
ATOM      5  N   UNL     1      44.632   6.937  11.177  0.00  0.00    +0.000 NA
ATOM      6  C   UNL     1      44.881   5.601  11.228  0.00  0.00    +0.000 A 
ATOM      7  C   UNL     1      45.925   5.101  11.995  0.00  0.00    +0.000 A 
ATOM      8  N   UNL     1      46.771   5.892  12.704  0.00  0.00    +0.000 NA
BRANCH   6   9
ATOM      9  C   UNL     1      44.021   4.679  10.400  0.00  0.00    +0.000 C 
BRANCH   9  10
ATOM     10  C   UNL     1      44.786   3.847   9.395  0.00  0.00    +0.000 A 
ATOM     11  C   UNL     1      44.851   2.458   9.518  0.00  0.00    +0.000 A 
ATOM     12  C   UNL     1      45.616   1.732   8.610  0.00  0.00    +0.000 A 
ATOM     13  C   UNL     1      46.304   2.402   7.608  0.00  0.00    +0.000 A 
ATOM     14  C   UNL     1      46.188   3.780   7.550  0.00  0.00    +0.000 A 
ATOM     15  N   UNL     1      45.448   4.514   8.413  0.00  0.00    +0.000 NA
ENDBRANCH   9  10
ENDBRANCH   6   9
ENDBRANCH   2   3
BRANCH   2  16
ATOM     16  N   UNL     1      47.892   7.822  14.635  0.00  0.00    +0.000 N 
ATOM     17  C   UNL     1      49.154   7.858  15.174  0.00  0.00    +0.000 C 
ATOM     18  O   UNL     1      50.153   8.104  14.504  0.00  0.00    +0.000 OA
ATOM     19  H   UNL     1      47.102   7.659  15.249  0.00  0.00    +0.000 HD
BRANCH  17  20
ATOM     20  C   UNL     1      49.257   7.567  16.612  0.00  0.00    +0.000 A 
ATOM     21  C   UNL     1      49.734   8.531  17.488  0.00  0.00    +0.000 A 
ATOM     22  S   UNL     1      49.756   8.018  19.115  0.00  0.00    +0.000 S 
ATOM     23  C   UNL     1      49.092   6.505  18.707  0.00  0.00    +0.000 A 
ATOM     24  N   UNL     1      48.814   5.582  19.661  0.00  0.00    +0.000 NA
ATOM     25  C   UNL     1      48.284   4.489  19.213  0.00  0.00    +0.000 A 
ATOM     26  N   UNL     1      48.013   4.214  17.889  0.00  0.00    +0.000 N 
ATOM     27  C   UNL     1      47.457   2.943  17.489  0.00  0.00    +0.000 C 
ATOM     28  C   UNL     1      48.329   5.122  16.882  0.00  0.00    +0.000 A 
ATOM     29  O   UNL     1      48.171   4.867  15.692  0.00  0.00    +0.000 OA
ATOM     30  C   UNL     1      48.889   6.377  17.346  0.00  0.00    +0.000 A 
ENDBRANCH  17  20
ENDBRANCH   2  16
TORSDOF 5
ENDMDL
MODEL 4
REMARK VINA RESULT:    -7.643      2.866      4.313
REMARK INTER + INTRA:         -10.496
REMARK INTER:                  -9.942
REMARK INTRA:                  -0.553
REMARK UNBOUND:                -0.618
REMARK  Name = 
REMARK  7 active torsions:
REMARK  status: ('A' for Active; 'I' for Inactive)
REMARK    1  A    between atoms: C_1  and  C_2
REMARK    2  A    between atoms: C_2  and  N_3
REMARK    3  A    between atoms: C_2  and  C_17
REMARK    4  A    between atoms: C_4  and  C_6
REMARK    5  A    between atoms: N_12  and  C_13
REMARK    6  A    between atoms: C_20  and  C_21
REMARK    7  A    between atoms: C_21  and  C_22
REMARK                            x       y       z     vdW  Elec       q    Type
REMARK                         _______ _______ _______ _____ _____    ______ ____
ROOT
ATOM      1  C   UNL     1      47.529   3.531  14.884  0.00  0.00    +0.000 C 
ATOM      2  C   UNL     1      46.682   4.792  14.678  0.00  0.00    +0.000 C 
ENDROOT
BRANCH   2   3
ATOM      3  C   UNL     1      45.921   4.683  13.361  0.00  0.00    +0.000 A 
ATOM      4  C   UNL     1      46.114   5.588  12.319  0.00  0.00    +0.000 A 
ATOM      5  N   UNL     1      45.579   5.430  11.078  0.00  0.00    +0.000 NA
ATOM      6  C   UNL     1      44.826   4.313  10.896  0.00  0.00    +0.000 A 
ATOM      7  C   UNL     1      44.600   3.428  11.942  0.00  0.00    +0.000 A 
ATOM      8  N   UNL     1      45.129   3.594  13.182  0.00  0.00    +0.000 NA
BRANCH   6   9
ATOM      9  C   UNL     1      44.275   4.036   9.519  0.00  0.00    +0.000 C 
BRANCH   9  10
ATOM     10  C   UNL     1      45.234   3.320   8.595  0.00  0.00    +0.000 A 
ATOM     11  C   UNL     1      45.499   1.959   8.754  0.00  0.00    +0.000 A 
ATOM     12  C   UNL     1      46.436   1.348   7.924  0.00  0.00    +0.000 A 
ATOM     13  C   UNL     1      47.091   2.105   6.963  0.00  0.00    +0.000 A 
ATOM     14  C   UNL     1      46.772   3.448   6.865  0.00  0.00    +0.000 A 
ATOM     15  N   UNL     1      45.863   4.069   7.651  0.00  0.00    +0.000 NA
ENDBRANCH   9  10
ENDBRANCH   6   9
ENDBRANCH   2   3
BRANCH   2  16
ATOM     16  N   UNL     1      47.480   6.006  14.774  0.00  0.00    +0.000 N 
ATOM     17  C   UNL     1      48.367   6.249  15.794  0.00  0.00    +0.000 C 
ATOM     18  O   UNL     1      48.504   5.488  16.747  0.00  0.00    +0.000 OA
ATOM     19  H   UNL     1      47.447   6.649  13.991  0.00  0.00    +0.000 HD
BRANCH  17  20
ATOM     20  C   UNL     1      49.145   7.494  15.698  0.00  0.00    +0.000 A 
ATOM     21  C   UNL     1      49.315   8.300  16.815  0.00  0.00    +0.000 A 
ATOM     22  S   UNL     1      50.266   9.684  16.513  0.00  0.00    +0.000 S 
ATOM     23  C   UNL     1      50.514   9.231  14.892  0.00  0.00    +0.000 A 
ATOM     24  N   UNL     1      51.289   9.979  14.067  0.00  0.00    +0.000 NA
ATOM     25  C   UNL     1      51.417   9.502  12.871  0.00  0.00    +0.000 A 
ATOM     26  N   UNL     1      50.828   8.346  12.403  0.00  0.00    +0.000 N 
ATOM     27  C   UNL     1      51.002   7.921  11.033  0.00  0.00    +0.000 C 
ATOM     28  C   UNL     1      49.991   7.580  13.211  0.00  0.00    +0.000 A 
ATOM     29  O   UNL     1      49.394   6.594  12.792  0.00  0.00    +0.000 OA
ATOM     30  C   UNL     1      49.853   8.061  14.572  0.00  0.00    +0.000 A 
ENDBRANCH  17  20
ENDBRANCH   2  16
TORSDOF 5
ENDMDL
MODEL 5
REMARK VINA RESULT:    -7.250      3.441      5.076
REMARK INTER + INTRA:          -9.987
REMARK INTER:                  -9.015
REMARK INTRA:                  -0.972
REMARK UNBOUND:                -0.618
REMARK  Name = 
REMARK  7 active torsions:
REMARK  status: ('A' for Active; 'I' for Inactive)
REMARK    1  A    between atoms: C_1  and  C_2
REMARK    2  A    between atoms: C_2  and  N_3
REMARK    3  A    between atoms: C_2  and  C_17
REMARK    4  A    between atoms: C_4  and  C_6
REMARK    5  A    between atoms: N_12  and  C_13
REMARK    6  A    between atoms: C_20  and  C_21
REMARK    7  A    between atoms: C_21  and  C_22
REMARK                            x       y       z     vdW  Elec       q    Type
REMARK                         _______ _______ _______ _____ _____    ______ ____
ROOT
ATOM      1  C   UNL     1      46.786   4.756  14.964  0.00  0.00    +0.000 C 
ATOM      2  C   UNL     1      46.491   5.850  13.931  0.00  0.00    +0.000 C 
ENDROOT
BRANCH   2   3
ATOM      3  C   UNL     1      46.144   5.204  12.594  0.00  0.00    +0.000 A 
ATOM      4  C   UNL     1      45.699   3.887  12.503  0.00  0.00    +0.000 A 
ATOM      5  N   UNL     1      45.226   3.331  11.355  0.00  0.00    +0.000 NA
ATOM      6  C   UNL     1      45.208   4.146  10.266  0.00  0.00    +0.000 A 
ATOM      7  C   UNL     1      45.686   5.447  10.344  0.00  0.00    +0.000 A 
ATOM      8  N   UNL     1      46.165   5.995  11.490  0.00  0.00    +0.000 NA
BRANCH   6   9
ATOM      9  C   UNL     1      44.617   3.617   8.983  0.00  0.00    +0.000 C 
BRANCH   9  10
ATOM     10  C   UNL     1      45.603   2.896   8.092  0.00  0.00    +0.000 A 
ATOM     11  C   UNL     1      46.099   3.502   6.937  0.00  0.00    +0.000 A 
ATOM     12  C   UNL     1      46.956   2.784   6.108  0.00  0.00    +0.000 A 
ATOM     13  C   UNL     1      47.292   1.479   6.441  0.00  0.00    +0.000 A 
ATOM     14  C   UNL     1      46.761   0.948   7.604  0.00  0.00    +0.000 A 
ATOM     15  N   UNL     1      45.932   1.622   8.434  0.00  0.00    +0.000 NA
ENDBRANCH   9  10
ENDBRANCH   6   9
ENDBRANCH   2   3
BRANCH   2  16
ATOM     16  N   UNL     1      47.579   6.813  13.832  0.00  0.00    +0.000 N 
ATOM     17  C   UNL     1      47.382   8.162  13.674  0.00  0.00    +0.000 C 
ATOM     18  O   UNL     1      46.267   8.656  13.533  0.00  0.00    +0.000 OA
ATOM     19  H   UNL     1      48.520   6.471  13.991  0.00  0.00    +0.000 HD
BRANCH  17  20
ATOM     20  C   UNL     1      48.591   9.000  13.664  0.00  0.00    +0.000 A 
ATOM     21  C   UNL     1      48.730  10.037  14.576  0.00  0.00    +0.000 A 
ATOM     22  S   UNL     1      50.207  10.878  14.426  0.00  0.00    +0.000 S 
ATOM     23  C   UNL     1      50.725   9.860  13.165  0.00  0.00    +0.000 A 
ATOM     24  N   UNL     1      51.948  10.014  12.599  0.00  0.00    +0.000 NA
ATOM     25  C   UNL     1      52.224   9.151  11.673  0.00  0.00    +0.000 A 
ATOM     26  N   UNL     1      51.385   8.146  11.239  0.00  0.00    +0.000 N 
ATOM     27  C   UNL     1      51.774   7.260  10.168  0.00  0.00    +0.000 C 
ATOM     28  C   UNL     1      50.106   7.991  11.769  0.00  0.00    +0.000 A 
ATOM     29  O   UNL     1      49.315   7.156  11.342  0.00  0.00    +0.000 OA
ATOM     30  C   UNL     1      49.773   8.914  12.837  0.00  0.00    +0.000 A 
ENDBRANCH  17  20
ENDBRANCH   2  16
TORSDOF 5
ENDMDL
MODEL 6
REMARK VINA RESULT:    -7.195      4.130      9.275
REMARK INTER + INTRA:          -9.917
REMARK INTER:                  -9.729
REMARK INTRA:                  -0.187
REMARK UNBOUND:                -0.618
REMARK  Name = 
REMARK  7 active torsions:
REMARK  status: ('A' for Active; 'I' for Inactive)
REMARK    1  A    between atoms: C_1  and  C_2
REMARK    2  A    between atoms: C_2  and  N_3
REMARK    3  A    between atoms: C_2  and  C_17
REMARK    4  A    between atoms: C_4  and  C_6
REMARK    5  A    between atoms: N_12  and  C_13
REMARK    6  A    between atoms: C_20  and  C_21
REMARK    7  A    between atoms: C_21  and  C_22
REMARK                            x       y       z     vdW  Elec       q    Type
REMARK                         _______ _______ _______ _____ _____    ______ ____
ROOT
ATOM      1  C   UNL     1      47.056   5.111  18.468  0.00  0.00    +0.000 C 
ATOM      2  C   UNL     1      47.768   4.409  17.306  0.00  0.00    +0.000 C 
ENDROOT
BRANCH   2   3
ATOM      3  C   UNL     1      49.246   4.243  17.643  0.00  0.00    +0.000 A 
ATOM      4  C   UNL     1      49.872   5.016  18.618  0.00  0.00    +0.000 A 
ATOM      5  N   UNL     1      51.139   4.786  19.059  0.00  0.00    +0.000 NA
ATOM      6  C   UNL     1      51.784   3.736  18.487  0.00  0.00    +0.000 A 
ATOM      7  C   UNL     1      51.177   2.987  17.487  0.00  0.00    +0.000 A 
ATOM      8  N   UNL     1      49.916   3.225  17.044  0.00  0.00    +0.000 NA
BRANCH   6   9
ATOM      9  C   UNL     1      53.160   3.376  18.991  0.00  0.00    +0.000 C 
BRANCH   9  10
ATOM     10  C   UNL     1      53.796   2.199  18.287  0.00  0.00    +0.000 A 
ATOM     11  C   UNL     1      54.743   2.395  17.280  0.00  0.00    +0.000 A 
ATOM     12  C   UNL     1      55.260   1.289  16.611  0.00  0.00    +0.000 A 
ATOM     13  C   UNL     1      54.819   0.018  16.952  0.00  0.00    +0.000 A 
ATOM     14  C   UNL     1      53.880  -0.095  17.963  0.00  0.00    +0.000 A 
ATOM     15  N   UNL     1      53.363   0.959  18.637  0.00  0.00    +0.000 NA
ENDBRANCH   9  10
ENDBRANCH   6   9
ENDBRANCH   2   3
BRANCH   2  16
ATOM     16  N   UNL     1      47.547   5.093  16.040  0.00  0.00    +0.000 N 
ATOM     17  C   UNL     1      47.368   4.437  14.847  0.00  0.00    +0.000 C 
ATOM     18  O   UNL     1      47.451   3.216  14.745  0.00  0.00    +0.000 OA
ATOM     19  H   UNL     1      47.420   6.099  16.069  0.00  0.00    +0.000 HD
BRANCH  17  20
ATOM     20  C   UNL     1      47.086   5.280  13.675  0.00  0.00    +0.000 A 
ATOM     21  C   UNL     1      47.717   6.508  13.529  0.00  0.00    +0.000 A 
ATOM     22  S   UNL     1      47.281   7.328  12.098  0.00  0.00    +0.000 S 
ATOM     23  C   UNL     1      46.266   6.053  11.608  0.00  0.00    +0.000 A 
ATOM     24  N   UNL     1      45.605   6.100  10.425  0.00  0.00    +0.000 NA
ATOM     25  C   UNL     1      44.893   5.050  10.164  0.00  0.00    +0.000 A 
ATOM     26  N   UNL     1      44.762   3.949  10.984  0.00  0.00    +0.000 N 
ATOM     27  C   UNL     1      43.908   2.844  10.618  0.00  0.00    +0.000 C 
ATOM     28  C   UNL     1      45.392   3.890  12.225  0.00  0.00    +0.000 A 
ATOM     29  O   UNL     1      45.224   2.957  13.004  0.00  0.00    +0.000 OA
ATOM     30  C   UNL     1      46.231   5.031  12.537  0.00  0.00    +0.000 A 
ENDBRANCH  17  20
ENDBRANCH   2  16
TORSDOF 5
ENDMDL
MODEL 7
REMARK VINA RESULT:    -7.190      2.997      3.956
REMARK INTER + INTRA:          -9.910
REMARK INTER:                  -9.521
REMARK INTRA:                  -0.389
REMARK UNBOUND:                -0.618
REMARK  Name = 
REMARK  7 active torsions:
REMARK  status: ('A' for Active; 'I' for Inactive)
REMARK    1  A    between atoms: C_1  and  C_2
REMARK    2  A    between atoms: C_2  and  N_3
REMARK    3  A    between atoms: C_2  and  C_17
REMARK    4  A    between atoms: C_4  and  C_6
REMARK    5  A    between atoms: N_12  and  C_13
REMARK    6  A    between atoms: C_20  and  C_21
REMARK    7  A    between atoms: C_21  and  C_22
REMARK                            x       y       z     vdW  Elec       q    Type
REMARK                         _______ _______ _______ _____ _____    ______ ____
ROOT
ATOM      1  C   UNL     1      46.807   4.540  14.854  0.00  0.00    +0.000 C 
ATOM      2  C   UNL     1      46.089   5.536  13.937  0.00  0.00    +0.000 C 
ENDROOT
BRANCH   2   3
ATOM      3  C   UNL     1      45.824   4.882  12.585  0.00  0.00    +0.000 A 
ATOM      4  C   UNL     1      45.588   3.514  12.461  0.00  0.00    +0.000 A 
ATOM      5  N   UNL     1      45.188   2.924  11.302  0.00  0.00    +0.000 NA
ATOM      6  C   UNL     1      45.026   3.755  10.238  0.00  0.00    +0.000 A 
ATOM      7  C   UNL     1      45.297   5.113  10.349  0.00  0.00    +0.000 A 
ATOM      8  N   UNL     1      45.704   5.697  11.505  0.00  0.00    +0.000 NA
BRANCH   6   9
ATOM      9  C   UNL     1      44.503   3.176   8.947  0.00  0.00    +0.000 C 
BRANCH   9  10
ATOM     10  C   UNL     1      45.573   2.634   8.027  0.00  0.00    +0.000 A 
ATOM     11  C   UNL     1      45.967   3.343   6.892  0.00  0.00    +0.000 A 
ATOM     12  C   UNL     1      46.909   2.782   6.034  0.00  0.00    +0.000 A 
ATOM     13  C   UNL     1      47.432   1.529   6.321  0.00  0.00    +0.000 A 
ATOM     14  C   UNL     1      46.994   0.889   7.467  0.00  0.00    +0.000 A 
ATOM     15  N   UNL     1      46.085   1.409   8.324  0.00  0.00    +0.000 NA
ENDBRANCH   9  10
ENDBRANCH   6   9
ENDBRANCH   2   3
BRANCH   2  16
ATOM     16  N   UNL     1      46.814   6.794  13.827  0.00  0.00    +0.000 N 
ATOM     17  C   UNL     1      48.103   6.886  13.362  0.00  0.00    +0.000 C 
ATOM     18  O   UNL     1      48.771   5.900  13.068  0.00  0.00    +0.000 OA
ATOM     19  H   UNL     1      46.297   7.648  14.009  0.00  0.00    +0.000 HD
BRANCH  17  20
ATOM     20  C   UNL     1      48.659   8.243  13.249  0.00  0.00    +0.000 A 
ATOM     21  C   UNL     1      48.933   8.784  12.000  0.00  0.00    +0.000 A 
ATOM     22  S   UNL     1      49.548  10.374  12.071  0.00  0.00    +0.000 S 
ATOM     23  C   UNL     1      49.431  10.406  13.768  0.00  0.00    +0.000 A 
ATOM     24  N   UNL     1      49.769  11.515  14.472  0.00  0.00    +0.000 NA
ATOM     25  C   UNL     1      49.601  11.411  15.752  0.00  0.00    +0.000 A 
ATOM     26  N   UNL     1      49.138  10.291  16.410  0.00  0.00    +0.000 N 
ATOM     27  C   UNL     1      49.026  10.264  17.850  0.00  0.00    +0.000 C 
ATOM     28  C   UNL     1      48.826   9.122  15.720  0.00  0.00    +0.000 A 
ATOM     29  O   UNL     1      48.490   8.090  16.292  0.00  0.00    +0.000 OA
ATOM     30  C   UNL     1      48.963   9.211  14.279  0.00  0.00    +0.000 A 
ENDBRANCH  17  20
ENDBRANCH   2  16
TORSDOF 5
ENDMDL
MODEL 8
REMARK VINA RESULT:    -6.981      2.741      9.476
REMARK INTER + INTRA:          -9.639
REMARK INTER:                  -8.806
REMARK INTRA:                  -0.834
REMARK UNBOUND:                -0.618
REMARK  Name = 
REMARK  7 active torsions:
REMARK  status: ('A' for Active; 'I' for Inactive)
REMARK    1  A    between atoms: C_1  and  C_2
REMARK    2  A    between atoms: C_2  and  N_3
REMARK    3  A    between atoms: C_2  and  C_17
REMARK    4  A    between atoms: C_4  and  C_6
REMARK    5  A    between atoms: N_12  and  C_13
REMARK    6  A    between atoms: C_20  and  C_21
REMARK    7  A    between atoms: C_21  and  C_22
REMARK                            x       y       z     vdW  Elec       q    Type
REMARK                         _______ _______ _______ _____ _____    ______ ____
ROOT
ATOM      1  C   UNL     1      49.004   7.871  11.362  0.00  0.00    +0.000 C 
ATOM      2  C   UNL     1      47.916   7.841  12.440  0.00  0.00    +0.000 C 
ENDROOT
BRANCH   2   3
ATOM      3  C   UNL     1      48.560   7.987  13.815  0.00  0.00    +0.000 A 
ATOM      4  C   UNL     1      48.134   8.945  14.733  0.00  0.00    +0.000 A 
ATOM      5  N   UNL     1      48.571   8.997  16.021  0.00  0.00    +0.000 NA
ATOM      6  C   UNL     1      49.469   8.042  16.381  0.00  0.00    +0.000 A 
ATOM      7  C   UNL     1      49.925   7.110  15.458  0.00  0.00    +0.000 A 
ATOM      8  N   UNL     1      49.493   7.066  14.172  0.00  0.00    +0.000 NA
BRANCH   6   9
ATOM      9  C   UNL     1      49.928   7.994  17.817  0.00  0.00    +0.000 C 
BRANCH   9  10
ATOM     10  C   UNL     1      48.921   7.398  18.775  0.00  0.00    +0.000 A 
ATOM     11  C   UNL     1      48.604   8.042  19.972  0.00  0.00    +0.000 A 
ATOM     12  C   UNL     1      47.720   7.433  20.858  0.00  0.00    +0.000 A 
ATOM     13  C   UNL     1      47.178   6.195  20.537  0.00  0.00    +0.000 A 
ATOM     14  C   UNL     1      47.538   5.622  19.330  0.00  0.00    +0.000 A 
ATOM     15  N   UNL     1      48.389   6.191  18.446  0.00  0.00    +0.000 NA
ENDBRANCH   9  10
ENDBRANCH   6   9
ENDBRANCH   2   3
BRANCH   2  16
ATOM     16  N   UNL     1      47.072   6.660  12.330  0.00  0.00    +0.000 N 
ATOM     17  C   UNL     1      45.792   6.689  11.832  0.00  0.00    +0.000 C 
ATOM     18  O   UNL     1      45.234   7.731  11.504  0.00  0.00    +0.000 OA
ATOM     19  H   UNL     1      47.495   5.763  12.540  0.00  0.00    +0.000 HD
BRANCH  17  20
ATOM     20  C   UNL     1      45.106   5.392  11.725  0.00  0.00    +0.000 A 
ATOM     21  C   UNL     1      44.365   4.903  12.792  0.00  0.00    +0.000 A 
ATOM     22  S   UNL     1      43.624   3.401  12.470  0.00  0.00    +0.000 S 
ATOM     23  C   UNL     1      44.236   3.373  10.882  0.00  0.00    +0.000 A 
ATOM     24  N   UNL     1      43.938   2.357  10.035  0.00  0.00    +0.000 NA
ATOM     25  C   UNL     1      44.445   2.480   8.850  0.00  0.00    +0.000 A 
ATOM     26  N   UNL     1      45.243   3.521   8.424  0.00  0.00    +0.000 N 
ATOM     27  C   UNL     1      45.794   3.542   7.089  0.00  0.00    +0.000 C 
ATOM     28  C   UNL     1      45.604   4.556   9.284  0.00  0.00    +0.000 A 
ATOM     29  O   UNL     1      46.377   5.448   8.951  0.00  0.00    +0.000 OA
ATOM     30  C   UNL     1      45.024   4.475  10.610  0.00  0.00    +0.000 A 
ENDBRANCH  17  20
ENDBRANCH   2  16
TORSDOF 5
ENDMDL
MODEL 9
REMARK VINA RESULT:    -6.555      3.028      9.262
REMARK INTER + INTRA:          -9.089
REMARK INTER:                  -8.293
REMARK INTRA:                  -0.796
REMARK UNBOUND:                -0.618
REMARK  Name = 
REMARK  7 active torsions:
REMARK  status: ('A' for Active; 'I' for Inactive)
REMARK    1  A    between atoms: C_1  and  C_2
REMARK    2  A    between atoms: C_2  and  N_3
REMARK    3  A    between atoms: C_2  and  C_17
REMARK    4  A    between atoms: C_4  and  C_6
REMARK    5  A    between atoms: N_12  and  C_13
REMARK    6  A    between atoms: C_20  and  C_21
REMARK    7  A    between atoms: C_21  and  C_22
REMARK                            x       y       z     vdW  Elec       q    Type
REMARK                         _______ _______ _______ _____ _____    ______ ____
ROOT
ATOM      1  C   UNL     1      48.109   8.125  11.707  0.00  0.00    +0.000 C 
ATOM      2  C   UNL     1      47.198   7.661  12.849  0.00  0.00    +0.000 C 
ENDROOT
BRANCH   2   3
ATOM      3  C   UNL     1      48.011   7.551  14.134  0.00  0.00    +0.000 A 
ATOM      4  C   UNL     1      48.327   8.668  14.906  0.00  0.00    +0.000 A 
ATOM      5  N   UNL     1      48.905   8.592  16.135  0.00  0.00    +0.000 NA
ATOM      6  C   UNL     1      49.169   7.338  16.589  0.00  0.00    +0.000 A 
ATOM      7  C   UNL     1      48.891   6.225  15.807  0.00  0.00    +0.000 A 
ATOM      8  N   UNL     1      48.321   6.306  14.577  0.00  0.00    +0.000 NA
BRANCH   6   9
ATOM      9  C   UNL     1      49.732   7.182  17.980  0.00  0.00    +0.000 C 
BRANCH   9  10
ATOM     10  C   UNL     1      50.894   6.220  18.079  0.00  0.00    +0.000 A 
ATOM     11  C   UNL     1      52.135   6.537  17.525  0.00  0.00    +0.000 A 
ATOM     12  C   UNL     1      53.163   5.599  17.581  0.00  0.00    +0.000 A 
ATOM     13  C   UNL     1      52.930   4.368  18.178  0.00  0.00    +0.000 A 
ATOM     14  C   UNL     1      51.674   4.129  18.707  0.00  0.00    +0.000 A 
ATOM     15  N   UNL     1      50.657   5.021  18.675  0.00  0.00    +0.000 NA
ENDBRANCH   9  10
ENDBRANCH   6   9
ENDBRANCH   2   3
BRANCH   2  16
ATOM     16  N   UNL     1      46.492   6.432  12.516  0.00  0.00    +0.000 N 
ATOM     17  C   UNL     1      45.304   6.404  11.829  0.00  0.00    +0.000 C 
ATOM     18  O   UNL     1      44.706   7.425  11.500  0.00  0.00    +0.000 OA
ATOM     19  H   UNL     1      46.961   5.555  12.718  0.00  0.00    +0.000 HD
BRANCH  17  20
ATOM     20  C   UNL     1      44.764   5.072  11.515  0.00  0.00    +0.000 A 
ATOM     21  C   UNL     1      43.939   4.421  12.421  0.00  0.00    +0.000 A 
ATOM     22  S   UNL     1      43.393   2.901  11.870  0.00  0.00    +0.000 S 
ATOM     23  C   UNL     1      44.208   3.082  10.387  0.00  0.00    +0.000 A 
ATOM     24  N   UNL     1      44.121   2.133   9.421  0.00  0.00    +0.000 NA
ATOM     25  C   UNL     1      44.766   2.414   8.334  0.00  0.00    +0.000 A 
ATOM     26  N   UNL     1      45.510   3.554   8.115  0.00  0.00    +0.000 N 
ATOM     27  C   UNL     1      46.226   3.752   6.877  0.00  0.00    +0.000 C 
ATOM     28  C   UNL     1      45.655   4.525   9.103  0.00  0.00    +0.000 A 
ATOM     29  O   UNL     1      46.377   5.507   8.960  0.00  0.00    +0.000 OA
ATOM     30  C   UNL     1      44.916   4.266  10.324  0.00  0.00    +0.000 A 
ENDBRANCH  17  20
ENDBRANCH   2  16
TORSDOF 5
ENDMDL
