MODEL 1
REMARK VINA RESULT:    -8.088      0.000      0.000
REMARK INTER + INTRA:         -13.276
REMARK INTER:                 -12.107
REMARK INTRA:                  -1.169
REMARK UNBOUND:                -1.169
REMARK  Name = 
REMARK  9 active torsions:
REMARK  status: ('A' for Active; 'I' for Inactive)
REMARK    1  A    between atoms: C_2  and  OXT_3
REMARK    2  A    between atoms: C_2  and  CA_4
REMARK    3  A    between atoms: C_8  and  C_9
REMARK    4  A    between atoms: C_9  and  N_10
REMARK    5  A    between atoms: N_10  and  C_11
REMARK    6  A    between atoms: C_11  and  C_12
REMARK    7  A    between atoms: C_15  and  C_16
REMARK    8  A    between atoms: C_16  and  N_17
REMARK    9  A    between atoms: C_18  and  C_20
REMARK                            x       y       z     vdW  Elec       q    Type
REMARK                         _______ _______ _______ _____ _____    ______ ____
ROOT
ATOM      1  C   UNL     1      44.891   5.118  12.707  0.00  0.00    +0.000 A 
ATOM      2  C   UNL     1      44.659   6.483  12.475  0.00  0.00    +0.000 A 
ATOM      3  C   UNL     1      45.658   7.435  12.702  0.00  0.00    +0.000 A 
ATOM      4  C   UNL     1      46.916   7.046  13.174  0.00  0.00    +0.000 A 
ATOM      5  C   UNL     1      47.137   5.690  13.454  0.00  0.00    +0.000 A 
ATOM      6  C   UNL     1      46.140   4.733  13.211  0.00  0.00    +0.000 A 
ENDROOT
BRANCH   1   7
ATOM      7  C   UNL     1      43.799   4.102  12.431  0.00  0.00    +0.000 C 
BRANCH   7   8
ATOM      8  N   UNL     1      44.373   2.826  11.994  0.00  0.00    +0.000 NA
ATOM      9  H   UNL     1      45.382   2.935  11.908  0.00  0.00    +0.000 HD
BRANCH   8  10
ATOM     10  C   UNL     1      43.854   2.391  10.694  0.00  0.00    +0.000 C 
BRANCH  10  15
ATOM     11  CA  UNL     1      46.358   2.175   7.945  0.00  0.00    +0.000 A 
ATOM     12  C   UNL     1      46.524   3.485   7.521  0.00  0.00    +0.000 A 
ATOM     13  C   UNL     1      45.779   4.471   8.149  0.00  0.00    +0.000 A 
ATOM     14  C   UNL     1      44.911   4.116   9.180  0.00  0.00    +0.000 A 
ATOM     15  C   UNL     1      44.788   2.771   9.547  0.00  0.00    +0.000 A 
ATOM     16  N   UNL     1      45.496   1.780   8.934  0.00  0.00    +0.000 NA
BRANCH  11  18
ATOM     17  O   UNL     1      48.087   1.301   6.519  0.00  0.00    +0.000 OA
ATOM     18  C   UNL     1      47.191   1.104   7.319  0.00  0.00    +0.000 C 
BRANCH  18  19
ATOM     19  OXT UNL     1      46.829  -0.123   7.767  0.00  0.00    +0.000 OA
ATOM     20  HXT UNL     1      45.886  -0.280   7.533  0.00  0.00    +0.000 HD
ENDBRANCH  18  19
ENDBRANCH  11  18
ENDBRANCH  10  15
ENDBRANCH   8  10
ENDBRANCH   7   8
ENDBRANCH   1   7
BRANCH   4  21
ATOM     21  C   UNL     1      48.016   8.059  13.377  0.00  0.00    +0.000 C 
BRANCH  21  22
ATOM     22  N   UNL     1      49.175   7.493  14.017  0.00  0.00    +0.000 N 
ATOM     23  C   UNL     1      49.474   7.764  15.327  0.00  0.00    +0.000 C 
ATOM     24  O   UNL     1      48.759   8.472  16.031  0.00  0.00    +0.000 OA
ATOM     25  H   UNL     1      49.887   7.091  13.410  0.00  0.00    +0.000 HD
BRANCH  23  26
ATOM     26  C   UNL     1      50.665   7.093  15.868  0.00  0.00    +0.000 A 
ATOM     27  C   UNL     1      51.930   7.597  15.598  0.00  0.00    +0.000 A 
ATOM     28  S   UNL     1      53.187   6.722  16.351  0.00  0.00    +0.000 S 
ATOM     29  C   UNL     1      52.088   5.607  17.020  0.00  0.00    +0.000 A 
ATOM     30  N   UNL     1      52.521   4.563  17.778  0.00  0.00    +0.000 NA
ATOM     31  C   UNL     1      51.578   3.786  18.199  0.00  0.00    +0.000 A 
ATOM     32  N   UNL     1      50.246   3.960  17.938  0.00  0.00    +0.000 N 
ATOM     33  C   UNL     1      49.759   5.024  17.216  0.00  0.00    +0.000 A 
ATOM     34  O   UNL     1      48.552   5.194  17.067  0.00  0.00    +0.000 OA
ATOM     35  C   UNL     1      50.778   5.916  16.697  0.00  0.00    +0.000 A 
ATOM     36  H   UNL     1      49.555   3.328  18.316  0.00  0.00    +0.000 HD
ENDBRANCH  23  26
ENDBRANCH  21  22
ENDBRANCH   4  21
TORSDOF 9
ENDMDL
MODEL 2
REMARK VINA RESULT:    -7.794      3.119      8.348
REMARK INTER + INTRA:         -12.836
REMARK INTER:                 -10.843
REMARK INTRA:                  -1.993
REMARK UNBOUND:                -1.169
REMARK  Name = 
REMARK  9 active torsions:
REMARK  status: ('A' for Active; 'I' for Inactive)
REMARK    1  A    between atoms: C_2  and  OXT_3
REMARK    2  A    between atoms: C_2  and  CA_4
REMARK    3  A    between atoms: C_8  and  C_9
REMARK    4  A    between atoms: C_9  and  N_10
REMARK    5  A    between atoms: N_10  and  C_11
REMARK    6  A    between atoms: C_11  and  C_12
REMARK    7  A    between atoms: C_15  and  C_16
REMARK    8  A    between atoms: C_16  and  N_17
REMARK    9  A    between atoms: C_18  and  C_20
REMARK                            x       y       z     vdW  Elec       q    Type
REMARK                         _______ _______ _______ _____ _____    ______ ____
ROOT
ATOM      1  C   UNL     1      49.562   8.418  15.482  0.00  0.00    +0.000 A 
ATOM      2  C   UNL     1      48.238   8.875  15.395  0.00  0.00    +0.000 A 
ATOM      3  C   UNL     1      47.521   8.791  14.197  0.00  0.00    +0.000 A 
ATOM      4  C   UNL     1      48.113   8.252  13.050  0.00  0.00    +0.000 A 
ATOM      5  C   UNL     1      49.452   7.840  13.119  0.00  0.00    +0.000 A 
ATOM      6  C   UNL     1      50.166   7.909  14.324  0.00  0.00    +0.000 A 
ENDROOT
BRANCH   1   7
ATOM      7  C   UNL     1      50.312   8.498  16.799  0.00  0.00    +0.000 C 
BRANCH   7   8
ATOM      8  N   UNL     1      49.702   7.617  17.799  0.00  0.00    +0.000 NA
ATOM      9  H   UNL     1      49.807   8.044  18.717  0.00  0.00    +0.000 HD
BRANCH   8  10
ATOM     10  C   UNL     1      50.331   6.295  17.841  0.00  0.00    +0.000 C 
BRANCH  10  15
ATOM     11  CA  UNL     1      47.833   4.146  16.105  0.00  0.00    +0.000 A 
ATOM     12  C   UNL     1      47.485   3.187  17.045  0.00  0.00    +0.000 A 
ATOM     13  C   UNL     1      48.103   3.238  18.285  0.00  0.00    +0.000 A 
ATOM     14  C   UNL     1      49.027   4.248  18.544  0.00  0.00    +0.000 A 
ATOM     15  C   UNL     1      49.336   5.176  17.543  0.00  0.00    +0.000 A 
ATOM     16  N   UNL     1      48.756   5.137  16.309  0.00  0.00    +0.000 NA
BRANCH  11  18
ATOM     17  O   UNL     1      47.001   3.162  14.074  0.00  0.00    +0.000 OA
ATOM     18  C   UNL     1      47.139   4.142  14.781  0.00  0.00    +0.000 C 
BRANCH  18  19
ATOM     19  OXT UNL     1      46.670   5.375  14.470  0.00  0.00    +0.000 OA
ATOM     20  HXT UNL     1      46.583   5.443  13.492  0.00  0.00    +0.000 HD
ENDBRANCH  18  19
ENDBRANCH  11  18
ENDBRANCH  10  15
ENDBRANCH   8  10
ENDBRANCH   7   8
ENDBRANCH   1   7
BRANCH   4  21
ATOM     21  C   UNL     1      47.334   8.114  11.766  0.00  0.00    +0.000 C 
BRANCH  21  22
ATOM     22  N   UNL     1      46.667   6.841  11.662  0.00  0.00    +0.000 N 
ATOM     23  C   UNL     1      45.303   6.754  11.552  0.00  0.00    +0.000 C 
ATOM     24  O   UNL     1      44.583   7.748  11.503  0.00  0.00    +0.000 OA
ATOM     25  H   UNL     1      47.206   6.016  11.915  0.00  0.00    +0.000 HD
BRANCH  23  26
ATOM     26  C   UNL     1      44.753   5.398  11.416  0.00  0.00    +0.000 A 
ATOM     27  C   UNL     1      43.981   4.855  12.434  0.00  0.00    +0.000 A 
ATOM     28  S   UNL     1      43.386   3.295  12.080  0.00  0.00    +0.000 S 
ATOM     29  C   UNL     1      44.182   3.270  10.576  0.00  0.00    +0.000 A 
ATOM     30  N   UNL     1      44.103   2.185   9.758  0.00  0.00    +0.000 NA
ATOM     31  C   UNL     1      44.777   2.297   8.661  0.00  0.00    +0.000 A 
ATOM     32  N   UNL     1      45.516   3.392   8.305  0.00  0.00    +0.000 N 
ATOM     33  C   UNL     1      45.590   4.527   9.078  0.00  0.00    +0.000 A 
ATOM     34  O   UNL     1      46.197   5.522   8.694  0.00  0.00    +0.000 OA
ATOM     35  C   UNL     1      44.870   4.446  10.335  0.00  0.00    +0.000 A 
ATOM     36  H   UNL     1      46.003   3.426   7.421  0.00  0.00    +0.000 HD
ENDBRANCH  23  26
ENDBRANCH  21  22
ENDBRANCH   4  21
TORSDOF 9
ENDMDL
MODEL 3
REMARK VINA RESULT:    -7.677      3.196      8.598
REMARK INTER + INTRA:         -12.661
REMARK INTER:                 -10.924
REMARK INTRA:                  -1.737
REMARK UNBOUND:                -1.169
REMARK  Name = 
REMARK  9 active torsions:
REMARK  status: ('A' for Active; 'I' for Inactive)
REMARK    1  A    between atoms: C_2  and  OXT_3
REMARK    2  A    between atoms: C_2  and  CA_4
REMARK    3  A    between atoms: C_8  and  C_9
REMARK    4  A    between atoms: C_9  and  N_10
REMARK    5  A    between atoms: N_10  and  C_11
REMARK    6  A    between atoms: C_11  and  C_12
REMARK    7  A    between atoms: C_15  and  C_16
REMARK    8  A    between atoms: C_16  and  N_17
REMARK    9  A    between atoms: C_18  and  C_20
REMARK                            x       y       z     vdW  Elec       q    Type
REMARK                         _______ _______ _______ _____ _____    ______ ____
ROOT
ATOM      1  C   UNL     1      49.208   8.159  16.282  0.00  0.00    +0.000 A 
ATOM      2  C   UNL     1      49.636   7.100  15.466  0.00  0.00    +0.000 A 
ATOM      3  C   UNL     1      49.172   6.965  14.154  0.00  0.00    +0.000 A 
ATOM      4  C   UNL     1      48.260   7.885  13.624  0.00  0.00    +0.000 A 
ATOM      5  C   UNL     1      47.793   8.917  14.451  0.00  0.00    +0.000 A 
ATOM      6  C   UNL     1      48.270   9.061  15.762  0.00  0.00    +0.000 A 
ENDROOT
BRANCH   1   7
ATOM      7  C   UNL     1      49.744   8.297  17.695  0.00  0.00    +0.000 C 
BRANCH   7   8
ATOM      8  N   UNL     1      48.793   7.752  18.667  0.00  0.00    +0.000 NA
ATOM      9  H   UNL     1      48.663   8.432  19.414  0.00  0.00    +0.000 HD
BRANCH   8  10
ATOM     10  C   UNL     1      49.262   6.502  19.272  0.00  0.00    +0.000 C 
BRANCH  10  15
ATOM     11  CA  UNL     1      49.284   3.254  17.448  0.00  0.00    +0.000 A 
ATOM     12  C   UNL     1      47.983   3.101  16.992  0.00  0.00    +0.000 A 
ATOM     13  C   UNL     1      47.063   4.090  17.308  0.00  0.00    +0.000 A 
ATOM     14  C   UNL     1      47.479   5.196  18.048  0.00  0.00    +0.000 A 
ATOM     15  C   UNL     1      48.807   5.277  18.482  0.00  0.00    +0.000 A 
ATOM     16  N   UNL     1      49.727   4.310  18.201  0.00  0.00    +0.000 NA
BRANCH  11  18
ATOM     17  O   UNL     1      50.238   1.512  16.092  0.00  0.00    +0.000 OA
ATOM     18  C   UNL     1      50.303   2.228  17.073  0.00  0.00    +0.000 C 
BRANCH  18  19
ATOM     19  OXT UNL     1      51.323   2.201  17.966  0.00  0.00    +0.000 OA
ATOM     20  HXT UNL     1      51.784   1.335  17.894  0.00  0.00    +0.000 HD
ENDBRANCH  18  19
ENDBRANCH  11  18
ENDBRANCH  10  15
ENDBRANCH   8  10
ENDBRANCH   7   8
ENDBRANCH   1   7
BRANCH   4  21
ATOM     21  C   UNL     1      47.790   7.776  12.195  0.00  0.00    +0.000 C 
BRANCH  21  22
ATOM     22  N   UNL     1      47.053   6.563  11.948  0.00  0.00    +0.000 N 
ATOM     23  C   UNL     1      45.712   6.473  12.218  0.00  0.00    +0.000 C 
ATOM     24  O   UNL     1      45.063   7.423  12.648  0.00  0.00    +0.000 OA
ATOM     25  H   UNL     1      47.596   5.715  11.803  0.00  0.00    +0.000 HD
BRANCH  23  26
ATOM     26  C   UNL     1      45.073   5.191  11.886  0.00  0.00    +0.000 A 
ATOM     27  C   UNL     1      44.396   4.479  12.866  0.00  0.00    +0.000 A 
ATOM     28  S   UNL     1      43.675   3.043  12.288  0.00  0.00    +0.000 S 
ATOM     29  C   UNL     1      44.288   3.298  10.721  0.00  0.00    +0.000 A 
ATOM     30  N   UNL     1      44.051   2.406   9.721  0.00  0.00    +0.000 NA
ATOM     31  C   UNL     1      44.598   2.716   8.592  0.00  0.00    +0.000 A 
ATOM     32  N   UNL     1      45.351   3.836   8.370  0.00  0.00    +0.000 N 
ATOM     33  C   UNL     1      45.580   4.787   9.336  0.00  0.00    +0.000 A 
ATOM     34  O   UNL     1      46.194   5.820   9.083  0.00  0.00    +0.000 OA
ATOM     35  C   UNL     1      45.008   4.476  10.633  0.00  0.00    +0.000 A 
ATOM     36  H   UNL     1      45.734   4.034   7.456  0.00  0.00    +0.000 HD
ENDBRANCH  23  26
ENDBRANCH  21  22
ENDBRANCH   4  21
TORSDOF 9
ENDMDL
MODEL 4
REMARK VINA RESULT:    -7.500      3.878      8.352
REMARK INTER + INTRA:         -12.395
REMARK INTER:                 -10.296
REMARK INTRA:                  -2.099
REMARK UNBOUND:                -1.169
REMARK  Name = 
REMARK  9 active torsions:
REMARK  status: ('A' for Active; 'I' for Inactive)
REMARK    1  A    between atoms: C_2  and  OXT_3
REMARK    2  A    between atoms: C_2  and  CA_4
REMARK    3  A    between atoms: C_8  and  C_9
REMARK    4  A    between atoms: C_9  and  N_10
REMARK    5  A    between atoms: N_10  and  C_11
REMARK    6  A    between atoms: C_11  and  C_12
REMARK    7  A    between atoms: C_15  and  C_16
REMARK    8  A    between atoms: C_16  and  N_17
REMARK    9  A    between atoms: C_18  and  C_20
REMARK                            x       y       z     vdW  Elec       q    Type
REMARK                         _______ _______ _______ _____ _____    ______ ____
ROOT
ATOM      1  C   UNL     1      49.745   7.823  18.527  0.00  0.00    +0.000 A 
ATOM      2  C   UNL     1      48.654   8.666  18.264  0.00  0.00    +0.000 A 
ATOM      3  C   UNL     1      48.237   8.922  16.953  0.00  0.00    +0.000 A 
ATOM      4  C   UNL     1      48.906   8.343  15.869  0.00  0.00    +0.000 A 
ATOM      5  C   UNL     1      50.027   7.539  16.126  0.00  0.00    +0.000 A 
ATOM      6  C   UNL     1      50.435   7.271  17.440  0.00  0.00    +0.000 A 
ENDROOT
BRANCH   1   7
ATOM      7  C   UNL     1      50.163   7.543  19.959  0.00  0.00    +0.000 C 
BRANCH   7   8
ATOM      8  N   UNL     1      50.114   6.106  20.244  0.00  0.00    +0.000 NA
ATOM      9  H   UNL     1      50.648   5.614  19.530  0.00  0.00    +0.000 HD
BRANCH   8  10
ATOM     10  C   UNL     1      48.748   5.577  20.231  0.00  0.00    +0.000 C 
BRANCH  10  15
ATOM     11  CA  UNL     1      49.089   3.118  17.454  0.00  0.00    +0.000 A 
ATOM     12  C   UNL     1      47.965   3.324  16.667  0.00  0.00    +0.000 A 
ATOM     13  C   UNL     1      47.057   4.292  17.069  0.00  0.00    +0.000 A 
ATOM     14  C   UNL     1      47.312   5.024  18.228  0.00  0.00    +0.000 A 
ATOM     15  C   UNL     1      48.463   4.754  18.977  0.00  0.00    +0.000 A 
ATOM     16  N   UNL     1      49.362   3.796  18.613  0.00  0.00    +0.000 NA
BRANCH  11  18
ATOM     17  O   UNL     1      50.101   1.558  15.929  0.00  0.00    +0.000 OA
ATOM     18  C   UNL     1      50.106   2.119  17.009  0.00  0.00    +0.000 C 
BRANCH  18  19
ATOM     19  OXT UNL     1      51.050   1.923  17.963  0.00  0.00    +0.000 OA
ATOM     20  HXT UNL     1      50.867   2.527  18.718  0.00  0.00    +0.000 HD
ENDBRANCH  18  19
ENDBRANCH  11  18
ENDBRANCH  10  15
ENDBRANCH   8  10
ENDBRANCH   7   8
ENDBRANCH   1   7
BRANCH   4  21
ATOM     21  C   UNL     1      48.436   8.574  14.455  0.00  0.00    +0.000 C 
BRANCH  21  22
ATOM     22  N   UNL     1      47.416   7.638  14.054  0.00  0.00    +0.000 N 
ATOM     23  C   UNL     1      47.711   6.548  13.277  0.00  0.00    +0.000 C 
ATOM     24  O   UNL     1      48.855   6.291  12.911  0.00  0.00    +0.000 OA
ATOM     25  H   UNL     1      46.449   7.938  14.156  0.00  0.00    +0.000 HD
BRANCH  23  26
ATOM     26  C   UNL     1      46.586   5.653  12.970  0.00  0.00    +0.000 A 
ATOM     27  C   UNL     1      46.669   4.302  13.277  0.00  0.00    +0.000 A 
ATOM     28  S   UNL     1      45.252   3.428  12.897  0.00  0.00    +0.000 S 
ATOM     29  C   UNL     1      44.498   4.817  12.262  0.00  0.00    +0.000 A 
ATOM     30  N   UNL     1      43.245   4.756  11.735  0.00  0.00    +0.000 NA
ATOM     31  C   UNL     1      42.810   5.880  11.269  0.00  0.00    +0.000 A 
ATOM     32  N   UNL     1      43.509   7.056  11.285  0.00  0.00    +0.000 N 
ATOM     33  C   UNL     1      44.759   7.175  11.845  0.00  0.00    +0.000 A 
ATOM     34  O   UNL     1      45.326   8.261  11.914  0.00  0.00    +0.000 OA
ATOM     35  C   UNL     1      45.306   5.936  12.364  0.00  0.00    +0.000 A 
ATOM     36  H   UNL     1      43.103   7.908  10.923  0.00  0.00    +0.000 HD
ENDBRANCH  23  26
ENDBRANCH  21  22
ENDBRANCH   4  21
TORSDOF 9
ENDMDL
MODEL 5
REMARK VINA RESULT:    -7.144      3.875      8.320
REMARK INTER + INTRA:         -11.863
REMARK INTER:                  -9.540
REMARK INTRA:                  -2.322
REMARK UNBOUND:                -1.169
REMARK  Name = 
REMARK  9 active torsions:
REMARK  status: ('A' for Active; 'I' for Inactive)
REMARK    1  A    between atoms: C_2  and  OXT_3
REMARK    2  A    between atoms: C_2  and  CA_4
REMARK    3  A    between atoms: C_8  and  C_9
REMARK    4  A    between atoms: C_9  and  N_10
REMARK    5  A    between atoms: N_10  and  C_11
REMARK    6  A    between atoms: C_11  and  C_12
REMARK    7  A    between atoms: C_15  and  C_16
REMARK    8  A    between atoms: C_16  and  N_17
REMARK    9  A    between atoms: C_18  and  C_20
REMARK                            x       y       z     vdW  Elec       q    Type
REMARK                         _______ _______ _______ _____ _____    ______ ____
ROOT
ATOM      1  C   UNL     1      49.240   8.191  18.862  0.00  0.00    +0.000 A 
ATOM      2  C   UNL     1      48.208   9.112  18.623  0.00  0.00    +0.000 A 
ATOM      3  C   UNL     1      47.861   9.487  17.321  0.00  0.00    +0.000 A 
ATOM      4  C   UNL     1      48.543   8.954  16.222  0.00  0.00    +0.000 A 
ATOM      5  C   UNL     1      49.607   8.072  16.458  0.00  0.00    +0.000 A 
ATOM      6  C   UNL     1      49.945   7.683  17.763  0.00  0.00    +0.000 A 
ENDROOT
BRANCH   1   7
ATOM      7  C   UNL     1      49.582   7.782  20.283  0.00  0.00    +0.000 C 
BRANCH   7   8
ATOM      8  N   UNL     1      48.716   6.689  20.732  0.00  0.00    +0.000 NA
ATOM      9  H   UNL     1      48.275   6.960  21.609  0.00  0.00    +0.000 HD
BRANCH   8  10
ATOM     10  C   UNL     1      49.455   5.445  20.965  0.00  0.00    +0.000 C 
BRANCH  10  15
ATOM     11  CA  UNL     1      49.026   3.578  17.770  0.00  0.00    +0.000 A 
ATOM     12  C   UNL     1      50.319   3.305  17.349  0.00  0.00    +0.000 A 
ATOM     13  C   UNL     1      51.368   3.763  18.133  0.00  0.00    +0.000 A 
ATOM     14  C   UNL     1      51.087   4.458  19.308  0.00  0.00    +0.000 A 
ATOM     15  C   UNL     1      49.756   4.705  19.664  0.00  0.00    +0.000 A 
ATOM     16  N   UNL     1      48.707   4.282  18.902  0.00  0.00    +0.000 NA
BRANCH  11  18
ATOM     17  O   UNL     1      46.737   2.953  17.374  0.00  0.00    +0.000 OA
ATOM     18  C   UNL     1      47.881   3.048  16.970  0.00  0.00    +0.000 C 
BRANCH  18  19
ATOM     19  OXT UNL     1      48.278   2.692  15.723  0.00  0.00    +0.000 OA
ATOM     20  HXT UNL     1      48.839   1.886  15.788  0.00  0.00    +0.000 HD
ENDBRANCH  18  19
ENDBRANCH  11  18
ENDBRANCH  10  15
ENDBRANCH   8  10
ENDBRANCH   7   8
ENDBRANCH   1   7
BRANCH   4  21
ATOM     21  C   UNL     1      48.146   9.316  14.812  0.00  0.00    +0.000 C 
BRANCH  21  22
ATOM     22  N   UNL     1      47.190   8.392  14.255  0.00  0.00    +0.000 N 
ATOM     23  C   UNL     1      47.061   8.226  12.901  0.00  0.00    +0.000 C 
ATOM     24  O   UNL     1      47.767   8.826  12.094  0.00  0.00    +0.000 OA
ATOM     25  H   UNL     1      46.459   8.055  14.877  0.00  0.00    +0.000 HD
BRANCH  23  26
ATOM     26  C   UNL     1      46.074   7.227  12.466  0.00  0.00    +0.000 A 
ATOM     27  C   UNL     1      44.969   7.618  11.723  0.00  0.00    +0.000 A 
ATOM     28  S   UNL     1      43.962   6.318  11.263  0.00  0.00    +0.000 S 
ATOM     29  C   UNL     1      44.942   5.194  12.086  0.00  0.00    +0.000 A 
ATOM     30  N   UNL     1      44.623   3.871  12.110  0.00  0.00    +0.000 NA
ATOM     31  C   UNL     1      45.442   3.140  12.791  0.00  0.00    +0.000 A 
ATOM     32  N   UNL     1      46.549   3.608  13.444  0.00  0.00    +0.000 N 
ATOM     33  C   UNL     1      46.935   4.927  13.412  0.00  0.00    +0.000 A 
ATOM     34  O   UNL     1      47.977   5.301  13.942  0.00  0.00    +0.000 OA
ATOM     35  C   UNL     1      46.036   5.798  12.679  0.00  0.00    +0.000 A 
ATOM     36  H   UNL     1      47.164   2.980  13.943  0.00  0.00    +0.000 HD
ENDBRANCH  23  26
ENDBRANCH  21  22
ENDBRANCH   4  21
TORSDOF 9
ENDMDL
MODEL 6
REMARK VINA RESULT:    -7.016      3.815      8.265
REMARK INTER + INTRA:         -11.672
REMARK INTER:                  -9.207
REMARK INTRA:                  -2.464
REMARK UNBOUND:                -1.169
REMARK  Name = 
REMARK  9 active torsions:
REMARK  status: ('A' for Active; 'I' for Inactive)
REMARK    1  A    between atoms: C_2  and  OXT_3
REMARK    2  A    between atoms: C_2  and  CA_4
REMARK    3  A    between atoms: C_8  and  C_9
REMARK    4  A    between atoms: C_9  and  N_10
REMARK    5  A    between atoms: N_10  and  C_11
REMARK    6  A    between atoms: C_11  and  C_12
REMARK    7  A    between atoms: C_15  and  C_16
REMARK    8  A    between atoms: C_16  and  N_17
REMARK    9  A    between atoms: C_18  and  C_20
REMARK                            x       y       z     vdW  Elec       q    Type
REMARK                         _______ _______ _______ _____ _____    ______ ____
ROOT
ATOM      1  C   UNL     1      52.054   7.373  16.476  0.00  0.00    +0.000 A 
ATOM      2  C   UNL     1      51.215   7.901  17.470  0.00  0.00    +0.000 A 
ATOM      3  C   UNL     1      50.005   8.520  17.141  0.00  0.00    +0.000 A 
ATOM      4  C   UNL     1      49.605   8.634  15.805  0.00  0.00    +0.000 A 
ATOM      5  C   UNL     1      50.463   8.152  14.805  0.00  0.00    +0.000 A 
ATOM      6  C   UNL     1      51.669   7.517  15.136  0.00  0.00    +0.000 A 
ENDROOT
BRANCH   1   7
ATOM      7  C   UNL     1      53.351   6.685  16.860  0.00  0.00    +0.000 C 
BRANCH   7   8
ATOM      8  N   UNL     1      53.155   5.820  18.026  0.00  0.00    +0.000 NA
ATOM      9  H   UNL     1      54.056   5.668  18.476  0.00  0.00    +0.000 HD
BRANCH   8  10
ATOM     10  C   UNL     1      52.604   4.510  17.668  0.00  0.00    +0.000 C 
BRANCH  10  15
ATOM     11  CA  UNL     1      48.973   3.684  17.769  0.00  0.00    +0.000 A 
ATOM     12  C   UNL     1      48.555   4.104  19.023  0.00  0.00    +0.000 A 
ATOM     13  C   UNL     1      49.500   4.664  19.870  0.00  0.00    +0.000 A 
ATOM     14  C   UNL     1      50.816   4.796  19.429  0.00  0.00    +0.000 A 
ATOM     15  C   UNL     1      51.167   4.340  18.153  0.00  0.00    +0.000 A 
ATOM     16  N   UNL     1      50.261   3.769  17.308  0.00  0.00    +0.000 NA
BRANCH  11  18
ATOM     17  O   UNL     1      46.755   3.212  16.967  0.00  0.00    +0.000 OA
ATOM     18  C   UNL     1      47.961   3.128  16.821  0.00  0.00    +0.000 C 
BRANCH  18  19
ATOM     19  OXT UNL     1      48.558   2.524  15.765  0.00  0.00    +0.000 OA
ATOM     20  HXT UNL     1      49.370   3.028  15.530  0.00  0.00    +0.000 HD
ENDBRANCH  18  19
ENDBRANCH  11  18
ENDBRANCH  10  15
ENDBRANCH   8  10
ENDBRANCH   7   8
ENDBRANCH   1   7
BRANCH   4  21
ATOM     21  C   UNL     1      48.280   9.257  15.442  0.00  0.00    +0.000 C 
BRANCH  21  22
ATOM     22  N   UNL     1      47.404   8.335  14.765  0.00  0.00    +0.000 N 
ATOM     23  C   UNL     1      47.170   8.427  13.418  0.00  0.00    +0.000 C 
ATOM     24  O   UNL     1      47.715   9.273  12.713  0.00  0.00    +0.000 OA
ATOM     25  H   UNL     1      46.784   7.776  15.347  0.00  0.00    +0.000 HD
BRANCH  23  26
ATOM     26  C   UNL     1      46.285   7.402  12.846  0.00  0.00    +0.000 A 
ATOM     27  C   UNL     1      45.237   7.773  12.016  0.00  0.00    +0.000 A 
ATOM     28  S   UNL     1      44.350   6.449  11.404  0.00  0.00    +0.000 S 
ATOM     29  C   UNL     1      45.304   5.337  12.270  0.00  0.00    +0.000 A 
ATOM     30  N   UNL     1      45.056   4.000  12.207  0.00  0.00    +0.000 NA
ATOM     31  C   UNL     1      45.844   3.278  12.934  0.00  0.00    +0.000 A 
ATOM     32  N   UNL     1      46.857   3.768  13.711  0.00  0.00    +0.000 N 
ATOM     33  C   UNL     1      47.173   5.105  13.773  0.00  0.00    +0.000 A 
ATOM     34  O   UNL     1      48.138   5.504  14.419  0.00  0.00    +0.000 OA
ATOM     35  C   UNL     1      46.303   5.965  12.993  0.00  0.00    +0.000 A 
ATOM     36  H   UNL     1      47.454   3.148  14.241  0.00  0.00    +0.000 HD
ENDBRANCH  23  26
ENDBRANCH  21  22
ENDBRANCH   4  21
TORSDOF 9
ENDMDL
MODEL 7
REMARK VINA RESULT:    -6.727      1.851      2.446
REMARK INTER + INTRA:         -11.239
REMARK INTER:                 -10.312
REMARK INTRA:                  -0.927
REMARK UNBOUND:                -1.169
REMARK  Name = 
REMARK  9 active torsions:
REMARK  status: ('A' for Active; 'I' for Inactive)
REMARK    1  A    between atoms: C_2  and  OXT_3
REMARK    2  A    between atoms: C_2  and  CA_4
REMARK    3  A    between atoms: C_8  and  C_9
REMARK    4  A    between atoms: C_9  and  N_10
REMARK    5  A    between atoms: N_10  and  C_11
REMARK    6  A    between atoms: C_11  and  C_12
REMARK    7  A    between atoms: C_15  and  C_16
REMARK    8  A    between atoms: C_16  and  N_17
REMARK    9  A    between atoms: C_18  and  C_20
REMARK                            x       y       z     vdW  Elec       q    Type
REMARK                         _______ _______ _______ _____ _____    ______ ____
ROOT
ATOM      1  C   UNL     1      45.216   7.184  11.941  0.00  0.00    +0.000 A 
ATOM      2  C   UNL     1      46.239   6.339  12.396  0.00  0.00    +0.000 A 
ATOM      3  C   UNL     1      47.363   6.852  13.052  0.00  0.00    +0.000 A 
ATOM      4  C   UNL     1      47.495   8.229  13.265  0.00  0.00    +0.000 A 
ATOM      5  C   UNL     1      46.498   9.081  12.768  0.00  0.00    +0.000 A 
ATOM      6  C   UNL     1      45.364   8.566  12.124  0.00  0.00    +0.000 A 
ENDROOT
BRANCH   1   7
ATOM      7  C   UNL     1      43.995   6.601  11.253  0.00  0.00    +0.000 C 
BRANCH   7   8
ATOM      8  N   UNL     1      44.294   5.279  10.696  0.00  0.00    +0.000 NA
ATOM      9  H   UNL     1      44.852   4.759  11.371  0.00  0.00    +0.000 HD
BRANCH   8  10
ATOM     10  C   UNL     1      45.054   5.354   9.445  0.00  0.00    +0.000 C 
BRANCH  10  15
ATOM     11  CA  UNL     1      46.580   2.631   7.412  0.00  0.00    +0.000 A 
ATOM     12  C   UNL     1      46.033   1.464   7.926  0.00  0.00    +0.000 A 
ATOM     13  C   UNL     1      45.146   1.574   8.986  0.00  0.00    +0.000 A 
ATOM     14  C   UNL     1      44.827   2.838   9.479  0.00  0.00    +0.000 A 
ATOM     15  C   UNL     1      45.426   3.971   8.916  0.00  0.00    +0.000 A 
ATOM     16  N   UNL     1      46.315   3.889   7.885  0.00  0.00    +0.000 NA
BRANCH  11  18
ATOM     17  O   UNL     1      48.339   1.677   6.077  0.00  0.00    +0.000 OA
ATOM     18  C   UNL     1      47.496   2.540   6.235  0.00  0.00    +0.000 C 
BRANCH  18  19
ATOM     19  OXT UNL     1      47.261   3.542   5.353  0.00  0.00    +0.000 OA
ATOM     20  HXT UNL     1      47.265   4.399   5.838  0.00  0.00    +0.000 HD
ENDBRANCH  18  19
ENDBRANCH  11  18
ENDBRANCH  10  15
ENDBRANCH   8  10
ENDBRANCH   7   8
ENDBRANCH   1   7
BRANCH   4  21
ATOM     21  C   UNL     1      48.679   8.788  14.013  0.00  0.00    +0.000 C 
BRANCH  21  22
ATOM     22  N   UNL     1      48.890   8.134  15.279  0.00  0.00    +0.000 N 
ATOM     23  C   UNL     1      50.085   7.537  15.586  0.00  0.00    +0.000 C 
ATOM     24  O   UNL     1      51.045   7.554  14.820  0.00  0.00    +0.000 OA
ATOM     25  H   UNL     1      48.062   7.918  15.830  0.00  0.00    +0.000 HD
BRANCH  23  26
ATOM     26  C   UNL     1      50.180   6.937  16.925  0.00  0.00    +0.000 A 
ATOM     27  C   UNL     1      51.042   7.477  17.869  0.00  0.00    +0.000 A 
ATOM     28  S   UNL     1      50.981   6.684  19.380  0.00  0.00    +0.000 S 
ATOM     29  C   UNL     1      49.838   5.560  18.808  0.00  0.00    +0.000 A 
ATOM     30  N   UNL     1      49.367   4.567  19.612  0.00  0.00    +0.000 NA
ATOM     31  C   UNL     1      48.524   3.774  19.037  0.00  0.00    +0.000 A 
ATOM     32  N   UNL     1      48.105   3.885  17.740  0.00  0.00    +0.000 N 
ATOM     33  C   UNL     1      48.519   4.896  16.904  0.00  0.00    +0.000 A 
ATOM     34  O   UNL     1      48.064   5.014  15.770  0.00  0.00    +0.000 OA
ATOM     35  C   UNL     1      49.487   5.803  17.492  0.00  0.00    +0.000 A 
ATOM     36  H   UNL     1      47.425   3.245  17.355  0.00  0.00    +0.000 HD
ENDBRANCH  23  26
ENDBRANCH  21  22
ENDBRANCH   4  21
TORSDOF 9
ENDMDL
MODEL 8
REMARK VINA RESULT:    -6.594      5.333      6.822
REMARK INTER + INTRA:         -11.040
REMARK INTER:                 -10.075
REMARK INTRA:                  -0.965
REMARK UNBOUND:                -1.169
REMARK  Name = 
REMARK  9 active torsions:
REMARK  status: ('A' for Active; 'I' for Inactive)
REMARK    1  A    between atoms: C_2  and  OXT_3
REMARK    2  A    between atoms: C_2  and  CA_4
REMARK    3  A    between atoms: C_8  and  C_9
REMARK    4  A    between atoms: C_9  and  N_10
REMARK    5  A    between atoms: N_10  and  C_11
REMARK    6  A    between atoms: C_11  and  C_12
REMARK    7  A    between atoms: C_15  and  C_16
REMARK    8  A    between atoms: C_16  and  N_17
REMARK    9  A    between atoms: C_18  and  C_20
REMARK                            x       y       z     vdW  Elec       q    Type
REMARK                         _______ _______ _______ _____ _____    ______ ____
ROOT
ATOM      1  C   UNL     1      47.237   8.661  12.400  0.00  0.00    +0.000 A 
ATOM      2  C   UNL     1      47.926   7.441  12.477  0.00  0.00    +0.000 A 
ATOM      3  C   UNL     1      49.299   7.367  12.219  0.00  0.00    +0.000 A 
ATOM      4  C   UNL     1      50.019   8.515  11.869  0.00  0.00    +0.000 A 
ATOM      5  C   UNL     1      49.325   9.728  11.742  0.00  0.00    +0.000 A 
ATOM      6  C   UNL     1      47.951   9.804  12.017  0.00  0.00    +0.000 A 
ENDROOT
BRANCH   1   7
ATOM      7  C   UNL     1      45.753   8.719  12.708  0.00  0.00    +0.000 C 
BRANCH   7   8
ATOM      8  N   UNL     1      45.187   7.369  12.795  0.00  0.00    +0.000 NA
ATOM      9  H   UNL     1      45.948   6.703  12.910  0.00  0.00    +0.000 HD
BRANCH   8  10
ATOM     10  C   UNL     1      44.438   6.995  11.592  0.00  0.00    +0.000 C 
BRANCH  10  15
ATOM     11  CA  UNL     1      44.264   3.502  10.311  0.00  0.00    +0.000 A 
ATOM     12  C   UNL     1      43.703   2.776  11.351  0.00  0.00    +0.000 A 
ATOM     13  C   UNL     1      43.384   3.453  12.519  0.00  0.00    +0.000 A 
ATOM     14  C   UNL     1      43.623   4.825  12.597  0.00  0.00    +0.000 A 
ATOM     15  C   UNL     1      44.202   5.489  11.509  0.00  0.00    +0.000 A 
ATOM     16  N   UNL     1      44.540   4.843  10.357  0.00  0.00    +0.000 NA
BRANCH  11  18
ATOM     17  O   UNL     1      44.686   3.355   7.947  0.00  0.00    +0.000 OA
ATOM     18  C   UNL     1      44.564   2.803   9.025  0.00  0.00    +0.000 C 
BRANCH  18  19
ATOM     19  OXT UNL     1      44.693   1.466   9.212  0.00  0.00    +0.000 OA
ATOM     20  HXT UNL     1      44.185   1.208  10.015  0.00  0.00    +0.000 HD
ENDBRANCH  18  19
ENDBRANCH  11  18
ENDBRANCH  10  15
ENDBRANCH   8  10
ENDBRANCH   7   8
ENDBRANCH   1   7
BRANCH   4  21
ATOM     21  C   UNL     1      51.508   8.456  11.635  0.00  0.00    +0.000 C 
BRANCH  21  22
ATOM     22  N   UNL     1      51.838   8.042  10.295  0.00  0.00    +0.000 N 
ATOM     23  C   UNL     1      52.869   8.620   9.601  0.00  0.00    +0.000 C 
ATOM     24  O   UNL     1      53.582   9.493  10.089  0.00  0.00    +0.000 OA
ATOM     25  H   UNL     1      51.143   7.490   9.798  0.00  0.00    +0.000 HD
BRANCH  23  26
ATOM     26  C   UNL     1      53.124   8.080   8.258  0.00  0.00    +0.000 A 
ATOM     27  C   UNL     1      53.045   8.910   7.148  0.00  0.00    +0.000 A 
ATOM     28  S   UNL     1      53.423   8.124   5.681  0.00  0.00    +0.000 S 
ATOM     29  C   UNL     1      53.653   6.634   6.472  0.00  0.00    +0.000 A 
ATOM     30  N   UNL     1      53.980   5.512   5.775  0.00  0.00    +0.000 NA
ATOM     31  C   UNL     1      54.099   4.451   6.502  0.00  0.00    +0.000 A 
ATOM     32  N   UNL     1      53.927   4.409   7.858  0.00  0.00    +0.000 N 
ATOM     33  C   UNL     1      53.641   5.525   8.610  0.00  0.00    +0.000 A 
ATOM     34  O   UNL     1      53.571   5.469   9.835  0.00  0.00    +0.000 OA
ATOM     35  C   UNL     1      53.472   6.742   7.840  0.00  0.00    +0.000 A 
ATOM     36  H   UNL     1      54.057   3.550   8.374  0.00  0.00    +0.000 HD
ENDBRANCH  23  26
ENDBRANCH  21  22
ENDBRANCH   4  21
TORSDOF 9
ENDMDL
MODEL 9
REMARK VINA RESULT:    -6.574      3.376      4.516
REMARK INTER + INTRA:         -11.010
REMARK INTER:                  -8.923
REMARK INTRA:                  -2.087
REMARK UNBOUND:                -1.169
REMARK  Name = 
REMARK  9 active torsions:
REMARK  status: ('A' for Active; 'I' for Inactive)
REMARK    1  A    between atoms: C_2  and  OXT_3
REMARK    2  A    between atoms: C_2  and  CA_4
REMARK    3  A    between atoms: C_8  and  C_9
REMARK    4  A    between atoms: C_9  and  N_10
REMARK    5  A    between atoms: N_10  and  C_11
REMARK    6  A    between atoms: C_11  and  C_12
REMARK    7  A    between atoms: C_15  and  C_16
REMARK    8  A    between atoms: C_16  and  N_17
REMARK    9  A    between atoms: C_18  and  C_20
REMARK                            x       y       z     vdW  Elec       q    Type
REMARK                         _______ _______ _______ _____ _____    ______ ____
ROOT
ATOM      1  C   UNL     1      47.128   9.627  12.496  0.00  0.00    +0.000 A 
ATOM      2  C   UNL     1      47.282   8.975  13.729  0.00  0.00    +0.000 A 
ATOM      3  C   UNL     1      48.549   8.633  14.214  0.00  0.00    +0.000 A 
ATOM      4  C   UNL     1      49.697   8.930  13.472  0.00  0.00    +0.000 A 
ATOM      5  C   UNL     1      49.545   9.537  12.217  0.00  0.00    +0.000 A 
ATOM      6  C   UNL     1      48.276   9.893  11.738  0.00  0.00    +0.000 A 
ENDROOT
BRANCH   1   7
ATOM      7  C   UNL     1      45.745  10.008  12.002  0.00  0.00    +0.000 C 
BRANCH   7   8
ATOM      8  N   UNL     1      44.754   9.008  12.409  0.00  0.00    +0.000 NA
ATOM      9  H   UNL     1      45.119   8.491  13.207  0.00  0.00    +0.000 HD
BRANCH   8  10
ATOM     10  C   UNL     1      44.457   8.045  11.346  0.00  0.00    +0.000 C 
BRANCH  10  15
ATOM     11  CA  UNL     1      45.577   4.929  13.052  0.00  0.00    +0.000 A 
ATOM     12  C   UNL     1      44.643   3.973  12.680  0.00  0.00    +0.000 A 
ATOM     13  C   UNL     1      43.602   4.368  11.854  0.00  0.00    +0.000 A 
ATOM     14  C   UNL     1      43.542   5.691  11.420  0.00  0.00    +0.000 A 
ATOM     15  C   UNL     1      44.515   6.603  11.845  0.00  0.00    +0.000 A 
ATOM     16  N   UNL     1      45.538   6.245  12.671  0.00  0.00    +0.000 NA
BRANCH  11  18
ATOM     17  O   UNL     1      46.687   3.673  14.777  0.00  0.00    +0.000 OA
ATOM     18  C   UNL     1      46.736   4.512  13.898  0.00  0.00    +0.000 C 
BRANCH  18  19
ATOM     19  OXT UNL     1      47.861   5.185  13.552  0.00  0.00    +0.000 OA
ATOM     20  HXT UNL     1      47.795   5.447  12.605  0.00  0.00    +0.000 HD
ENDBRANCH  18  19
ENDBRANCH  11  18
ENDBRANCH  10  15
ENDBRANCH   8  10
ENDBRANCH   7   8
ENDBRANCH   1   7
BRANCH   4  21
ATOM     21  C   UNL     1      51.071   8.609  14.008  0.00  0.00    +0.000 C 
BRANCH  21  22
ATOM     22  N   UNL     1      51.089   7.398  14.787  0.00  0.00    +0.000 N 
ATOM     23  C   UNL     1      51.605   7.371  16.056  0.00  0.00    +0.000 C 
ATOM     24  O   UNL     1      52.048   8.376  16.607  0.00  0.00    +0.000 OA
ATOM     25  H   UNL     1      50.935   6.525  14.287  0.00  0.00    +0.000 HD
BRANCH  23  26
ATOM     26  C   UNL     1      51.530   6.080  16.755  0.00  0.00    +0.000 A 
ATOM     27  C   UNL     1      52.690   5.455  17.189  0.00  0.00    +0.000 A 
ATOM     28  S   UNL     1      52.406   3.994  18.026  0.00  0.00    +0.000 S 
ATOM     29  C   UNL     1      50.725   4.120  17.790  0.00  0.00    +0.000 A 
ATOM     30  N   UNL     1      49.878   3.160  18.251  0.00  0.00    +0.000 NA
ATOM     31  C   UNL     1      48.633   3.375  17.980  0.00  0.00    +0.000 A 
ATOM     32  N   UNL     1      48.158   4.461  17.296  0.00  0.00    +0.000 N 
ATOM     33  C   UNL     1      48.970   5.477  16.850  0.00  0.00    +0.000 A 
ATOM     34  O   UNL     1      48.504   6.476  16.310  0.00  0.00    +0.000 OA
ATOM     35  C   UNL     1      50.383   5.275  17.108  0.00  0.00    +0.000 A 
ATOM     36  H   UNL     1      47.168   4.583  17.135  0.00  0.00    +0.000 HD
ENDBRANCH  23  26
ENDBRANCH  21  22
ENDBRANCH   4  21
TORSDOF 9
ENDMDL
