MODEL 1
REMARK VINA RESULT:    -7.838      0.000      0.000
REMARK INTER + INTRA:          -9.484
REMARK INTER:                  -9.213
REMARK INTRA:                  -0.272
REMARK UNBOUND:                -0.272
REMARK  Name = 
REMARK  3 active torsions:
REMARK  status: ('A' for Active; 'I' for Inactive)
REMARK    1  A    between atoms: C_2  and  C_4
REMARK    2  A    between atoms: N_8  and  C_9
REMARK    3  A    between atoms: C_9  and  C_10
REMARK                            x       y       z     vdW  Elec       q    Type
REMARK                         _______ _______ _______ _____ _____    ______ ____
ROOT
ATOM      1  C   UNL     1      46.338   2.119   7.862  0.00  0.00    +0.000 A 
ATOM      2  C   UNL     1      46.327   3.408   7.344  0.00  0.00    +0.000 A 
ATOM      3  C   UNL     1      45.595   4.397   8.010  0.00  0.00    +0.000 A 
ATOM      4  C   UNL     1      44.926   4.090   9.195  0.00  0.00    +0.000 A 
ATOM      5  N   UNL     1      44.292   5.128   9.877  0.00  0.00    +0.000 N 
ATOM      6  N   UNL     1      44.932   2.840   9.696  0.00  0.00    +0.000 NA
ATOM      7  C   UNL     1      45.600   1.878   9.007  0.00  0.00    +0.000 A 
ATOM      8  H   UNL     1      43.535   5.526   9.328  0.00  0.00    +0.000 HD
ENDROOT
BRANCH   1  10
ATOM      9  N   UNL     1      46.761  -0.261   7.634  0.00  0.00    +0.000 N 
ATOM     10  C   UNL     1      47.101   1.007   7.258  0.00  0.00    +0.000 C 
ATOM     11  O   UNL     1      47.965   1.212   6.415  0.00  0.00    +0.000 OA
ATOM     12  H   UNL     1      47.199  -1.016   7.113  0.00  0.00    +0.000 HD
ATOM     13  H   UNL     1      45.892  -0.469   8.106  0.00  0.00    +0.000 HD
ENDBRANCH   1  10
BRANCH   5  14
ATOM     14  C   UNL     1      43.923   4.903  11.273  0.00  0.00    +0.000 C 
BRANCH  14  15
ATOM     15  C   UNL     1      45.063   4.933  12.261  0.00  0.00    +0.000 A 
ATOM     16  C   UNL     1      45.996   5.964  12.257  0.00  0.00    +0.000 A 
ATOM     17  C   UNL     1      46.961   6.007  13.254  0.00  0.00    +0.000 A 
ATOM     18  C   UNL     1      46.944   5.016  14.212  0.00  0.00    +0.000 A 
ATOM     19  N   UNL     1      46.044   4.013  14.200  0.00  0.00    +0.000 NA
ATOM     20  N   UNL     1      45.097   3.969  13.213  0.00  0.00    +0.000 NA
ENDBRANCH  14  15
ENDBRANCH   5  14
TORSDOF 3
ENDMDL
MODEL 2
REMARK VINA RESULT:    -7.359      2.900      6.388
REMARK INTER + INTRA:          -8.921
REMARK INTER:                  -8.574
REMARK INTRA:                  -0.347
REMARK UNBOUND:                -0.272
REMARK  Name = 
REMARK  3 active torsions:
REMARK  status: ('A' for Active; 'I' for Inactive)
REMARK    1  A    between atoms: C_2  and  C_4
REMARK    2  A    between atoms: N_8  and  C_9
REMARK    3  A    between atoms: C_9  and  C_10
REMARK                            x       y       z     vdW  Elec       q    Type
REMARK                         _______ _______ _______ _____ _____    ______ ____
ROOT
ATOM      1  C   UNL     1      45.310   6.534  12.280  0.00  0.00    +0.000 A 
ATOM      2  C   UNL     1      45.913   5.480  12.957  0.00  0.00    +0.000 A 
ATOM      3  C   UNL     1      45.727   4.178  12.482  0.00  0.00    +0.000 A 
ATOM      4  C   UNL     1      44.981   3.958  11.323  0.00  0.00    +0.000 A 
ATOM      5  N   UNL     1      44.905   2.655  10.831  0.00  0.00    +0.000 N 
ATOM      6  N   UNL     1      44.392   4.977  10.669  0.00  0.00    +0.000 NA
ATOM      7  C   UNL     1      44.535   6.230  11.175  0.00  0.00    +0.000 A 
ATOM      8  H   UNL     1      44.431   2.038  11.484  0.00  0.00    +0.000 HD
ENDROOT
BRANCH   1  10
ATOM      9  N   UNL     1      44.536   8.833  12.207  0.00  0.00    +0.000 N 
ATOM     10  C   UNL     1      45.465   7.949  12.676  0.00  0.00    +0.000 C 
ATOM     11  O   UNL     1      46.357   8.303  13.436  0.00  0.00    +0.000 OA
ATOM     12  H   UNL     1      44.576   9.772  12.594  0.00  0.00    +0.000 HD
ATOM     13  H   UNL     1      43.655   8.533  11.814  0.00  0.00    +0.000 HD
ENDBRANCH   1  10
BRANCH   5  14
ATOM     14  C   UNL     1      44.460   2.472   9.452  0.00  0.00    +0.000 C 
BRANCH  14  15
ATOM     15  C   UNL     1      45.557   2.266   8.435  0.00  0.00    +0.000 A 
ATOM     16  C   UNL     1      46.064   3.328   7.695  0.00  0.00    +0.000 A 
ATOM     17  C   UNL     1      47.146   3.110   6.853  0.00  0.00    +0.000 A 
ATOM     18  C   UNL     1      47.672   1.837   6.794  0.00  0.00    +0.000 A 
ATOM     19  N   UNL     1      47.164   0.811   7.505  0.00  0.00    +0.000 NA
ATOM     20  N   UNL     1      46.094   1.026   8.330  0.00  0.00    +0.000 NA
ENDBRANCH  14  15
ENDBRANCH   5  14
TORSDOF 3
ENDMDL
MODEL 3
REMARK VINA RESULT:    -6.878      1.874      2.375
REMARK INTER + INTRA:          -8.356
REMARK INTER:                  -8.206
REMARK INTRA:                  -0.150
REMARK UNBOUND:                -0.272
REMARK  Name = 
REMARK  3 active torsions:
REMARK  status: ('A' for Active; 'I' for Inactive)
REMARK    1  A    between atoms: C_2  and  C_4
REMARK    2  A    between atoms: N_8  and  C_9
REMARK    3  A    between atoms: C_9  and  C_10
REMARK                            x       y       z     vdW  Elec       q    Type
REMARK                         _______ _______ _______ _____ _____    ______ ____
ROOT
ATOM      1  C   UNL     1      46.499   2.807   7.348  0.00  0.00    +0.000 A 
ATOM      2  C   UNL     1      45.982   1.685   7.984  0.00  0.00    +0.000 A 
ATOM      3  C   UNL     1      45.180   1.861   9.117  0.00  0.00    +0.000 A 
ATOM      4  C   UNL     1      44.879   3.148   9.565  0.00  0.00    +0.000 A 
ATOM      5  N   UNL     1      43.997   3.278  10.637  0.00  0.00    +0.000 N 
ATOM      6  N   UNL     1      45.384   4.236   8.953  0.00  0.00    +0.000 NA
ATOM      7  C   UNL     1      46.207   4.047   7.889  0.00  0.00    +0.000 A 
ATOM      8  H   UNL     1      44.376   2.864  11.484  0.00  0.00    +0.000 HD
ENDROOT
BRANCH   1  10
ATOM      9  N   UNL     1      48.656   2.448   6.292  0.00  0.00    +0.000 N 
ATOM     10  C   UNL     1      47.331   2.738   6.128  0.00  0.00    +0.000 C 
ATOM     11  O   UNL     1      46.842   2.882   5.015  0.00  0.00    +0.000 OA
ATOM     12  H   UNL     1      49.183   2.272   5.441  0.00  0.00    +0.000 HD
ATOM     13  H   UNL     1      49.022   2.064   7.151  0.00  0.00    +0.000 HD
ENDBRANCH   1  10
BRANCH   5  14
ATOM     14  C   UNL     1      43.391   4.587  10.868  0.00  0.00    +0.000 C 
BRANCH  14  15
ATOM     15  C   UNL     1      44.228   5.562  11.660  0.00  0.00    +0.000 A 
ATOM     16  C   UNL     1      45.117   5.125  12.635  0.00  0.00    +0.000 A 
ATOM     17  C   UNL     1      45.944   6.049  13.259  0.00  0.00    +0.000 A 
ATOM     18  C   UNL     1      45.843   7.369  12.875  0.00  0.00    +0.000 A 
ATOM     19  N   UNL     1      44.968   7.785  11.939  0.00  0.00    +0.000 NA
ATOM     20  N   UNL     1      44.150   6.874  11.329  0.00  0.00    +0.000 NA
ENDBRANCH  14  15
ENDBRANCH   5  14
TORSDOF 3
ENDMDL
MODEL 4
REMARK VINA RESULT:    -6.835      3.005      5.107
REMARK INTER + INTRA:          -8.305
REMARK INTER:                  -8.032
REMARK INTRA:                  -0.273
REMARK UNBOUND:                -0.272
REMARK  Name = 
REMARK  3 active torsions:
REMARK  status: ('A' for Active; 'I' for Inactive)
REMARK    1  A    between atoms: C_2  and  C_4
REMARK    2  A    between atoms: N_8  and  C_9
REMARK    3  A    between atoms: C_9  and  C_10
REMARK                            x       y       z     vdW  Elec       q    Type
REMARK                         _______ _______ _______ _____ _____    ______ ____
ROOT
ATOM      1  C   UNL     1      44.915   4.263  11.331  0.00  0.00    +0.000 A 
ATOM      2  C   UNL     1      45.912   5.231  11.306  0.00  0.00    +0.000 A 
ATOM      3  C   UNL     1      46.551   5.572  12.503  0.00  0.00    +0.000 A 
ATOM      4  C   UNL     1      46.212   4.916  13.687  0.00  0.00    +0.000 A 
ATOM      5  N   UNL     1      46.942   5.218  14.836  0.00  0.00    +0.000 N 
ATOM      6  N   UNL     1      45.242   3.982  13.713  0.00  0.00    +0.000 NA
ATOM      7  C   UNL     1      44.592   3.702  12.554  0.00  0.00    +0.000 A 
ATOM      8  H   UNL     1      46.818   6.188  15.112  0.00  0.00    +0.000 HD
ENDROOT
BRANCH   1  10
ATOM      9  N   UNL     1      43.941   4.737   9.158  0.00  0.00    +0.000 N 
ATOM     10  C   UNL     1      44.198   3.805  10.123  0.00  0.00    +0.000 C 
ATOM     11  O   UNL     1      43.894   2.629   9.971  0.00  0.00    +0.000 OA
ATOM     12  H   UNL     1      43.571   4.383   8.281  0.00  0.00    +0.000 HD
ATOM     13  H   UNL     1      44.409   5.632   9.134  0.00  0.00    +0.000 HD
ENDBRANCH   1  10
BRANCH   5  14
ATOM     14  C   UNL     1      46.858   4.292  15.962  0.00  0.00    +0.000 C 
BRANCH  14  15
ATOM     15  C   UNL     1      48.149   3.611  16.345  0.00  0.00    +0.000 A 
ATOM     16  C   UNL     1      48.910   4.058  17.419  0.00  0.00    +0.000 A 
ATOM     17  C   UNL     1      50.031   3.334  17.801  0.00  0.00    +0.000 A 
ATOM     18  C   UNL     1      50.336   2.192  17.091  0.00  0.00    +0.000 A 
ATOM     19  N   UNL     1      49.600   1.775  16.042  0.00  0.00    +0.000 NA
ATOM     20  N   UNL     1      48.498   2.493  15.663  0.00  0.00    +0.000 NA
ENDBRANCH  14  15
ENDBRANCH   5  14
TORSDOF 3
ENDMDL
MODEL 5
REMARK VINA RESULT:    -6.432      2.749      6.164
REMARK INTER + INTRA:          -7.832
REMARK INTER:                  -7.602
REMARK INTRA:                  -0.230
REMARK UNBOUND:                -0.272
REMARK  Name = 
REMARK  3 active torsions:
REMARK  status: ('A' for Active; 'I' for Inactive)
REMARK    1  A    between atoms: C_2  and  C_4
REMARK    2  A    between atoms: N_8  and  C_9
REMARK    3  A    between atoms: C_9  and  C_10
REMARK                            x       y       z     vdW  Elec       q    Type
REMARK                         _______ _______ _______ _____ _____    ______ ____
ROOT
ATOM      1  C   UNL     1      47.058   5.051  14.273  0.00  0.00    +0.000 A 
ATOM      2  C   UNL     1      47.017   6.336  13.746  0.00  0.00    +0.000 A 
ATOM      3  C   UNL     1      46.458   6.528  12.478  0.00  0.00    +0.000 A 
ATOM      4  C   UNL     1      45.916   5.446  11.783  0.00  0.00    +0.000 A 
ATOM      5  N   UNL     1      45.281   5.700  10.568  0.00  0.00    +0.000 N 
ATOM      6  N   UNL     1      45.959   4.200  12.291  0.00  0.00    +0.000 NA
ATOM      7  C   UNL     1      46.557   4.020  13.498  0.00  0.00    +0.000 A 
ATOM      8  H   UNL     1      45.930   6.065   9.878  0.00  0.00    +0.000 HD
ENDROOT
BRANCH   1  10
ATOM      9  N   UNL     1      46.859   3.906  16.404  0.00  0.00    +0.000 N 
ATOM     10  C   UNL     1      47.597   4.739  15.613  0.00  0.00    +0.000 C 
ATOM     11  O   UNL     1      48.685   5.166  15.977  0.00  0.00    +0.000 OA
ATOM     12  H   UNL     1      47.303   3.594  17.263  0.00  0.00    +0.000 HD
ATOM     13  H   UNL     1      46.112   3.334  16.037  0.00  0.00    +0.000 HD
ENDBRANCH   1  10
BRANCH   5  14
ATOM     14  C   UNL     1      44.401   4.666  10.029  0.00  0.00    +0.000 C 
BRANCH  14  15
ATOM     15  C   UNL     1      45.055   3.671   9.102  0.00  0.00    +0.000 A 
ATOM     16  C   UNL     1      45.756   4.086   7.975  0.00  0.00    +0.000 A 
ATOM     17  C   UNL     1      46.433   3.143   7.215  0.00  0.00    +0.000 A 
ATOM     18  C   UNL     1      46.379   1.826   7.620  0.00  0.00    +0.000 A 
ATOM     19  N   UNL     1      45.686   1.432   8.707  0.00  0.00    +0.000 NA
ATOM     20  N   UNL     1      45.014   2.362   9.452  0.00  0.00    +0.000 NA
ENDBRANCH  14  15
ENDBRANCH   5  14
TORSDOF 3
ENDMDL
MODEL 6
REMARK VINA RESULT:    -6.367      3.363      6.774
REMARK INTER + INTRA:          -7.756
REMARK INTER:                  -7.513
REMARK INTRA:                  -0.243
REMARK UNBOUND:                -0.272
REMARK  Name = 
REMARK  3 active torsions:
REMARK  status: ('A' for Active; 'I' for Inactive)
REMARK    1  A    between atoms: C_2  and  C_4
REMARK    2  A    between atoms: N_8  and  C_9
REMARK    3  A    between atoms: C_9  and  C_10
REMARK                            x       y       z     vdW  Elec       q    Type
REMARK                         _______ _______ _______ _____ _____    ______ ____
ROOT
ATOM      1  C   UNL     1      47.131   7.863  13.427  0.00  0.00    +0.000 A 
ATOM      2  C   UNL     1      46.179   8.662  12.805  0.00  0.00    +0.000 A 
ATOM      3  C   UNL     1      45.336   8.087  11.848  0.00  0.00    +0.000 A 
ATOM      4  C   UNL     1      45.431   6.725  11.562  0.00  0.00    +0.000 A 
ATOM      5  N   UNL     1      44.507   6.175  10.676  0.00  0.00    +0.000 N 
ATOM      6  N   UNL     1      46.357   5.950  12.160  0.00  0.00    +0.000 NA
ATOM      7  C   UNL     1      47.206   6.535  13.046  0.00  0.00    +0.000 A 
ATOM      8  H   UNL     1      44.601   6.572   9.746  0.00  0.00    +0.000 HD
ENDROOT
BRANCH   1  10
ATOM      9  N   UNL     1      47.506   9.106  15.478  0.00  0.00    +0.000 N 
ATOM     10  C   UNL     1      48.050   8.359  14.472  0.00  0.00    +0.000 C 
ATOM     11  O   UNL     1      49.239   8.067  14.465  0.00  0.00    +0.000 OA
ATOM     12  H   UNL     1      48.122   9.324  16.257  0.00  0.00    +0.000 HD
ATOM     13  H   UNL     1      46.512   9.131  15.655  0.00  0.00    +0.000 HD
ENDBRANCH   1  10
BRANCH   5  14
ATOM     14  C   UNL     1      44.357   4.722  10.659  0.00  0.00    +0.000 C 
BRANCH  14  15
ATOM     15  C   UNL     1      45.116   4.000   9.573  0.00  0.00    +0.000 A 
ATOM     16  C   UNL     1      45.146   2.611   9.513  0.00  0.00    +0.000 A 
ATOM     17  C   UNL     1      45.763   1.994   8.435  0.00  0.00    +0.000 A 
ATOM     18  C   UNL     1      46.320   2.797   7.462  0.00  0.00    +0.000 A 
ATOM     19  N   UNL     1      46.298   4.142   7.536  0.00  0.00    +0.000 NA
ATOM     20  N   UNL     1      45.694   4.749   8.603  0.00  0.00    +0.000 NA
ENDBRANCH  14  15
ENDBRANCH   5  14
TORSDOF 3
ENDMDL
MODEL 7
REMARK VINA RESULT:    -5.679      5.175      6.858
REMARK INTER + INTRA:          -6.947
REMARK INTER:                  -6.807
REMARK INTRA:                  -0.140
REMARK UNBOUND:                -0.272
REMARK  Name = 
REMARK  3 active torsions:
REMARK  status: ('A' for Active; 'I' for Inactive)
REMARK    1  A    between atoms: C_2  and  C_4
REMARK    2  A    between atoms: N_8  and  C_9
REMARK    3  A    between atoms: C_9  and  C_10
REMARK                            x       y       z     vdW  Elec       q    Type
REMARK                         _______ _______ _______ _____ _____    ______ ____
ROOT
ATOM      1  C   UNL     1      48.402   7.521  12.540  0.00  0.00    +0.000 A 
ATOM      2  C   UNL     1      47.246   6.876  12.118  0.00  0.00    +0.000 A 
ATOM      3  C   UNL     1      46.732   5.834  12.898  0.00  0.00    +0.000 A 
ATOM      4  C   UNL     1      47.356   5.486  14.096  0.00  0.00    +0.000 A 
ATOM      5  N   UNL     1      46.754   4.509  14.888  0.00  0.00    +0.000 N 
ATOM      6  N   UNL     1      48.480   6.106  14.503  0.00  0.00    +0.000 NA
ATOM      7  C   UNL     1      48.999   7.078  13.707  0.00  0.00    +0.000 A 
ATOM      8  H   UNL     1      46.730   3.609  14.416  0.00  0.00    +0.000 HD
ENDROOT
BRANCH   1  10
ATOM      9  N   UNL     1      48.289   9.808  11.734  0.00  0.00    +0.000 N 
ATOM     10  C   UNL     1      49.013   8.653  11.812  0.00  0.00    +0.000 C 
ATOM     11  O   UNL     1      50.142   8.575  11.345  0.00  0.00    +0.000 OA
ATOM     12  H   UNL     1      48.774  10.615  11.351  0.00  0.00    +0.000 HD
ATOM     13  H   UNL     1      47.493   9.987  12.329  0.00  0.00    +0.000 HD
ENDBRANCH   1  10
BRANCH   5  14
ATOM     14  C   UNL     1      47.174   4.407  16.283  0.00  0.00    +0.000 C 
BRANCH  14  15
ATOM     15  C   UNL     1      48.431   3.607  16.529  0.00  0.00    +0.000 A 
ATOM     16  C   UNL     1      49.361   3.999  17.486  0.00  0.00    +0.000 A 
ATOM     17  C   UNL     1      50.444   3.173  17.753  0.00  0.00    +0.000 A 
ATOM     18  C   UNL     1      50.545   1.991  17.051  0.00  0.00    +0.000 A 
ATOM     19  N   UNL     1      49.645   1.627  16.116  0.00  0.00    +0.000 NA
ATOM     20  N   UNL     1      48.581   2.444  15.849  0.00  0.00    +0.000 NA
ENDBRANCH  14  15
ENDBRANCH   5  14
TORSDOF 3
ENDMDL
MODEL 8
REMARK VINA RESULT:    -5.645      4.450      6.758
REMARK INTER + INTRA:          -6.906
REMARK INTER:                  -6.653
REMARK INTRA:                  -0.254
REMARK UNBOUND:                -0.272
REMARK  Name = 
REMARK  3 active torsions:
REMARK  status: ('A' for Active; 'I' for Inactive)
REMARK    1  A    between atoms: C_2  and  C_4
REMARK    2  A    between atoms: N_8  and  C_9
REMARK    3  A    between atoms: C_9  and  C_10
REMARK                            x       y       z     vdW  Elec       q    Type
REMARK                         _______ _______ _______ _____ _____    ______ ____
ROOT
ATOM      1  C   UNL     1      46.333   5.935  12.623  0.00  0.00    +0.000 A 
ATOM      2  C   UNL     1      45.862   4.632  12.514  0.00  0.00    +0.000 A 
ATOM      3  C   UNL     1      46.304   3.676  13.435  0.00  0.00    +0.000 A 
ATOM      4  C   UNL     1      47.169   4.046  14.465  0.00  0.00    +0.000 A 
ATOM      5  N   UNL     1      47.505   3.084  15.416  0.00  0.00    +0.000 N 
ATOM      6  N   UNL     1      47.630   5.307  14.568  0.00  0.00    +0.000 NA
ATOM      7  C   UNL     1      47.237   6.211  13.633  0.00  0.00    +0.000 A 
ATOM      8  H   UNL     1      48.020   2.313  15.001  0.00  0.00    +0.000 HD
ENDROOT
BRANCH   1  10
ATOM      9  N   UNL     1      44.931   6.747  10.815  0.00  0.00    +0.000 N 
ATOM     10  C   UNL     1      45.909   7.029  11.725  0.00  0.00    +0.000 C 
ATOM     11  O   UNL     1      46.378   8.156  11.829  0.00  0.00    +0.000 OA
ATOM     12  H   UNL     1      44.557   7.538  10.299  0.00  0.00    +0.000 HD
ATOM     13  H   UNL     1      44.347   5.925  10.888  0.00  0.00    +0.000 HD
ENDBRANCH   1  10
BRANCH   5  14
ATOM     14  C   UNL     1      48.086   3.542  16.675  0.00  0.00    +0.000 C 
BRANCH  14  15
ATOM     15  C   UNL     1      49.484   3.051  16.966  0.00  0.00    +0.000 A 
ATOM     16  C   UNL     1      50.383   3.822  17.695  0.00  0.00    +0.000 A 
ATOM     17  C   UNL     1      51.617   3.284  18.030  0.00  0.00    +0.000 A 
ATOM     18  C   UNL     1      51.893   1.995  17.624  0.00  0.00    +0.000 A 
ATOM     19  N   UNL     1      51.019   1.262  16.906  0.00  0.00    +0.000 NA
ATOM     20  N   UNL     1      49.806   1.796  16.570  0.00  0.00    +0.000 NA
ENDBRANCH  14  15
ENDBRANCH   5  14
TORSDOF 3
ENDMDL
MODEL 9
REMARK VINA RESULT:    -5.453      3.965      5.334
REMARK INTER + INTRA:          -6.681
REMARK INTER:                  -6.417
REMARK INTRA:                  -0.264
REMARK UNBOUND:                -0.272
REMARK  Name = 
REMARK  3 active torsions:
REMARK  status: ('A' for Active; 'I' for Inactive)
REMARK    1  A    between atoms: C_2  and  C_4
REMARK    2  A    between atoms: N_8  and  C_9
REMARK    3  A    between atoms: C_9  and  C_10
REMARK                            x       y       z     vdW  Elec       q    Type
REMARK                         _______ _______ _______ _____ _____    ______ ____
ROOT
ATOM      1  C   UNL     1      44.834   3.967  11.633  0.00  0.00    +0.000 A 
ATOM      2  C   UNL     1      45.572   3.782  12.796  0.00  0.00    +0.000 A 
ATOM      3  C   UNL     1      46.196   4.889  13.382  0.00  0.00    +0.000 A 
ATOM      4  C   UNL     1      46.038   6.157  12.821  0.00  0.00    +0.000 A 
ATOM      5  N   UNL     1      46.596   7.244  13.494  0.00  0.00    +0.000 N 
ATOM      6  N   UNL     1      45.328   6.336  11.692  0.00  0.00    +0.000 NA
ATOM      7  C   UNL     1      44.775   5.244  11.103  0.00  0.00    +0.000 A 
ATOM      8  H   UNL     1      47.608   7.177  13.534  0.00  0.00    +0.000 HD
ENDROOT
BRANCH   1  10
ATOM      9  N   UNL     1      44.701   2.330   9.845  0.00  0.00    +0.000 N 
ATOM     10  C   UNL     1      44.109   2.876  10.949  0.00  0.00    +0.000 C 
ATOM     11  O   UNL     1      43.050   2.444  11.384  0.00  0.00    +0.000 OA
ATOM     12  H   UNL     1      44.260   1.496   9.467  0.00  0.00    +0.000 HD
ATOM     13  H   UNL     1      45.677   2.475   9.629  0.00  0.00    +0.000 HD
ENDBRANCH   1  10
BRANCH   5  14
ATOM     14  C   UNL     1      46.128   8.581  13.135  0.00  0.00    +0.000 C 
BRANCH  14  15
ATOM     15  C   UNL     1      47.067   9.391  12.274  0.00  0.00    +0.000 A 
ATOM     16  C   UNL     1      46.695  10.632  11.770  0.00  0.00    +0.000 A 
ATOM     17  C   UNL     1      47.630  11.387  11.076  0.00  0.00    +0.000 A 
ATOM     18  C   UNL     1      48.896  10.866  10.921  0.00  0.00    +0.000 A 
ATOM     19  N   UNL     1      49.243   9.655  11.401  0.00  0.00    +0.000 NA
ATOM     20  N   UNL     1      48.319   8.909  12.080  0.00  0.00    +0.000 NA
ENDBRANCH  14  15
ENDBRANCH   5  14
TORSDOF 3
ENDMDL
