MODEL 1
REMARK VINA RESULT:    -8.665      0.000      0.000
REMARK INTER + INTRA:         -12.198
REMARK INTER:                 -11.705
REMARK INTRA:                  -0.493
REMARK UNBOUND:                -0.493
REMARK  Name = 
REMARK  7 active torsions:
REMARK  status: ('A' for Active; 'I' for Inactive)
REMARK    1  A    between atoms: C_1  and  C_2
REMARK    2  A    between atoms: C_4  and  C_5
REMARK    3  A    between atoms: C_10  and  N_11
REMARK    4  A    between atoms: N_11  and  C_12
REMARK    5  A    between atoms: C_12  and  C_13
REMARK    6  A    between atoms: C_17  and  C_18
REMARK    7  A    between atoms: C_22  and  C_23
REMARK                            x       y       z     vdW  Elec       q    Type
REMARK                         _______ _______ _______ _____ _____    ______ ____
ROOT
ATOM      1  C   UNL     1      45.256   5.707  11.977  0.00  0.00    +0.000 A 
ATOM      2  C   UNL     1      45.327   6.974  11.401  0.00  0.00    +0.000 A 
ATOM      3  C   UNL     1      46.237   7.891  11.904  0.00  0.00    +0.000 A 
ATOM      4  C   UNL     1      47.040   7.528  12.978  0.00  0.00    +0.000 A 
ATOM      5  C   UNL     1      46.910   6.255  13.534  0.00  0.00    +0.000 A 
ATOM      6  N   UNL     1      46.033   5.340  13.034  0.00  0.00    +0.000 NA
ENDROOT
BRANCH   5   7
ATOM      7  C   UNL     1      47.707   5.825  14.697  0.00  0.00    +0.000 A 
ATOM      8  C   UNL     1      48.768   6.586  15.194  0.00  0.00    +0.000 A 
ATOM      9  N   UNL     1      49.542   6.251  16.257  0.00  0.00    +0.000 NA
ATOM     10  C   UNL     1      49.245   5.093  16.884  0.00  0.00    +0.000 A 
ATOM     11  C   UNL     1      48.218   4.249  16.494  0.00  0.00    +0.000 A 
ATOM     12  C   UNL     1      47.445   4.630  15.385  0.00  0.00    +0.000 A 
BRANCH  11  13
ATOM     13  C   UNL     1      47.954   2.977  17.236  0.00  0.00    +0.000 C 
ATOM     14  F   UNL     1      48.556   2.923  18.458  0.00  0.00    +0.000 F 
ATOM     15  F   UNL     1      46.629   2.771  17.467  0.00  0.00    +0.000 F 
ATOM     16  F   UNL     1      48.392   1.879  16.560  0.00  0.00    +0.000 F 
ENDBRANCH  11  13
ENDBRANCH   5   7
BRANCH   1  17
ATOM     17  C   UNL     1      44.257   4.706  11.410  0.00  0.00    +0.000 C 
BRANCH  17  18
ATOM     18  N   UNL     1      44.140   4.875   9.958  0.00  0.00    +0.000 N 
ATOM     19  H   UNL     1      43.192   4.700   9.650  0.00  0.00    +0.000 HD
BRANCH  18  26
ATOM     20  C   UNL     1      44.155   1.924   9.878  0.00  0.00    +0.000 C 
ATOM     21  C   UNL     1      45.058   2.803   9.062  0.00  0.00    +0.000 A 
ATOM     22  C   UNL     1      45.912   2.185   8.129  0.00  0.00    +0.000 A 
ATOM     23  C   UNL     1      46.770   2.944   7.341  0.00  0.00    +0.000 A 
ATOM     24  C   UNL     1      46.755   4.306   7.544  0.00  0.00    +0.000 A 
ATOM     25  N   UNL     1      45.949   4.937   8.439  0.00  0.00    +0.000 NA
ATOM     26  C   UNL     1      45.095   4.202   9.187  0.00  0.00    +0.000 A 
BRANCH  23  27
ATOM     27  C   UNL     1      47.619   2.250   6.341  0.00  0.00    +0.000 C 
ATOM     28  N   UNL     1      48.049   2.938   5.240  0.00  0.00    +0.000 N 
ATOM     29  O   UNL     1      47.943   1.075   6.483  0.00  0.00    +0.000 OA
ATOM     30  H   UNL     1      47.840   3.900   5.020  0.00  0.00    +0.000 HD
ATOM     31  H   UNL     1      48.623   2.427   4.584  0.00  0.00    +0.000 HD
ENDBRANCH  23  27
ENDBRANCH  18  26
ENDBRANCH  17  18
ENDBRANCH   1  17
TORSDOF 6
ENDMDL
MODEL 2
REMARK VINA RESULT:    -8.408      3.590      4.310
REMARK INTER + INTRA:         -11.850
REMARK INTER:                 -10.871
REMARK INTRA:                  -0.979
REMARK UNBOUND:                -0.493
REMARK  Name = 
REMARK  7 active torsions:
REMARK  status: ('A' for Active; 'I' for Inactive)
REMARK    1  A    between atoms: C_1  and  C_2
REMARK    2  A    between atoms: C_4  and  C_5
REMARK    3  A    between atoms: C_10  and  N_11
REMARK    4  A    between atoms: N_11  and  C_12
REMARK    5  A    between atoms: C_12  and  C_13
REMARK    6  A    between atoms: C_17  and  C_18
REMARK    7  A    between atoms: C_22  and  C_23
REMARK                            x       y       z     vdW  Elec       q    Type
REMARK                         _______ _______ _______ _____ _____    ______ ____
ROOT
ATOM      1  C   UNL     1      45.453   5.862  11.763  0.00  0.00    +0.000 A 
ATOM      2  C   UNL     1      45.046   4.814  12.588  0.00  0.00    +0.000 A 
ATOM      3  C   UNL     1      45.842   4.457  13.665  0.00  0.00    +0.000 A 
ATOM      4  C   UNL     1      47.031   5.142  13.883  0.00  0.00    +0.000 A 
ATOM      5  C   UNL     1      47.405   6.166  13.012  0.00  0.00    +0.000 A 
ATOM      6  N   UNL     1      46.621   6.537  11.962  0.00  0.00    +0.000 NA
ENDROOT
BRANCH   5   7
ATOM      7  C   UNL     1      48.672   6.902  13.170  0.00  0.00    +0.000 A 
ATOM      8  C   UNL     1      49.198   7.217  14.426  0.00  0.00    +0.000 A 
ATOM      9  N   UNL     1      50.355   7.891  14.644  0.00  0.00    +0.000 NA
ATOM     10  C   UNL     1      51.051   8.273  13.553  0.00  0.00    +0.000 A 
ATOM     11  C   UNL     1      50.642   8.021  12.254  0.00  0.00    +0.000 A 
ATOM     12  C   UNL     1      49.435   7.326  12.072  0.00  0.00    +0.000 A 
BRANCH  11  13
ATOM     13  C   UNL     1      51.465   8.483  11.092  0.00  0.00    +0.000 C 
ATOM     14  F   UNL     1      52.759   8.760  11.417  0.00  0.00    +0.000 F 
ATOM     15  F   UNL     1      51.524   7.561  10.093  0.00  0.00    +0.000 F 
ATOM     16  F   UNL     1      50.975   9.620  10.525  0.00  0.00    +0.000 F 
ENDBRANCH  11  13
ENDBRANCH   5   7
BRANCH   1  17
ATOM     17  C   UNL     1      44.567   6.249  10.587  0.00  0.00    +0.000 C 
BRANCH  17  18
ATOM     18  N   UNL     1      44.041   5.045   9.933  0.00  0.00    +0.000 N 
ATOM     19  H   UNL     1      43.465   4.512  10.571  0.00  0.00    +0.000 HD
BRANCH  18  26
ATOM     20  C   UNL     1      44.100   2.127  10.371  0.00  0.00    +0.000 C 
ATOM     21  C   UNL     1      44.963   2.858   9.383  0.00  0.00    +0.000 A 
ATOM     22  C   UNL     1      45.797   2.094   8.544  0.00  0.00    +0.000 A 
ATOM     23  C   UNL     1      46.617   2.712   7.608  0.00  0.00    +0.000 A 
ATOM     24  C   UNL     1      46.587   4.088   7.568  0.00  0.00    +0.000 A 
ATOM     25  N   UNL     1      45.800   4.858   8.366  0.00  0.00    +0.000 NA
ATOM     26  C   UNL     1      44.981   4.257   9.260  0.00  0.00    +0.000 A 
BRANCH  23  27
ATOM     27  C   UNL     1      47.445   1.862   6.716  0.00  0.00    +0.000 C 
ATOM     28  N   UNL     1      48.556   2.399   6.125  0.00  0.00    +0.000 N 
ATOM     29  O   UNL     1      47.154   0.689   6.500  0.00  0.00    +0.000 OA
ATOM     30  H   UNL     1      48.884   3.348   6.228  0.00  0.00    +0.000 HD
ATOM     31  H   UNL     1      49.089   1.786   5.525  0.00  0.00    +0.000 HD
ENDBRANCH  23  27
ENDBRANCH  18  26
ENDBRANCH  17  18
ENDBRANCH   1  17
TORSDOF 6
ENDMDL
MODEL 3
REMARK VINA RESULT:    -8.195      4.422      8.072
REMARK INTER + INTRA:         -11.562
REMARK INTER:                 -10.650
REMARK INTRA:                  -0.913
REMARK UNBOUND:                -0.493
REMARK  Name = 
REMARK  7 active torsions:
REMARK  status: ('A' for Active; 'I' for Inactive)
REMARK    1  A    between atoms: C_1  and  C_2
REMARK    2  A    between atoms: C_4  and  C_5
REMARK    3  A    between atoms: C_10  and  N_11
REMARK    4  A    between atoms: N_11  and  C_12
REMARK    5  A    between atoms: C_12  and  C_13
REMARK    6  A    between atoms: C_17  and  C_18
REMARK    7  A    between atoms: C_22  and  C_23
REMARK                            x       y       z     vdW  Elec       q    Type
REMARK                         _______ _______ _______ _____ _____    ______ ____
ROOT
ATOM      1  C   UNL     1      47.634   7.232  14.001  0.00  0.00    +0.000 A 
ATOM      2  C   UNL     1      47.264   8.542  13.698  0.00  0.00    +0.000 A 
ATOM      3  C   UNL     1      46.142   8.761  12.916  0.00  0.00    +0.000 A 
ATOM      4  C   UNL     1      45.424   7.669  12.441  0.00  0.00    +0.000 A 
ATOM      5  C   UNL     1      45.852   6.378  12.752  0.00  0.00    +0.000 A 
ATOM      6  N   UNL     1      46.944   6.153  13.536  0.00  0.00    +0.000 NA
ENDROOT
BRANCH   5   7
ATOM      7  C   UNL     1      45.156   5.181  12.247  0.00  0.00    +0.000 A 
ATOM      8  C   UNL     1      44.353   4.386  13.068  0.00  0.00    +0.000 A 
ATOM      9  N   UNL     1      43.685   3.274  12.672  0.00  0.00    +0.000 NA
ATOM     10  C   UNL     1      43.805   2.924  11.373  0.00  0.00    +0.000 A 
ATOM     11  C   UNL     1      44.567   3.627  10.455  0.00  0.00    +0.000 A 
ATOM     12  C   UNL     1      45.246   4.770  10.909  0.00  0.00    +0.000 A 
BRANCH  11  13
ATOM     13  C   UNL     1      44.657   3.174   9.032  0.00  0.00    +0.000 C 
ATOM     14  F   UNL     1      44.046   1.977   8.801  0.00  0.00    +0.000 F 
ATOM     15  F   UNL     1      44.086   4.053   8.164  0.00  0.00    +0.000 F 
ATOM     16  F   UNL     1      45.943   3.018   8.615  0.00  0.00    +0.000 F 
ENDBRANCH  11  13
ENDBRANCH   5   7
BRANCH   1  17
ATOM     17  C   UNL     1      48.865   7.005  14.866  0.00  0.00    +0.000 C 
BRANCH  17  18
ATOM     18  N   UNL     1      48.466   6.582  16.213  0.00  0.00    +0.000 N 
ATOM     19  H   UNL     1      48.446   7.371  16.847  0.00  0.00    +0.000 HD
BRANCH  18  26
ATOM     20  C   UNL     1      47.091   3.986  16.511  0.00  0.00    +0.000 C 
ATOM     21  C   UNL     1      48.548   4.217  16.797  0.00  0.00    +0.000 A 
ATOM     22  C   UNL     1      49.336   3.104  17.145  0.00  0.00    +0.000 A 
ATOM     23  C   UNL     1      50.691   3.252  17.418  0.00  0.00    +0.000 A 
ATOM     24  C   UNL     1      51.200   4.530  17.355  0.00  0.00    +0.000 A 
ATOM     25  N   UNL     1      50.469   5.628  17.027  0.00  0.00    +0.000 NA
ATOM     26  C   UNL     1      49.156   5.482  16.735  0.00  0.00    +0.000 A 
BRANCH  23  27
ATOM     27  C   UNL     1      51.489   2.042  17.739  0.00  0.00    +0.000 C 
ATOM     28  N   UNL     1      52.581   2.161  18.553  0.00  0.00    +0.000 N 
ATOM     29  O   UNL     1      51.188   0.940  17.290  0.00  0.00    +0.000 OA
ATOM     30  H   UNL     1      52.922   3.013  18.971  0.00  0.00    +0.000 HD
ATOM     31  H   UNL     1      53.097   1.313  18.743  0.00  0.00    +0.000 HD
ENDBRANCH  23  27
ENDBRANCH  18  26
ENDBRANCH  17  18
ENDBRANCH   1  17
TORSDOF 6
ENDMDL
MODEL 4
REMARK VINA RESULT:    -8.126      4.811      8.154
REMARK INTER + INTRA:         -11.470
REMARK INTER:                 -10.451
REMARK INTRA:                  -1.018
REMARK UNBOUND:                -0.493
REMARK  Name = 
REMARK  7 active torsions:
REMARK  status: ('A' for Active; 'I' for Inactive)
REMARK    1  A    between atoms: C_1  and  C_2
REMARK    2  A    between atoms: C_4  and  C_5
REMARK    3  A    between atoms: C_10  and  N_11
REMARK    4  A    between atoms: N_11  and  C_12
REMARK    5  A    between atoms: C_12  and  C_13
REMARK    6  A    between atoms: C_17  and  C_18
REMARK    7  A    between atoms: C_22  and  C_23
REMARK                            x       y       z     vdW  Elec       q    Type
REMARK                         _______ _______ _______ _____ _____    ______ ____
ROOT
ATOM      1  C   UNL     1      49.273   7.036  14.928  0.00  0.00    +0.000 A 
ATOM      2  C   UNL     1      49.919   7.861  14.008  0.00  0.00    +0.000 A 
ATOM      3  C   UNL     1      49.485   7.872  12.692  0.00  0.00    +0.000 A 
ATOM      4  C   UNL     1      48.430   7.047  12.321  0.00  0.00    +0.000 A 
ATOM      5  C   UNL     1      47.835   6.220  13.275  0.00  0.00    +0.000 A 
ATOM      6  N   UNL     1      48.242   6.217  14.576  0.00  0.00    +0.000 NA
ENDROOT
BRANCH   5   7
ATOM      7  C   UNL     1      46.739   5.297  12.934  0.00  0.00    +0.000 A 
ATOM      8  C   UNL     1      46.744   3.957  13.329  0.00  0.00    +0.000 A 
ATOM      9  N   UNL     1      45.772   3.053  13.051  0.00  0.00    +0.000 NA
ATOM     10  C   UNL     1      44.713   3.500  12.343  0.00  0.00    +0.000 A 
ATOM     11  C   UNL     1      44.583   4.803  11.893  0.00  0.00    +0.000 A 
ATOM     12  C   UNL     1      45.615   5.705  12.199  0.00  0.00    +0.000 A 
BRANCH  11  13
ATOM     13  C   UNL     1      43.381   5.223  11.108  0.00  0.00    +0.000 C 
ATOM     14  F   UNL     1      42.204   4.776  11.631  0.00  0.00    +0.000 F 
ATOM     15  F   UNL     1      43.257   6.575  11.021  0.00  0.00    +0.000 F 
ATOM     16  F   UNL     1      43.411   4.767   9.825  0.00  0.00    +0.000 F 
ENDBRANCH  11  13
ENDBRANCH   5   7
BRANCH   1  17
ATOM     17  C   UNL     1      49.755   7.038  16.372  0.00  0.00    +0.000 C 
BRANCH  17  18
ATOM     18  N   UNL     1      49.051   6.007  17.142  0.00  0.00    +0.000 N 
ATOM     19  H   UNL     1      48.615   6.407  17.964  0.00  0.00    +0.000 HD
BRANCH  18  26
ATOM     20  C   UNL     1      47.746   3.363  17.006  0.00  0.00    +0.000 C 
ATOM     21  C   UNL     1      49.208   3.579  17.274  0.00  0.00    +0.000 A 
ATOM     22  C   UNL     1      50.033   2.444  17.380  0.00  0.00    +0.000 A 
ATOM     23  C   UNL     1      51.395   2.577  17.624  0.00  0.00    +0.000 A 
ATOM     24  C   UNL     1      51.874   3.859  17.779  0.00  0.00    +0.000 A 
ATOM     25  N   UNL     1      51.107   4.978  17.689  0.00  0.00    +0.000 NA
ATOM     26  C   UNL     1      49.786   4.850  17.425  0.00  0.00    +0.000 A 
BRANCH  23  27
ATOM     27  C   UNL     1      52.231   1.352  17.685  0.00  0.00    +0.000 C 
ATOM     28  N   UNL     1      51.675   0.187  18.137  0.00  0.00    +0.000 N 
ATOM     29  O   UNL     1      53.408   1.365  17.338  0.00  0.00    +0.000 OA
ATOM     30  H   UNL     1      50.725   0.065  18.452  0.00  0.00    +0.000 HD
ATOM     31  H   UNL     1      52.281  -0.621  18.164  0.00  0.00    +0.000 HD
ENDBRANCH  23  27
ENDBRANCH  18  26
ENDBRANCH  17  18
ENDBRANCH   1  17
TORSDOF 6
ENDMDL
MODEL 5
REMARK VINA RESULT:    -7.873      1.568      2.157
REMARK INTER + INTRA:         -11.127
REMARK INTER:                 -10.586
REMARK INTRA:                  -0.541
REMARK UNBOUND:                -0.493
REMARK  Name = 
REMARK  7 active torsions:
REMARK  status: ('A' for Active; 'I' for Inactive)
REMARK    1  A    between atoms: C_1  and  C_2
REMARK    2  A    between atoms: C_4  and  C_5
REMARK    3  A    between atoms: C_10  and  N_11
REMARK    4  A    between atoms: N_11  and  C_12
REMARK    5  A    between atoms: C_12  and  C_13
REMARK    6  A    between atoms: C_17  and  C_18
REMARK    7  A    between atoms: C_22  and  C_23
REMARK                            x       y       z     vdW  Elec       q    Type
REMARK                         _______ _______ _______ _____ _____    ______ ____
ROOT
ATOM      1  C   UNL     1      44.782   6.454  11.597  0.00  0.00    +0.000 A 
ATOM      2  C   UNL     1      44.206   7.661  11.203  0.00  0.00    +0.000 A 
ATOM      3  C   UNL     1      44.861   8.847  11.499  0.00  0.00    +0.000 A 
ATOM      4  C   UNL     1      46.064   8.800  12.193  0.00  0.00    +0.000 A 
ATOM      5  C   UNL     1      46.583   7.566  12.587  0.00  0.00    +0.000 A 
ATOM      6  N   UNL     1      45.957   6.394  12.284  0.00  0.00    +0.000 NA
ENDROOT
BRANCH   5   7
ATOM      7  C   UNL     1      47.834   7.455  13.358  0.00  0.00    +0.000 A 
ATOM      8  C   UNL     1      49.040   7.992  12.900  0.00  0.00    +0.000 A 
ATOM      9  N   UNL     1      50.226   7.926  13.555  0.00  0.00    +0.000 NA
ATOM     10  C   UNL     1      50.226   7.299  14.751  0.00  0.00    +0.000 A 
ATOM     11  C   UNL     1      49.099   6.727  15.318  0.00  0.00    +0.000 A 
ATOM     12  C   UNL     1      47.893   6.812  14.603  0.00  0.00    +0.000 A 
BRANCH  11  13
ATOM     13  C   UNL     1      49.178   6.041  16.646  0.00  0.00    +0.000 C 
ATOM     14  F   UNL     1      48.874   4.713  16.592  0.00  0.00    +0.000 F 
ATOM     15  F   UNL     1      50.419   6.114  17.200  0.00  0.00    +0.000 F 
ATOM     16  F   UNL     1      48.326   6.578  17.562  0.00  0.00    +0.000 F 
ENDBRANCH  11  13
ENDBRANCH   5   7
BRANCH   1  17
ATOM     17  C   UNL     1      44.056   5.159  11.260  0.00  0.00    +0.000 C 
BRANCH  17  18
ATOM     18  N   UNL     1      43.929   5.013   9.805  0.00  0.00    +0.000 N 
ATOM     19  H   UNL     1      42.990   4.729   9.553  0.00  0.00    +0.000 HD
BRANCH  18  26
ATOM     20  C   UNL     1      44.056   2.105  10.298  0.00  0.00    +0.000 C 
ATOM     21  C   UNL     1      44.934   2.844   9.330  0.00  0.00    +0.000 A 
ATOM     22  C   UNL     1      45.820   2.092   8.536  0.00  0.00    +0.000 A 
ATOM     23  C   UNL     1      46.657   2.717   7.619  0.00  0.00    +0.000 A 
ATOM     24  C   UNL     1      46.588   4.092   7.554  0.00  0.00    +0.000 A 
ATOM     25  N   UNL     1      45.750   4.851   8.308  0.00  0.00    +0.000 NA
ATOM     26  C   UNL     1      44.916   4.241   9.182  0.00  0.00    +0.000 A 
BRANCH  23  27
ATOM     27  C   UNL     1      47.542   1.877   6.774  0.00  0.00    +0.000 C 
ATOM     28  N   UNL     1      48.671   2.431   6.236  0.00  0.00    +0.000 N 
ATOM     29  O   UNL     1      47.282   0.700   6.550  0.00  0.00    +0.000 OA
ATOM     30  H   UNL     1      48.978   3.385   6.349  0.00  0.00    +0.000 HD
ATOM     31  H   UNL     1      49.243   1.824   5.666  0.00  0.00    +0.000 HD
ENDBRANCH  23  27
ENDBRANCH  18  26
ENDBRANCH  17  18
ENDBRANCH   1  17
TORSDOF 6
ENDMDL
MODEL 6
REMARK VINA RESULT:    -7.871      4.542      8.327
REMARK INTER + INTRA:         -11.126
REMARK INTER:                 -10.184
REMARK INTRA:                  -0.941
REMARK UNBOUND:                -0.493
REMARK  Name = 
REMARK  7 active torsions:
REMARK  status: ('A' for Active; 'I' for Inactive)
REMARK    1  A    between atoms: C_1  and  C_2
REMARK    2  A    between atoms: C_4  and  C_5
REMARK    3  A    between atoms: C_10  and  N_11
REMARK    4  A    between atoms: N_11  and  C_12
REMARK    5  A    between atoms: C_12  and  C_13
REMARK    6  A    between atoms: C_17  and  C_18
REMARK    7  A    between atoms: C_22  and  C_23
REMARK                            x       y       z     vdW  Elec       q    Type
REMARK                         _______ _______ _______ _____ _____    ______ ____
ROOT
ATOM      1  C   UNL     1      46.685   8.012  13.050  0.00  0.00    +0.000 A 
ATOM      2  C   UNL     1      46.025   9.220  12.828  0.00  0.00    +0.000 A 
ATOM      3  C   UNL     1      44.931   9.243  11.977  0.00  0.00    +0.000 A 
ATOM      4  C   UNL     1      44.532   8.066  11.357  0.00  0.00    +0.000 A 
ATOM      5  C   UNL     1      45.243   6.889  11.593  0.00  0.00    +0.000 A 
ATOM      6  N   UNL     1      46.308   6.852  12.443  0.00  0.00    +0.000 NA
ENDROOT
BRANCH   5   7
ATOM      7  C   UNL     1      44.891   5.618  10.935  0.00  0.00    +0.000 A 
ATOM      8  C   UNL     1      43.869   4.792  11.411  0.00  0.00    +0.000 A 
ATOM      9  N   UNL     1      43.494   3.612  10.857  0.00  0.00    +0.000 NA
ATOM     10  C   UNL     1      44.161   3.221   9.751  0.00  0.00    +0.000 A 
ATOM     11  C   UNL     1      45.191   3.947   9.177  0.00  0.00    +0.000 A 
ATOM     12  C   UNL     1      45.552   5.160   9.786  0.00  0.00    +0.000 A 
BRANCH  11  13
ATOM     13  C   UNL     1      45.889   3.444   7.953  0.00  0.00    +0.000 C 
ATOM     14  F   UNL     1      46.512   2.245   8.135  0.00  0.00    +0.000 F 
ATOM     15  F   UNL     1      45.043   3.265   6.903  0.00  0.00    +0.000 F 
ATOM     16  F   UNL     1      46.854   4.299   7.515  0.00  0.00    +0.000 F 
ENDBRANCH  11  13
ENDBRANCH   5   7
BRANCH   1  17
ATOM     17  C   UNL     1      47.881   7.999  13.992  0.00  0.00    +0.000 C 
BRANCH  17  18
ATOM     18  N   UNL     1      48.387   6.631  14.149  0.00  0.00    +0.000 N 
ATOM     19  H   UNL     1      47.989   6.018  13.447  0.00  0.00    +0.000 HD
BRANCH  18  26
ATOM     20  C   UNL     1      46.952   4.094  14.617  0.00  0.00    +0.000 C 
ATOM     21  C   UNL     1      47.717   4.847  15.668  0.00  0.00    +0.000 A 
ATOM     22  C   UNL     1      47.836   4.263  16.943  0.00  0.00    +0.000 A 
ATOM     23  C   UNL     1      48.534   4.909  17.957  0.00  0.00    +0.000 A 
ATOM     24  C   UNL     1      49.068   6.141  17.654  0.00  0.00    +0.000 A 
ATOM     25  N   UNL     1      48.969   6.738  16.436  0.00  0.00    +0.000 NA
ATOM     26  C   UNL     1      48.313   6.099  15.441  0.00  0.00    +0.000 A 
BRANCH  23  27
ATOM     27  C   UNL     1      48.668   4.233  19.271  0.00  0.00    +0.000 C 
ATOM     28  N   UNL     1      48.257   2.934  19.399  0.00  0.00    +0.000 N 
ATOM     29  O   UNL     1      49.139   4.815  20.244  0.00  0.00    +0.000 OA
ATOM     30  H   UNL     1      47.851   2.365  18.671  0.00  0.00    +0.000 HD
ATOM     31  H   UNL     1      48.364   2.515  20.312  0.00  0.00    +0.000 HD
ENDBRANCH  23  27
ENDBRANCH  18  26
ENDBRANCH  17  18
ENDBRANCH   1  17
TORSDOF 6
ENDMDL
MODEL 7
REMARK VINA RESULT:    -7.443      4.744      8.827
REMARK INTER + INTRA:         -10.547
REMARK INTER:                  -9.752
REMARK INTRA:                  -0.795
REMARK UNBOUND:                -0.493
REMARK  Name = 
REMARK  7 active torsions:
REMARK  status: ('A' for Active; 'I' for Inactive)
REMARK    1  A    between atoms: C_1  and  C_2
REMARK    2  A    between atoms: C_4  and  C_5
REMARK    3  A    between atoms: C_10  and  N_11
REMARK    4  A    between atoms: N_11  and  C_12
REMARK    5  A    between atoms: C_12  and  C_13
REMARK    6  A    between atoms: C_17  and  C_18
REMARK    7  A    between atoms: C_22  and  C_23
REMARK                            x       y       z     vdW  Elec       q    Type
REMARK                         _______ _______ _______ _____ _____    ______ ____
ROOT
ATOM      1  C   UNL     1      47.218   4.684  15.325  0.00  0.00    +0.000 A 
ATOM      2  C   UNL     1      47.927   5.866  15.110  0.00  0.00    +0.000 A 
ATOM      3  C   UNL     1      47.781   6.528  13.902  0.00  0.00    +0.000 A 
ATOM      4  C   UNL     1      46.946   5.988  12.931  0.00  0.00    +0.000 A 
ATOM      5  C   UNL     1      46.279   4.789  13.187  0.00  0.00    +0.000 A 
ATOM      6  N   UNL     1      46.401   4.141  14.379  0.00  0.00    +0.000 NA
ENDROOT
BRANCH   5   7
ATOM      7  C   UNL     1      45.410   4.149  12.183  0.00  0.00    +0.000 A 
ATOM      8  C   UNL     1      44.195   3.550  12.525  0.00  0.00    +0.000 A 
ATOM      9  N   UNL     1      43.349   2.944  11.656  0.00  0.00    +0.000 NA
ATOM     10  C   UNL     1      43.716   2.934  10.357  0.00  0.00    +0.000 A 
ATOM     11  C   UNL     1      44.892   3.493   9.887  0.00  0.00    +0.000 A 
ATOM     12  C   UNL     1      45.743   4.107  10.821  0.00  0.00    +0.000 A 
BRANCH  11  13
ATOM     13  C   UNL     1      45.235   3.437   8.431  0.00  0.00    +0.000 C 
ATOM     14  F   UNL     1      46.147   4.375   8.050  0.00  0.00    +0.000 F 
ATOM     15  F   UNL     1      45.762   2.238   8.063  0.00  0.00    +0.000 F 
ATOM     16  F   UNL     1      44.150   3.631   7.632  0.00  0.00    +0.000 F 
ENDBRANCH  11  13
ENDBRANCH   5   7
BRANCH   1  17
ATOM     17  C   UNL     1      47.382   3.970  16.659  0.00  0.00    +0.000 C 
BRANCH  17  18
ATOM     18  N   UNL     1      48.521   4.529  17.396  0.00  0.00    +0.000 N 
ATOM     19  H   UNL     1      48.685   5.492  17.128  0.00  0.00    +0.000 HD
BRANCH  18  26
ATOM     20  C   UNL     1      51.040   5.661  18.441  0.00  0.00    +0.000 C 
ATOM     21  C   UNL     1      50.872   4.244  17.971  0.00  0.00    +0.000 A 
ATOM     22  C   UNL     1      51.962   3.367  18.119  0.00  0.00    +0.000 A 
ATOM     23  C   UNL     1      51.869   2.043  17.706  0.00  0.00    +0.000 A 
ATOM     24  C   UNL     1      50.679   1.655  17.131  0.00  0.00    +0.000 A 
ATOM     25  N   UNL     1      49.607   2.476  16.967  0.00  0.00    +0.000 NA
ATOM     26  C   UNL     1      49.688   3.757  17.392  0.00  0.00    +0.000 A 
BRANCH  23  27
ATOM     27  C   UNL     1      53.031   1.146  17.922  0.00  0.00    +0.000 C 
ATOM     28  N   UNL     1      53.289   0.157  17.013  0.00  0.00    +0.000 N 
ATOM     29  O   UNL     1      53.764   1.273  18.898  0.00  0.00    +0.000 OA
ATOM     30  H   UNL     1      52.751  -0.042  16.182  0.00  0.00    +0.000 HD
ATOM     31  H   UNL     1      54.088  -0.432  17.200  0.00  0.00    +0.000 HD
ENDBRANCH  23  27
ENDBRANCH  18  26
ENDBRANCH  17  18
ENDBRANCH   1  17
TORSDOF 6
ENDMDL
MODEL 8
REMARK VINA RESULT:    -7.072      2.697      4.246
REMARK INTER + INTRA:         -10.045
REMARK INTER:                  -8.847
REMARK INTRA:                  -1.199
REMARK UNBOUND:                -0.493
REMARK  Name = 
REMARK  7 active torsions:
REMARK  status: ('A' for Active; 'I' for Inactive)
REMARK    1  A    between atoms: C_1  and  C_2
REMARK    2  A    between atoms: C_4  and  C_5
REMARK    3  A    between atoms: C_10  and  N_11
REMARK    4  A    between atoms: N_11  and  C_12
REMARK    5  A    between atoms: C_12  and  C_13
REMARK    6  A    between atoms: C_17  and  C_18
REMARK    7  A    between atoms: C_22  and  C_23
REMARK                            x       y       z     vdW  Elec       q    Type
REMARK                         _______ _______ _______ _____ _____    ______ ____
ROOT
ATOM      1  C   UNL     1      49.441   7.718  13.489  0.00  0.00    +0.000 A 
ATOM      2  C   UNL     1      50.482   8.621  13.279  0.00  0.00    +0.000 A 
ATOM      3  C   UNL     1      51.493   8.714  14.222  0.00  0.00    +0.000 A 
ATOM      4  C   UNL     1      51.433   7.917  15.359  0.00  0.00    +0.000 A 
ATOM      5  C   UNL     1      50.355   7.048  15.533  0.00  0.00    +0.000 A 
ATOM      6  N   UNL     1      49.366   6.936  14.603  0.00  0.00    +0.000 NA
ENDROOT
BRANCH   5   7
ATOM      7  C   UNL     1      50.217   6.207  16.735  0.00  0.00    +0.000 A 
ATOM      8  C   UNL     1      50.988   6.415  17.881  0.00  0.00    +0.000 A 
ATOM      9  N   UNL     1      50.914   5.680  19.019  0.00  0.00    +0.000 NA
ATOM     10  C   UNL     1      50.011   4.677  19.037  0.00  0.00    +0.000 A 
ATOM     11  C   UNL     1      49.185   4.368  17.970  0.00  0.00    +0.000 A 
ATOM     12  C   UNL     1      49.298   5.150  16.808  0.00  0.00    +0.000 A 
BRANCH  11  13
ATOM     13  C   UNL     1      48.212   3.235  18.062  0.00  0.00    +0.000 C 
ATOM     14  F   UNL     1      46.945   3.573  17.690  0.00  0.00    +0.000 F 
ATOM     15  F   UNL     1      48.559   2.180  17.276  0.00  0.00    +0.000 F 
ATOM     16  F   UNL     1      48.105   2.741  19.327  0.00  0.00    +0.000 F 
ENDBRANCH  11  13
ENDBRANCH   5   7
BRANCH   1  17
ATOM     17  C   UNL     1      48.340   7.620  12.442  0.00  0.00    +0.000 C 
BRANCH  17  18
ATOM     18  N   UNL     1      47.102   7.125  13.054  0.00  0.00    +0.000 N 
ATOM     19  H   UNL     1      47.233   6.953  14.043  0.00  0.00    +0.000 HD
BRANCH  18  26
ATOM     20  C   UNL     1      46.703   4.557  14.456  0.00  0.00    +0.000 C 
ATOM     21  C   UNL     1      46.198   4.862  13.075  0.00  0.00    +0.000 A 
ATOM     22  C   UNL     1      45.403   3.892  12.434  0.00  0.00    +0.000 A 
ATOM     23  C   UNL     1      44.903   4.115  11.157  0.00  0.00    +0.000 A 
ATOM     24  C   UNL     1      45.247   5.306  10.556  0.00  0.00    +0.000 A 
ATOM     25  N   UNL     1      46.015   6.263  11.141  0.00  0.00    +0.000 NA
ATOM     26  C   UNL     1      46.481   6.058  12.395  0.00  0.00    +0.000 A 
BRANCH  23  27
ATOM     27  C   UNL     1      44.035   3.081  10.541  0.00  0.00    +0.000 C 
ATOM     28  N   UNL     1      44.227   2.743   9.230  0.00  0.00    +0.000 N 
ATOM     29  O   UNL     1      43.150   2.524  11.184  0.00  0.00    +0.000 OA
ATOM     30  H   UNL     1      44.917   3.139   8.609  0.00  0.00    +0.000 HD
ATOM     31  H   UNL     1      43.612   2.037   8.851  0.00  0.00    +0.000 HD
ENDBRANCH  23  27
ENDBRANCH  18  26
ENDBRANCH  17  18
ENDBRANCH   1  17
TORSDOF 6
ENDMDL
MODEL 9
REMARK VINA RESULT:    -7.070      2.049      3.084
REMARK INTER + INTRA:         -10.043
REMARK INTER:                  -9.190
REMARK INTRA:                  -0.853
REMARK UNBOUND:                -0.493
REMARK  Name = 
REMARK  7 active torsions:
REMARK  status: ('A' for Active; 'I' for Inactive)
REMARK    1  A    between atoms: C_1  and  C_2
REMARK    2  A    between atoms: C_4  and  C_5
REMARK    3  A    between atoms: C_10  and  N_11
REMARK    4  A    between atoms: N_11  and  C_12
REMARK    5  A    between atoms: C_12  and  C_13
REMARK    6  A    between atoms: C_17  and  C_18
REMARK    7  A    between atoms: C_22  and  C_23
REMARK                            x       y       z     vdW  Elec       q    Type
REMARK                         _______ _______ _______ _____ _____    ______ ____
ROOT
ATOM      1  C   UNL     1      46.898   8.527  12.801  0.00  0.00    +0.000 A 
ATOM      2  C   UNL     1      47.809   9.452  12.292  0.00  0.00    +0.000 A 
ATOM      3  C   UNL     1      49.085   9.506  12.829  0.00  0.00    +0.000 A 
ATOM      4  C   UNL     1      49.418   8.649  13.870  0.00  0.00    +0.000 A 
ATOM      5  C   UNL     1      48.461   7.759  14.361  0.00  0.00    +0.000 A 
ATOM      6  N   UNL     1      47.209   7.685  13.827  0.00  0.00    +0.000 NA
ENDROOT
BRANCH   5   7
ATOM      7  C   UNL     1      48.742   6.852  15.488  0.00  0.00    +0.000 A 
ATOM      8  C   UNL     1      49.577   7.219  16.547  0.00  0.00    +0.000 A 
ATOM      9  N   UNL     1      49.879   6.437  17.613  0.00  0.00    +0.000 NA
ATOM     10  C   UNL     1      49.312   5.212  17.648  0.00  0.00    +0.000 A 
ATOM     11  C   UNL     1      48.465   4.729  16.665  0.00  0.00    +0.000 A 
ATOM     12  C   UNL     1      48.183   5.569  15.575  0.00  0.00    +0.000 A 
BRANCH  11  13
ATOM     13  C   UNL     1      47.879   3.356  16.771  0.00  0.00    +0.000 C 
ATOM     14  F   UNL     1      47.835   2.689  15.582  0.00  0.00    +0.000 F 
ATOM     15  F   UNL     1      48.576   2.553  17.619  0.00  0.00    +0.000 F 
ATOM     16  F   UNL     1      46.599   3.369  17.234  0.00  0.00    +0.000 F 
ENDBRANCH  11  13
ENDBRANCH   5   7
BRANCH   1  17
ATOM     17  C   UNL     1      45.502   8.473  12.198  0.00  0.00    +0.000 C 
BRANCH  17  18
ATOM     18  N   UNL     1      44.793   7.278  12.669  0.00  0.00    +0.000 N 
ATOM     19  H   UNL     1      45.035   7.071  13.630  0.00  0.00    +0.000 HD
BRANCH  18  26
ATOM     20  C   UNL     1      43.003   4.976  13.131  0.00  0.00    +0.000 C 
ATOM     21  C   UNL     1      43.962   5.093  11.981  0.00  0.00    +0.000 A 
ATOM     22  C   UNL     1      43.948   4.078  11.005  0.00  0.00    +0.000 A 
ATOM     23  C   UNL     1      44.809   4.130   9.916  0.00  0.00    +0.000 A 
ATOM     24  C   UNL     1      45.679   5.197   9.863  0.00  0.00    +0.000 A 
ATOM     25  N   UNL     1      45.724   6.192  10.789  0.00  0.00    +0.000 NA
ATOM     26  C   UNL     1      44.868   6.156  11.835  0.00  0.00    +0.000 A 
BRANCH  23  27
ATOM     27  C   UNL     1      44.727   3.060   8.891  0.00  0.00    +0.000 C 
ATOM     28  N   UNL     1      44.648   1.755   9.294  0.00  0.00    +0.000 N 
ATOM     29  O   UNL     1      44.729   3.321   7.692  0.00  0.00    +0.000 OA
ATOM     30  H   UNL     1      44.645   1.427  10.248  0.00  0.00    +0.000 HD
ATOM     31  H   UNL     1      44.596   1.059   8.564  0.00  0.00    +0.000 HD
ENDBRANCH  23  27
ENDBRANCH  18  26
ENDBRANCH  17  18
ENDBRANCH   1  17
TORSDOF 6
ENDMDL
