MODEL 1
REMARK VINA RESULT:    -7.711      0.000      0.000
REMARK INTER + INTRA:          -9.798
REMARK INTER:                  -9.740
REMARK INTRA:                  -0.058
REMARK UNBOUND:                -0.058
REMARK  Name = 
REMARK  5 active torsions:
REMARK  status: ('A' for Active; 'I' for Inactive)
REMARK    1  A    between atoms: N_1  and  C_2
REMARK    2  A    between atoms: C_2  and  C_3
REMARK    3  A    between atoms: C_3  and  C_4
REMARK    4  A    between atoms: C_7  and  C_8
REMARK    5  A    between atoms: C_8  and  N_9
REMARK                            x       y       z     vdW  Elec       q    Type
REMARK                         _______ _______ _______ _____ _____    ______ ____
ROOT
ATOM      1  C   UNL     1      45.913   3.374   7.869  0.00  0.00    +0.000 A 
ATOM      2  C   UNL     1      45.316   2.418   8.678  0.00  0.00    +0.000 A 
ATOM      3  C   UNL     1      44.780   2.819   9.914  0.00  0.00    +0.000 A 
ATOM      4  C   UNL     1      44.818   4.162  10.286  0.00  0.00    +0.000 A 
ATOM      5  C   UNL     1      45.446   5.037   9.413  0.00  0.00    +0.000 A 
ATOM      6  N   UNL     1      45.990   4.672   8.232  0.00  0.00    +0.000 NA
ENDROOT
BRANCH   1   7
ATOM      7  C   UNL     1      46.555   2.998   6.555  0.00  0.00    +0.000 C 
BRANCH   7   8
ATOM      8  C   UNL     1      47.617   1.919   6.778  0.00  0.00    +0.000 C 
BRANCH   8   9
ATOM      9  N   UNL     1      48.577   1.861   5.673  0.00  0.00    +0.000 NA
ATOM     10  H   UNL     1      48.125   1.414   4.874  0.00  0.00    +0.000 HD
ATOM     11  H   UNL     1      49.345   1.241   5.932  0.00  0.00    +0.000 HD
ENDBRANCH   8   9
ENDBRANCH   7   8
ENDBRANCH   1   7
BRANCH   4  12
ATOM     12  C   UNL     1      44.205   4.670  11.564  0.00  0.00    +0.000 C 
BRANCH  12  13
ATOM     13  N   UNL     1      44.797   5.912  12.045  0.00  0.00    +0.000 N 
ATOM     14  C   UNL     1      44.520   7.140  11.490  0.00  0.00    +0.000 A 
ATOM     15  C   UNL     1      45.182   8.092  12.227  0.00  0.00    +0.000 A 
ATOM     16  C   UNL     1      46.205   7.399  12.923  0.00  0.00    +0.000 A 
ATOM     17  C   UNL     1      47.403   7.806  13.522  0.00  0.00    +0.000 A 
ATOM     18  C   UNL     1      48.182   6.792  14.047  0.00  0.00    +0.000 A 
ATOM     19 CL   UNL     1      49.784   7.124  14.574  0.00  0.00    +0.000 Cl
ATOM     20  N   UNL     1      47.825   5.495  14.131  0.00  0.00    +0.000 NA
ATOM     21  C   UNL     1      46.652   5.104  13.582  0.00  0.00    +0.000 A 
ATOM     22  C   UNL     1      45.883   6.039  12.892  0.00  0.00    +0.000 A 
ENDBRANCH  12  13
ENDBRANCH   4  12
TORSDOF 5
ENDMDL
MODEL 2
REMARK VINA RESULT:    -7.270      2.830      6.858
REMARK INTER + INTRA:          -9.240
REMARK INTER:                  -9.020
REMARK INTRA:                  -0.221
REMARK UNBOUND:                -0.058
REMARK  Name = 
REMARK  5 active torsions:
REMARK  status: ('A' for Active; 'I' for Inactive)
REMARK    1  A    between atoms: N_1  and  C_2
REMARK    2  A    between atoms: C_2  and  C_3
REMARK    3  A    between atoms: C_3  and  C_4
REMARK    4  A    between atoms: C_7  and  C_8
REMARK    5  A    between atoms: C_8  and  N_9
REMARK                            x       y       z     vdW  Elec       q    Type
REMARK                         _______ _______ _______ _____ _____    ______ ____
ROOT
ATOM      1  C   UNL     1      47.059   5.127  14.529  0.00  0.00    +0.000 A 
ATOM      2  C   UNL     1      47.276   6.204  13.682  0.00  0.00    +0.000 A 
ATOM      3  C   UNL     1      46.521   6.297  12.501  0.00  0.00    +0.000 A 
ATOM      4  C   UNL     1      45.545   5.341  12.222  0.00  0.00    +0.000 A 
ATOM      5  C   UNL     1      45.411   4.299  13.126  0.00  0.00    +0.000 A 
ATOM      6  N   UNL     1      46.143   4.174  14.254  0.00  0.00    +0.000 NA
ENDROOT
BRANCH   1   7
ATOM      7  C   UNL     1      47.877   4.942  15.785  0.00  0.00    +0.000 C 
BRANCH   7   8
ATOM      8  C   UNL     1      47.664   3.536  16.349  0.00  0.00    +0.000 C 
BRANCH   8   9
ATOM      9  N   UNL     1      46.613   3.510  17.369  0.00  0.00    +0.000 NA
ATOM     10  H   UNL     1      45.849   2.923  17.032  0.00  0.00    +0.000 HD
ATOM     11  H   UNL     1      46.217   4.446  17.461  0.00  0.00    +0.000 HD
ENDBRANCH   8   9
ENDBRANCH   7   8
ENDBRANCH   1   7
BRANCH   4  12
ATOM     12  C   UNL     1      44.655   5.416  11.009  0.00  0.00    +0.000 C 
BRANCH  12  13
ATOM     13  N   UNL     1      44.651   4.198  10.208  0.00  0.00    +0.000 N 
ATOM     14  C   UNL     1      44.169   2.996  10.671  0.00  0.00    +0.000 A 
ATOM     15  C   UNL     1      44.248   2.089   9.642  0.00  0.00    +0.000 A 
ATOM     16  C   UNL     1      45.191   2.623   8.729  0.00  0.00    +0.000 A 
ATOM     17  C   UNL     1      45.968   2.056   7.712  0.00  0.00    +0.000 A 
ATOM     18  C   UNL     1      46.844   2.918   7.078  0.00  0.00    +0.000 A 
ATOM     19 CL   UNL     1      48.030   2.300   5.999  0.00  0.00    +0.000 Cl
ATOM     20  N   UNL     1      46.913   4.249   7.280  0.00  0.00    +0.000 NA
ATOM     21  C   UNL     1      46.139   4.805   8.239  0.00  0.00    +0.000 A 
ATOM     22  C   UNL     1      45.346   3.979   9.033  0.00  0.00    +0.000 A 
ENDBRANCH  12  13
ENDBRANCH   4  12
TORSDOF 5
ENDMDL
MODEL 3
REMARK VINA RESULT:    -7.149      2.642      6.595
REMARK INTER + INTRA:          -9.088
REMARK INTER:                  -8.360
REMARK INTRA:                  -0.728
REMARK UNBOUND:                -0.058
REMARK  Name = 
REMARK  5 active torsions:
REMARK  status: ('A' for Active; 'I' for Inactive)
REMARK    1  A    between atoms: N_1  and  C_2
REMARK    2  A    between atoms: C_2  and  C_3
REMARK    3  A    between atoms: C_3  and  C_4
REMARK    4  A    between atoms: C_7  and  C_8
REMARK    5  A    between atoms: C_8  and  N_9
REMARK                            x       y       z     vdW  Elec       q    Type
REMARK                         _______ _______ _______ _____ _____    ______ ____
ROOT
ATOM      1  C   UNL     1      47.581   6.633  13.170  0.00  0.00    +0.000 A 
ATOM      2  C   UNL     1      46.952   5.456  13.548  0.00  0.00    +0.000 A 
ATOM      3  C   UNL     1      45.795   5.057  12.859  0.00  0.00    +0.000 A 
ATOM      4  C   UNL     1      45.325   5.818  11.789  0.00  0.00    +0.000 A 
ATOM      5  C   UNL     1      46.018   6.983  11.496  0.00  0.00    +0.000 A 
ATOM      6  N   UNL     1      47.118   7.400  12.160  0.00  0.00    +0.000 NA
ENDROOT
BRANCH   1   7
ATOM      7  C   UNL     1      48.796   7.143  13.907  0.00  0.00    +0.000 C 
BRANCH   7   8
ATOM      8  C   UNL     1      48.372   8.086  15.034  0.00  0.00    +0.000 C 
BRANCH   8   9
ATOM      9  N   UNL     1      47.220   8.907  14.654  0.00  0.00    +0.000 NA
ATOM     10  H   UNL     1      46.401   8.302  14.579  0.00  0.00    +0.000 HD
ATOM     11  H   UNL     1      47.371   9.277  13.714  0.00  0.00    +0.000 HD
ENDBRANCH   8   9
ENDBRANCH   7   8
ENDBRANCH   1   7
BRANCH   4  12
ATOM     12  C   UNL     1      44.131   5.415  10.965  0.00  0.00    +0.000 C 
BRANCH  12  13
ATOM     13  N   UNL     1      44.311   4.160  10.246  0.00  0.00    +0.000 N 
ATOM     14  C   UNL     1      43.931   2.940  10.758  0.00  0.00    +0.000 A 
ATOM     15  C   UNL     1      44.175   1.989   9.796  0.00  0.00    +0.000 A 
ATOM     16  C   UNL     1      45.113   2.571   8.907  0.00  0.00    +0.000 A 
ATOM     17  C   UNL     1      46.011   2.036   7.976  0.00  0.00    +0.000 A 
ATOM     18  C   UNL     1      46.829   2.952   7.341  0.00  0.00    +0.000 A 
ATOM     19 CL   UNL     1      48.143   2.408   6.376  0.00  0.00    +0.000 Cl
ATOM     20  N   UNL     1      46.741   4.292   7.458  0.00  0.00    +0.000 NA
ATOM     21  C   UNL     1      45.850   4.813   8.333  0.00  0.00    +0.000 A 
ATOM     22  C   UNL     1      45.101   3.951   9.130  0.00  0.00    +0.000 A 
ENDBRANCH  12  13
ENDBRANCH   4  12
TORSDOF 5
ENDMDL
MODEL 4
REMARK VINA RESULT:    -6.933      2.657      6.346
REMARK INTER + INTRA:          -8.815
REMARK INTER:                  -8.401
REMARK INTRA:                  -0.414
REMARK UNBOUND:                -0.058
REMARK  Name = 
REMARK  5 active torsions:
REMARK  status: ('A' for Active; 'I' for Inactive)
REMARK    1  A    between atoms: N_1  and  C_2
REMARK    2  A    between atoms: C_2  and  C_3
REMARK    3  A    between atoms: C_3  and  C_4
REMARK    4  A    between atoms: C_7  and  C_8
REMARK    5  A    between atoms: C_8  and  N_9
REMARK                            x       y       z     vdW  Elec       q    Type
REMARK                         _______ _______ _______ _____ _____    ______ ____
ROOT
ATOM      1  C   UNL     1      48.373   7.110  12.760  0.00  0.00    +0.000 A 
ATOM      2  C   UNL     1      47.409   7.976  12.264  0.00  0.00    +0.000 A 
ATOM      3  C   UNL     1      46.073   7.544  12.218  0.00  0.00    +0.000 A 
ATOM      4  C   UNL     1      45.732   6.283  12.705  0.00  0.00    +0.000 A 
ATOM      5  C   UNL     1      46.769   5.489  13.171  0.00  0.00    +0.000 A 
ATOM      6  N   UNL     1      48.063   5.871  13.201  0.00  0.00    +0.000 NA
ENDROOT
BRANCH   1   7
ATOM      7  C   UNL     1      49.833   7.494  12.785  0.00  0.00    +0.000 C 
BRANCH   7   8
ATOM      8  C   UNL     1      50.229   7.970  14.184  0.00  0.00    +0.000 C 
BRANCH   8   9
ATOM      9  N   UNL     1      50.523   6.848  15.079  0.00  0.00    +0.000 NA
ATOM     10  H   UNL     1      51.246   7.141  15.738  0.00  0.00    +0.000 HD
ATOM     11  H   UNL     1      50.942   6.092  14.536  0.00  0.00    +0.000 HD
ENDBRANCH   8   9
ENDBRANCH   7   8
ENDBRANCH   1   7
BRANCH   4  12
ATOM     12  C   UNL     1      44.312   5.783  12.747  0.00  0.00    +0.000 C 
BRANCH  12  13
ATOM     13  N   UNL     1      44.085   4.593  11.936  0.00  0.00    +0.000 N 
ATOM     14  C   UNL     1      43.664   3.394  12.463  0.00  0.00    +0.000 A 
ATOM     15  C   UNL     1      43.481   2.519  11.420  0.00  0.00    +0.000 A 
ATOM     16  C   UNL     1      44.228   3.048  10.337  0.00  0.00    +0.000 A 
ATOM     17  C   UNL     1      44.743   2.488   9.162  0.00  0.00    +0.000 A 
ATOM     18  C   UNL     1      45.497   3.338   8.376  0.00  0.00    +0.000 A 
ATOM     19 CL   UNL     1      46.397   2.714   7.051  0.00  0.00    +0.000 Cl
ATOM     20  N   UNL     1      45.663   4.659   8.589  0.00  0.00    +0.000 NA
ATOM     21  C   UNL     1      45.138   5.210   9.707  0.00  0.00    +0.000 A 
ATOM     22  C   UNL     1      44.501   4.387  10.633  0.00  0.00    +0.000 A 
ENDBRANCH  12  13
ENDBRANCH   4  12
TORSDOF 5
ENDMDL
MODEL 5
REMARK VINA RESULT:    -6.455      3.089      6.971
REMARK INTER + INTRA:          -8.211
REMARK INTER:                  -7.817
REMARK INTRA:                  -0.393
REMARK UNBOUND:                -0.058
REMARK  Name = 
REMARK  5 active torsions:
REMARK  status: ('A' for Active; 'I' for Inactive)
REMARK    1  A    between atoms: N_1  and  C_2
REMARK    2  A    between atoms: C_2  and  C_3
REMARK    3  A    between atoms: C_3  and  C_4
REMARK    4  A    between atoms: C_7  and  C_8
REMARK    5  A    between atoms: C_8  and  N_9
REMARK                            x       y       z     vdW  Elec       q    Type
REMARK                         _______ _______ _______ _____ _____    ______ ____
ROOT
ATOM      1  C   UNL     1      44.653   9.833  11.663  0.00  0.00    +0.000 A 
ATOM      2  C   UNL     1      45.731   9.599  12.504  0.00  0.00    +0.000 A 
ATOM      3  C   UNL     1      46.086   8.270  12.793  0.00  0.00    +0.000 A 
ATOM      4  C   UNL     1      45.385   7.219  12.203  0.00  0.00    +0.000 A 
ATOM      5  C   UNL     1      44.317   7.557  11.386  0.00  0.00    +0.000 A 
ATOM      6  N   UNL     1      43.941   8.825  11.114  0.00  0.00    +0.000 NA
ENDROOT
BRANCH   1   7
ATOM      7  C   UNL     1      44.188  11.237  11.358  0.00  0.00    +0.000 C 
BRANCH   7   8
ATOM      8  C   UNL     1      42.684  11.246  11.082  0.00  0.00    +0.000 C 
BRANCH   8   9
ATOM      9  N   UNL     1      41.901  11.164  12.317  0.00  0.00    +0.000 NA
ATOM     10  H   UNL     1      42.387  10.544  12.968  0.00  0.00    +0.000 HD
ATOM     11  H   UNL     1      41.012  10.703  12.117  0.00  0.00    +0.000 HD
ENDBRANCH   8   9
ENDBRANCH   7   8
ENDBRANCH   1   7
BRANCH   4  12
ATOM     12  C   UNL     1      45.753   5.774  12.417  0.00  0.00    +0.000 C 
BRANCH  12  13
ATOM     13  N   UNL     1      45.049   4.853  11.534  0.00  0.00    +0.000 N 
ATOM     14  C   UNL     1      44.252   3.831  11.996  0.00  0.00    +0.000 A 
ATOM     15  C   UNL     1      43.690   3.212  10.906  0.00  0.00    +0.000 A 
ATOM     16  C   UNL     1      44.503   3.565   9.800  0.00  0.00    +0.000 A 
ATOM     17  C   UNL     1      44.695   3.004   8.532  0.00  0.00    +0.000 A 
ATOM     18  C   UNL     1      45.654   3.616   7.746  0.00  0.00    +0.000 A 
ATOM     19 CL   UNL     1      46.168   2.875   6.283  0.00  0.00    +0.000 Cl
ATOM     20  N   UNL     1      46.309   4.752   8.056  0.00  0.00    +0.000 NA
ATOM     21  C   UNL     1      46.101   5.316   9.268  0.00  0.00    +0.000 A 
ATOM     22  C   UNL     1      45.270   4.671  10.181  0.00  0.00    +0.000 A 
ENDBRANCH  12  13
ENDBRANCH   4  12
TORSDOF 5
ENDMDL
MODEL 6
REMARK VINA RESULT:    -6.164      2.847      6.773
REMARK INTER + INTRA:          -7.843
REMARK INTER:                  -7.107
REMARK INTRA:                  -0.737
REMARK UNBOUND:                -0.058
REMARK  Name = 
REMARK  5 active torsions:
REMARK  status: ('A' for Active; 'I' for Inactive)
REMARK    1  A    between atoms: N_1  and  C_2
REMARK    2  A    between atoms: C_2  and  C_3
REMARK    3  A    between atoms: C_3  and  C_4
REMARK    4  A    between atoms: C_7  and  C_8
REMARK    5  A    between atoms: C_8  and  N_9
REMARK                            x       y       z     vdW  Elec       q    Type
REMARK                         _______ _______ _______ _____ _____    ______ ____
ROOT
ATOM      1  C   UNL     1      49.001   7.525  14.441  0.00  0.00    +0.000 A 
ATOM      2  C   UNL     1      48.065   8.541  14.561  0.00  0.00    +0.000 A 
ATOM      3  C   UNL     1      46.998   8.588  13.648  0.00  0.00    +0.000 A 
ATOM      4  C   UNL     1      46.873   7.599  12.673  0.00  0.00    +0.000 A 
ATOM      5  C   UNL     1      47.865   6.632  12.630  0.00  0.00    +0.000 A 
ATOM      6  N   UNL     1      48.914   6.581  13.479  0.00  0.00    +0.000 NA
ENDROOT
BRANCH   1   7
ATOM      7  C   UNL     1      50.200   7.452  15.356  0.00  0.00    +0.000 C 
BRANCH   7   8
ATOM      8  C   UNL     1      49.857   6.646  16.611  0.00  0.00    +0.000 C 
BRANCH   8   9
ATOM      9  N   UNL     1      49.501   5.262  16.289  0.00  0.00    +0.000 NA
ATOM     10  H   UNL     1      48.611   5.264  15.788  0.00  0.00    +0.000 HD
ATOM     11  H   UNL     1      49.322   4.755  17.157  0.00  0.00    +0.000 HD
ENDBRANCH   8   9
ENDBRANCH   7   8
ENDBRANCH   1   7
BRANCH   4  12
ATOM     12  C   UNL     1      45.720   7.550  11.706  0.00  0.00    +0.000 C 
BRANCH  12  13
ATOM     13  N   UNL     1      44.956   6.310  11.765  0.00  0.00    +0.000 N 
ATOM     14  C   UNL     1      44.371   5.842  12.919  0.00  0.00    +0.000 A 
ATOM     15  C   UNL     1      43.675   4.701  12.603  0.00  0.00    +0.000 A 
ATOM     16  C   UNL     1      44.220   4.243  11.377  0.00  0.00    +0.000 A 
ATOM     17  C   UNL     1      44.220   3.002  10.730  0.00  0.00    +0.000 A 
ATOM     18  C   UNL     1      44.943   2.941   9.554  0.00  0.00    +0.000 A 
ATOM     19 CL   UNL     1      45.237   1.423   8.803  0.00  0.00    +0.000 Cl
ATOM     20  N   UNL     1      45.527   3.989   8.940  0.00  0.00    +0.000 NA
ATOM     21  C   UNL     1      45.500   5.198   9.545  0.00  0.00    +0.000 A 
ATOM     22  C   UNL     1      44.930   5.308  10.812  0.00  0.00    +0.000 A 
ENDBRANCH  12  13
ENDBRANCH   4  12
TORSDOF 5
ENDMDL
MODEL 7
REMARK VINA RESULT:    -5.776      3.841      5.536
REMARK INTER + INTRA:          -7.353
REMARK INTER:                  -6.653
REMARK INTRA:                  -0.701
REMARK UNBOUND:                -0.058
REMARK  Name = 
REMARK  5 active torsions:
REMARK  status: ('A' for Active; 'I' for Inactive)
REMARK    1  A    between atoms: N_1  and  C_2
REMARK    2  A    between atoms: C_2  and  C_3
REMARK    3  A    between atoms: C_3  and  C_4
REMARK    4  A    between atoms: C_7  and  C_8
REMARK    5  A    between atoms: C_8  and  N_9
REMARK                            x       y       z     vdW  Elec       q    Type
REMARK                         _______ _______ _______ _____ _____    ______ ____
ROOT
ATOM      1  C   UNL     1      44.511   5.107  12.877  0.00  0.00    +0.000 A 
ATOM      2  C   UNL     1      44.813   6.440  12.634  0.00  0.00    +0.000 A 
ATOM      3  C   UNL     1      46.089   6.917  12.978  0.00  0.00    +0.000 A 
ATOM      4  C   UNL     1      47.037   6.044  13.513  0.00  0.00    +0.000 A 
ATOM      5  C   UNL     1      46.635   4.735  13.727  0.00  0.00    +0.000 A 
ATOM      6  N   UNL     1      45.407   4.260  13.428  0.00  0.00    +0.000 NA
ENDROOT
BRANCH   1   7
ATOM      7  C   UNL     1      43.141   4.548  12.580  0.00  0.00    +0.000 C 
BRANCH   7   8
ATOM      8  C   UNL     1      43.254   3.345  11.643  0.00  0.00    +0.000 C 
BRANCH   8   9
ATOM      9  N   UNL     1      43.512   2.103  12.377  0.00  0.00    +0.000 NA
ATOM     10  H   UNL     1      44.279   2.267  13.030  0.00  0.00    +0.000 HD
ATOM     11  H   UNL     1      43.857   1.398  11.724  0.00  0.00    +0.000 HD
ENDBRANCH   8   9
ENDBRANCH   7   8
ENDBRANCH   1   7
BRANCH   4  12
ATOM     12  C   UNL     1      48.443   6.473  13.843  0.00  0.00    +0.000 C 
BRANCH  12  13
ATOM     13  N   UNL     1      48.571   7.110  15.148  0.00  0.00    +0.000 N 
ATOM     14  C   UNL     1      48.884   8.439  15.307  0.00  0.00    +0.000 A 
ATOM     15  C   UNL     1      48.849   8.719  16.652  0.00  0.00    +0.000 A 
ATOM     16  C   UNL     1      48.970   7.470  17.310  0.00  0.00    +0.000 A 
ATOM     17  C   UNL     1      49.357   7.100  18.603  0.00  0.00    +0.000 A 
ATOM     18  C   UNL     1      49.418   5.740  18.842  0.00  0.00    +0.000 A 
ATOM     19 CL   UNL     1      50.123   5.152  20.295  0.00  0.00    +0.000 Cl
ATOM     20  N   UNL     1      49.024   4.777  17.985  0.00  0.00    +0.000 NA
ATOM     21  C   UNL     1      48.617   5.133  16.745  0.00  0.00    +0.000 A 
ATOM     22  C   UNL     1      48.681   6.474  16.371  0.00  0.00    +0.000 A 
ENDBRANCH  12  13
ENDBRANCH   4  12
TORSDOF 5
ENDMDL
MODEL 8
REMARK VINA RESULT:    -5.617      4.206      8.236
REMARK INTER + INTRA:          -7.153
REMARK INTER:                  -6.415
REMARK INTRA:                  -0.738
REMARK UNBOUND:                -0.058
REMARK  Name = 
REMARK  5 active torsions:
REMARK  status: ('A' for Active; 'I' for Inactive)
REMARK    1  A    between atoms: N_1  and  C_2
REMARK    2  A    between atoms: C_2  and  C_3
REMARK    3  A    between atoms: C_3  and  C_4
REMARK    4  A    between atoms: C_7  and  C_8
REMARK    5  A    between atoms: C_8  and  N_9
REMARK                            x       y       z     vdW  Elec       q    Type
REMARK                         _______ _______ _______ _____ _____    ______ ____
ROOT
ATOM      1  C   UNL     1      48.364   6.598  18.685  0.00  0.00    +0.000 A 
ATOM      2  C   UNL     1      48.426   7.887  18.174  0.00  0.00    +0.000 A 
ATOM      3  C   UNL     1      48.655   8.057  16.798  0.00  0.00    +0.000 A 
ATOM      4  C   UNL     1      48.771   6.942  15.969  0.00  0.00    +0.000 A 
ATOM      5  C   UNL     1      48.705   5.698  16.577  0.00  0.00    +0.000 A 
ATOM      6  N   UNL     1      48.512   5.509  17.900  0.00  0.00    +0.000 NA
ENDROOT
BRANCH   1   7
ATOM      7  C   UNL     1      48.175   6.350  20.162  0.00  0.00    +0.000 C 
BRANCH   7   8
ATOM      8  C   UNL     1      49.076   5.203  20.623  0.00  0.00    +0.000 C 
BRANCH   8   9
ATOM      9  N   UNL     1      48.434   3.898  20.442  0.00  0.00    +0.000 NA
ATOM     10  H   UNL     1      47.939   3.658  21.302  0.00  0.00    +0.000 HD
ATOM     11  H   UNL     1      49.157   3.185  20.337  0.00  0.00    +0.000 HD
ENDBRANCH   8   9
ENDBRANCH   7   8
ENDBRANCH   1   7
BRANCH   4  12
ATOM     12  C   UNL     1      48.951   7.052  14.478  0.00  0.00    +0.000 C 
BRANCH  12  13
ATOM     13  N   UNL     1      47.699   7.196  13.745  0.00  0.00    +0.000 N 
ATOM     14  C   UNL     1      47.065   8.404  13.570  0.00  0.00    +0.000 A 
ATOM     15  C   UNL     1      45.964   8.189  12.777  0.00  0.00    +0.000 A 
ATOM     16  C   UNL     1      45.691   6.800  12.865  0.00  0.00    +0.000 A 
ATOM     17  C   UNL     1      44.551   6.029  12.612  0.00  0.00    +0.000 A 
ATOM     18  C   UNL     1      44.667   4.681  12.895  0.00  0.00    +0.000 A 
ATOM     19 CL   UNL     1      43.273   3.675  12.878  0.00  0.00    +0.000 Cl
ATOM     20  N   UNL     1      45.801   4.055  13.266  0.00  0.00    +0.000 NA
ATOM     21  C   UNL     1      46.915   4.793  13.478  0.00  0.00    +0.000 A 
ATOM     22  C   UNL     1      46.838   6.180  13.371  0.00  0.00    +0.000 A 
ENDBRANCH  12  13
ENDBRANCH   4  12
TORSDOF 5
ENDMDL
MODEL 9
REMARK VINA RESULT:    -5.459      4.559      6.188
REMARK INTER + INTRA:          -6.953
REMARK INTER:                  -6.233
REMARK INTRA:                  -0.720
REMARK UNBOUND:                -0.058
REMARK  Name = 
REMARK  5 active torsions:
REMARK  status: ('A' for Active; 'I' for Inactive)
REMARK    1  A    between atoms: N_1  and  C_2
REMARK    2  A    between atoms: C_2  and  C_3
REMARK    3  A    between atoms: C_3  and  C_4
REMARK    4  A    between atoms: C_7  and  C_8
REMARK    5  A    between atoms: C_8  and  N_9
REMARK                            x       y       z     vdW  Elec       q    Type
REMARK                         _______ _______ _______ _____ _____    ______ ____
ROOT
ATOM      1  C   UNL     1      45.141   9.637  11.682  0.00  0.00    +0.000 A 
ATOM      2  C   UNL     1      46.341  10.183  12.114  0.00  0.00    +0.000 A 
ATOM      3  C   UNL     1      47.394   9.317  12.453  0.00  0.00    +0.000 A 
ATOM      4  C   UNL     1      47.234   7.939  12.311  0.00  0.00    +0.000 A 
ATOM      5  C   UNL     1      45.994   7.492  11.881  0.00  0.00    +0.000 A 
ATOM      6  N   UNL     1      44.959   8.304  11.574  0.00  0.00    +0.000 NA
ENDROOT
BRANCH   1   7
ATOM      7  C   UNL     1      43.955  10.513  11.356  0.00  0.00    +0.000 C 
BRANCH   7   8
ATOM      8  C   UNL     1      43.065   9.829  10.316  0.00  0.00    +0.000 C 
BRANCH   8   9
ATOM      9  N   UNL     1      42.182   8.831  10.924  0.00  0.00    +0.000 NA
ATOM     10  H   UNL     1      42.608   7.910  10.810  0.00  0.00    +0.000 HD
ATOM     11  H   UNL     1      41.310   8.794  10.395  0.00  0.00    +0.000 HD
ENDBRANCH   8   9
ENDBRANCH   7   8
ENDBRANCH   1   7
BRANCH   4  12
ATOM     12  C   UNL     1      48.341   6.958  12.592  0.00  0.00    +0.000 C 
BRANCH  12  13
ATOM     13  N   UNL     1      48.606   6.764  14.013  0.00  0.00    +0.000 N 
ATOM     14  C   UNL     1      49.694   7.308  14.655  0.00  0.00    +0.000 A 
ATOM     15  C   UNL     1      49.595   6.991  15.988  0.00  0.00    +0.000 A 
ATOM     16  C   UNL     1      48.710   5.886  16.058  0.00  0.00    +0.000 A 
ATOM     17  C   UNL     1      48.483   4.898  17.023  0.00  0.00    +0.000 A 
ATOM     18  C   UNL     1      47.563   3.926  16.677  0.00  0.00    +0.000 A 
ATOM     19 CL   UNL     1      47.385   2.523  17.655  0.00  0.00    +0.000 Cl
ATOM     20  N   UNL     1      46.802   3.930  15.565  0.00  0.00    +0.000 NA
ATOM     21  C   UNL     1      46.995   4.904  14.646  0.00  0.00    +0.000 A 
ATOM     22  C   UNL     1      48.017   5.829  14.845  0.00  0.00    +0.000 A 
ENDBRANCH  12  13
ENDBRANCH   4  12
TORSDOF 5
ENDMDL
