MODEL 1
REMARK VINA RESULT:    -8.568      0.000      0.000
REMARK INTER + INTRA:         -12.089
REMARK INTER:                 -11.072
REMARK INTRA:                  -1.017
REMARK UNBOUND:                -1.017
REMARK  Name = 
REMARK  5 active torsions:
REMARK  status: ('A' for Active; 'I' for Inactive)
REMARK    1  A    between atoms: C_2  and  C_4
REMARK    2  A    between atoms: C_7  and  C_8
REMARK    3  A    between atoms: C_8  and  C_9
REMARK    4  A    between atoms: C_9  and  C_10
REMARK    5  A    between atoms: C_14  and  C_15
REMARK                            x       y       z     vdW  Elec       q    Type
REMARK                         _______ _______ _______ _____ _____    ______ ____
ROOT
ATOM      1  C   UNL     1      43.879   4.680  11.528  0.00  0.00    +0.000 C 
ATOM      2  C   UNL     1      42.602   5.144  12.231  0.00  0.00    +0.000 C 
ATOM      3  C   UNL     1      43.054   5.847  10.991  0.00  0.00    +0.000 C 
ENDROOT
BRANCH   1   4
ATOM      4  C   UNL     1      45.183   5.007  12.248  0.00  0.00    +0.000 A 
ATOM      5  C   UNL     1      45.790   4.101  13.130  0.00  0.00    +0.000 A 
ATOM      6  C   UNL     1      47.046   4.354  13.672  0.00  0.00    +0.000 A 
ATOM      7  C   UNL     1      47.712   5.540  13.362  0.00  0.00    +0.000 A 
ATOM      8  C   UNL     1      47.138   6.495  12.506  0.00  0.00    +0.000 A 
ATOM      9  C   UNL     1      45.868   6.206  11.978  0.00  0.00    +0.000 A 
BRANCH   8  10
ATOM     10  C   UNL     1      47.864   7.719  12.110  0.00  0.00    +0.000 A 
ATOM     11  C   UNL     1      47.240   8.972  12.150  0.00  0.00    +0.000 A 
ATOM     12  C   UNL     1      47.963  10.107  11.818  0.00  0.00    +0.000 A 
ATOM     13  N   UNL     1      49.262  10.089  11.454  0.00  0.00    +0.000 NA
ATOM     14  C   UNL     1      49.856   8.880  11.420  0.00  0.00    +0.000 A 
ATOM     15  C   UNL     1      49.212   7.690  11.726  0.00  0.00    +0.000 A 
ENDBRANCH   8  10
ENDBRANCH   1   4
BRANCH   1  16
ATOM     16  C   UNL     1      43.766   3.302  10.899  0.00  0.00    +0.000 C 
BRANCH  16  20
ATOM     17  C   UNL     1      46.420   2.705   7.627  0.00  0.00    +0.000 A 
ATOM     18  C   UNL     1      45.945   3.992   7.875  0.00  0.00    +0.000 A 
ATOM     19  C   UNL     1      45.016   4.189   8.896  0.00  0.00    +0.000 A 
ATOM     20  C   UNL     1      44.592   3.095   9.651  0.00  0.00    +0.000 A 
ATOM     21  N   UNL     1      45.011   1.831   9.390  0.00  0.00    +0.000 NA
ATOM     22  C   UNL     1      45.902   1.663   8.380  0.00  0.00    +0.000 A 
BRANCH  17  24
ATOM     23  N   UNL     1      47.491   3.223   5.507  0.00  0.00    +0.000 N 
ATOM     24  C   UNL     1      47.449   2.409   6.608  0.00  0.00    +0.000 C 
ATOM     25  O   UNL     1      48.259   1.508   6.760  0.00  0.00    +0.000 OA
ATOM     26  H   UNL     1      48.266   3.077   4.873  0.00  0.00    +0.000 HD
ATOM     27  H   UNL     1      47.025   4.119   5.474  0.00  0.00    +0.000 HD
ENDBRANCH  17  24
ENDBRANCH  16  20
ENDBRANCH   1  16
TORSDOF 5
ENDMDL
MODEL 2
REMARK VINA RESULT:    -8.559      2.187      3.443
REMARK INTER + INTRA:         -12.078
REMARK INTER:                 -11.397
REMARK INTRA:                  -0.681
REMARK UNBOUND:                -1.017
REMARK  Name = 
REMARK  5 active torsions:
REMARK  status: ('A' for Active; 'I' for Inactive)
REMARK    1  A    between atoms: C_2  and  C_4
REMARK    2  A    between atoms: C_7  and  C_8
REMARK    3  A    between atoms: C_8  and  C_9
REMARK    4  A    between atoms: C_9  and  C_10
REMARK    5  A    between atoms: C_14  and  C_15
REMARK                            x       y       z     vdW  Elec       q    Type
REMARK                         _______ _______ _______ _____ _____    ______ ____
ROOT
ATOM      1  C   UNL     1      44.026   4.753  11.497  0.00  0.00    +0.000 C 
ATOM      2  C   UNL     1      42.826   5.127  12.369  0.00  0.00    +0.000 C 
ATOM      3  C   UNL     1      43.001   5.787  11.039  0.00  0.00    +0.000 C 
ENDROOT
BRANCH   1   4
ATOM      4  C   UNL     1      45.378   5.264  11.984  0.00  0.00    +0.000 A 
ATOM      5  C   UNL     1      46.085   6.260  11.295  0.00  0.00    +0.000 A 
ATOM      6  C   UNL     1      47.248   6.814  11.821  0.00  0.00    +0.000 A 
ATOM      7  C   UNL     1      47.743   6.360  13.044  0.00  0.00    +0.000 A 
ATOM      8  C   UNL     1      47.090   5.346  13.762  0.00  0.00    +0.000 A 
ATOM      9  C   UNL     1      45.919   4.808  13.200  0.00  0.00    +0.000 A 
BRANCH   8  10
ATOM     10  C   UNL     1      47.562   4.907  15.092  0.00  0.00    +0.000 A 
ATOM     11  C   UNL     1      48.359   5.741  15.885  0.00  0.00    +0.000 A 
ATOM     12  C   UNL     1      48.745   5.318  17.148  0.00  0.00    +0.000 A 
ATOM     13  N   UNL     1      48.393   4.130  17.682  0.00  0.00    +0.000 NA
ATOM     14  C   UNL     1      47.624   3.334  16.913  0.00  0.00    +0.000 A 
ATOM     15  C   UNL     1      47.197   3.668  15.636  0.00  0.00    +0.000 A 
ENDBRANCH   8  10
ENDBRANCH   1   4
BRANCH   1  16
ATOM     16  C   UNL     1      43.978   3.331  10.965  0.00  0.00    +0.000 C 
BRANCH  16  20
ATOM     17  C   UNL     1      46.396   2.697   7.521  0.00  0.00    +0.000 A 
ATOM     18  C   UNL     1      45.904   3.979   7.766  0.00  0.00    +0.000 A 
ATOM     19  C   UNL     1      45.049   4.185   8.848  0.00  0.00    +0.000 A 
ATOM     20  C   UNL     1      44.713   3.105   9.666  0.00  0.00    +0.000 A 
ATOM     21  N   UNL     1      45.147   1.845   9.412  0.00  0.00    +0.000 NA
ATOM     22  C   UNL     1      45.964   1.667   8.343  0.00  0.00    +0.000 A 
BRANCH  17  24
ATOM     23  N   UNL     1      47.293   3.177   5.314  0.00  0.00    +0.000 N 
ATOM     24  C   UNL     1      47.353   2.395   6.437  0.00  0.00    +0.000 C 
ATOM     25  O   UNL     1      48.194   1.517   6.553  0.00  0.00    +0.000 OA
ATOM     26  H   UNL     1      48.023   3.030   4.628  0.00  0.00    +0.000 HD
ATOM     27  H   UNL     1      46.804   4.061   5.291  0.00  0.00    +0.000 HD
ENDBRANCH  17  24
ENDBRANCH  16  20
ENDBRANCH   1  16
TORSDOF 5
ENDMDL
MODEL 3
REMARK VINA RESULT:    -7.618      1.294      2.163
REMARK INTER + INTRA:         -10.863
REMARK INTER:                 -10.651
REMARK INTRA:                  -0.211
REMARK UNBOUND:                -1.017
REMARK  Name = 
REMARK  5 active torsions:
REMARK  status: ('A' for Active; 'I' for Inactive)
REMARK    1  A    between atoms: C_2  and  C_4
REMARK    2  A    between atoms: C_7  and  C_8
REMARK    3  A    between atoms: C_8  and  C_9
REMARK    4  A    between atoms: C_9  and  C_10
REMARK    5  A    between atoms: C_14  and  C_15
REMARK                            x       y       z     vdW  Elec       q    Type
REMARK                         _______ _______ _______ _____ _____    ______ ____
ROOT
ATOM      1  C   UNL     1      44.480   4.424  11.738  0.00  0.00    +0.000 C 
ATOM      2  C   UNL     1      45.395   3.393  12.400  0.00  0.00    +0.000 C 
ATOM      3  C   UNL     1      44.166   3.850  13.118  0.00  0.00    +0.000 C 
ENDROOT
BRANCH   1   4
ATOM      4  C   UNL     1      45.029   5.845  11.671  0.00  0.00    +0.000 A 
ATOM      5  C   UNL     1      44.211   6.942  11.366  0.00  0.00    +0.000 A 
ATOM      6  C   UNL     1      44.693   8.246  11.443  0.00  0.00    +0.000 A 
ATOM      7  C   UNL     1      46.020   8.476  11.803  0.00  0.00    +0.000 A 
ATOM      8  C   UNL     1      46.891   7.412  12.092  0.00  0.00    +0.000 A 
ATOM      9  C   UNL     1      46.370   6.110  12.003  0.00  0.00    +0.000 A 
BRANCH   8  10
ATOM     10  C   UNL     1      48.278   7.645  12.547  0.00  0.00    +0.000 A 
ATOM     11  C   UNL     1      49.192   8.341  11.747  0.00  0.00    +0.000 A 
ATOM     12  C   UNL     1      50.471   8.583  12.224  0.00  0.00    +0.000 A 
ATOM     13  N   UNL     1      50.907   8.189  13.438  0.00  0.00    +0.000 NA
ATOM     14  C   UNL     1      50.020   7.521  14.203  0.00  0.00    +0.000 A 
ATOM     15  C   UNL     1      48.724   7.225  13.808  0.00  0.00    +0.000 A 
ENDBRANCH   8  10
ENDBRANCH   1   4
BRANCH   1  16
ATOM     16  C   UNL     1      43.761   3.904  10.505  0.00  0.00    +0.000 C 
BRANCH  16  20
ATOM     17  C   UNL     1      46.592   2.648   7.587  0.00  0.00    +0.000 A 
ATOM     18  C   UNL     1      46.279   4.004   7.674  0.00  0.00    +0.000 A 
ATOM     19  C   UNL     1      45.298   4.419   8.573  0.00  0.00    +0.000 A 
ATOM     20  C   UNL     1      44.659   3.469   9.372  0.00  0.00    +0.000 A 
ATOM     21  N   UNL     1      44.921   2.142   9.264  0.00  0.00    +0.000 NA
ATOM     22  C   UNL     1      45.867   1.761   8.370  0.00  0.00    +0.000 A 
BRANCH  17  24
ATOM     23  N   UNL     1      48.030   2.898   5.645  0.00  0.00    +0.000 N 
ATOM     24  C   UNL     1      47.657   2.121   6.709  0.00  0.00    +0.000 C 
ATOM     25  O   UNL     1      48.217   1.062   6.947  0.00  0.00    +0.000 OA
ATOM     26  H   UNL     1      48.833   2.577   5.117  0.00  0.00    +0.000 HD
ATOM     27  H   UNL     1      47.786   3.875   5.571  0.00  0.00    +0.000 HD
ENDBRANCH  17  24
ENDBRANCH  16  20
ENDBRANCH   1  16
TORSDOF 5
ENDMDL
MODEL 4
REMARK VINA RESULT:    -7.604      3.435      7.108
REMARK INTER + INTRA:         -10.844
REMARK INTER:                 -10.026
REMARK INTRA:                  -0.818
REMARK UNBOUND:                -1.017
REMARK  Name = 
REMARK  5 active torsions:
REMARK  status: ('A' for Active; 'I' for Inactive)
REMARK    1  A    between atoms: C_2  and  C_4
REMARK    2  A    between atoms: C_7  and  C_8
REMARK    3  A    between atoms: C_8  and  C_9
REMARK    4  A    between atoms: C_9  and  C_10
REMARK    5  A    between atoms: C_14  and  C_15
REMARK                            x       y       z     vdW  Elec       q    Type
REMARK                         _______ _______ _______ _____ _____    ______ ____
ROOT
ATOM      1  C   UNL     1      46.239   7.268  12.220  0.00  0.00    +0.000 C 
ATOM      2  C   UNL     1      46.148   8.693  11.672  0.00  0.00    +0.000 C 
ATOM      3  C   UNL     1      45.587   8.390  13.024  0.00  0.00    +0.000 C 
ENDROOT
BRANCH   1   4
ATOM      4  C   UNL     1      45.320   6.247  11.556  0.00  0.00    +0.000 A 
ATOM      5  C   UNL     1      43.935   6.243  11.775  0.00  0.00    +0.000 A 
ATOM      6  C   UNL     1      43.094   5.397  11.059  0.00  0.00    +0.000 A 
ATOM      7  C   UNL     1      43.630   4.514  10.122  0.00  0.00    +0.000 A 
ATOM      8  C   UNL     1      45.013   4.456   9.883  0.00  0.00    +0.000 A 
ATOM      9  C   UNL     1      45.832   5.324  10.626  0.00  0.00    +0.000 A 
BRANCH   8  10
ATOM     10  C   UNL     1      45.586   3.578   8.842  0.00  0.00    +0.000 A 
ATOM     11  C   UNL     1      46.171   4.114   7.689  0.00  0.00    +0.000 A 
ATOM     12  C   UNL     1      46.742   3.264   6.754  0.00  0.00    +0.000 A 
ATOM     13  N   UNL     1      46.779   1.922   6.884  0.00  0.00    +0.000 NA
ATOM     14  C   UNL     1      46.215   1.414   7.998  0.00  0.00    +0.000 A 
ATOM     15  C   UNL     1      45.613   2.183   8.982  0.00  0.00    +0.000 A 
ENDBRANCH   8  10
ENDBRANCH   1   4
BRANCH   1  16
ATOM     16  C   UNL     1      47.657   6.820  12.531  0.00  0.00    +0.000 C 
BRANCH  16  20
ATOM     17  C   UNL     1      47.683   4.464  16.074  0.00  0.00    +0.000 A 
ATOM     18  C   UNL     1      48.283   5.723  16.104  0.00  0.00    +0.000 A 
ATOM     19  C   UNL     1      48.349   6.473  14.931  0.00  0.00    +0.000 A 
ATOM     20  C   UNL     1      47.804   5.951  13.757  0.00  0.00    +0.000 A 
ATOM     21  N   UNL     1      47.259   4.710  13.703  0.00  0.00    +0.000 NA
ATOM     22  C   UNL     1      47.222   3.991  14.855  0.00  0.00    +0.000 A 
BRANCH  17  24
ATOM     23  N   UNL     1      48.523   3.646  18.203  0.00  0.00    +0.000 N 
ATOM     24  C   UNL     1      47.513   3.624  17.277  0.00  0.00    +0.000 C 
ATOM     25  O   UNL     1      46.497   2.973  17.465  0.00  0.00    +0.000 OA
ATOM     26  H   UNL     1      48.346   3.153  19.069  0.00  0.00    +0.000 HD
ATOM     27  H   UNL     1      49.238   4.359  18.211  0.00  0.00    +0.000 HD
ENDBRANCH  17  24
ENDBRANCH  16  20
ENDBRANCH   1  16
TORSDOF 5
ENDMDL
MODEL 5
REMARK VINA RESULT:    -6.714      3.555      5.878
REMARK INTER + INTRA:          -9.694
REMARK INTER:                  -8.680
REMARK INTRA:                  -1.015
REMARK UNBOUND:                -1.017
REMARK  Name = 
REMARK  5 active torsions:
REMARK  status: ('A' for Active; 'I' for Inactive)
REMARK    1  A    between atoms: C_2  and  C_4
REMARK    2  A    between atoms: C_7  and  C_8
REMARK    3  A    between atoms: C_8  and  C_9
REMARK    4  A    between atoms: C_9  and  C_10
REMARK    5  A    between atoms: C_14  and  C_15
REMARK                            x       y       z     vdW  Elec       q    Type
REMARK                         _______ _______ _______ _____ _____    ______ ____
ROOT
ATOM      1  C   UNL     1      47.873   8.045  12.566  0.00  0.00    +0.000 C 
ATOM      2  C   UNL     1      48.618   9.107  11.756  0.00  0.00    +0.000 C 
ATOM      3  C   UNL     1      48.943   7.663  11.547  0.00  0.00    +0.000 C 
ENDROOT
BRANCH   1   4
ATOM      4  C   UNL     1      48.241   7.965  14.044  0.00  0.00    +0.000 A 
ATOM      5  C   UNL     1      48.246   9.100  14.868  0.00  0.00    +0.000 A 
ATOM      6  C   UNL     1      48.449   8.993  16.241  0.00  0.00    +0.000 A 
ATOM      7  C   UNL     1      48.677   7.742  16.814  0.00  0.00    +0.000 A 
ATOM      8  C   UNL     1      48.710   6.577  16.032  0.00  0.00    +0.000 A 
ATOM      9  C   UNL     1      48.502   6.723  14.649  0.00  0.00    +0.000 A 
BRANCH   8  10
ATOM     10  C   UNL     1      48.877   5.239  16.636  0.00  0.00    +0.000 A 
ATOM     11  C   UNL     1      47.886   4.259  16.505  0.00  0.00    +0.000 A 
ATOM     12  C   UNL     1      48.095   2.999  17.043  0.00  0.00    +0.000 A 
ATOM     13  N   UNL     1      49.218   2.639  17.698  0.00  0.00    +0.000 NA
ATOM     14  C   UNL     1      50.169   3.587  17.818  0.00  0.00    +0.000 A 
ATOM     15  C   UNL     1      50.046   4.877  17.321  0.00  0.00    +0.000 A 
ENDBRANCH   8  10
ENDBRANCH   1   4
BRANCH   1  16
ATOM     16  C   UNL     1      46.399   7.929  12.215  0.00  0.00    +0.000 C 
BRANCH  16  20
ATOM     17  C   UNL     1      44.657   4.138  11.378  0.00  0.00    +0.000 A 
ATOM     18  C   UNL     1      44.771   4.541  12.708  0.00  0.00    +0.000 A 
ATOM     19  C   UNL     1      45.408   5.747  13.001  0.00  0.00    +0.000 A 
ATOM     20  C   UNL     1      45.908   6.525  11.955  0.00  0.00    +0.000 A 
ATOM     21  N   UNL     1      45.845   6.122  10.661  0.00  0.00    +0.000 NA
ATOM     22  C   UNL     1      45.235   4.937  10.403  0.00  0.00    +0.000 A 
BRANCH  17  24
ATOM     23  N   UNL     1      44.499   2.180   9.947  0.00  0.00    +0.000 N 
ATOM     24  C   UNL     1      43.947   2.909  10.967  0.00  0.00    +0.000 C 
ATOM     25  O   UNL     1      42.938   2.530  11.542  0.00  0.00    +0.000 OA
ATOM     26  H   UNL     1      44.064   1.287   9.750  0.00  0.00    +0.000 HD
ATOM     27  H   UNL     1      45.450   2.313   9.636  0.00  0.00    +0.000 HD
ENDBRANCH  17  24
ENDBRANCH  16  20
ENDBRANCH   1  16
TORSDOF 5
ENDMDL
MODEL 6
REMARK VINA RESULT:    -6.180      4.023      7.941
REMARK INTER + INTRA:          -9.004
REMARK INTER:                  -8.083
REMARK INTRA:                  -0.921
REMARK UNBOUND:                -1.017
REMARK  Name = 
REMARK  5 active torsions:
REMARK  status: ('A' for Active; 'I' for Inactive)
REMARK    1  A    between atoms: C_2  and  C_4
REMARK    2  A    between atoms: C_7  and  C_8
REMARK    3  A    between atoms: C_8  and  C_9
REMARK    4  A    between atoms: C_9  and  C_10
REMARK    5  A    between atoms: C_14  and  C_15
REMARK                            x       y       z     vdW  Elec       q    Type
REMARK                         _______ _______ _______ _____ _____    ______ ____
ROOT
ATOM      1  C   UNL     1      48.626   8.513  12.546  0.00  0.00    +0.000 C 
ATOM      2  C   UNL     1      49.388   9.388  11.550  0.00  0.00    +0.000 C 
ATOM      3  C   UNL     1      49.082   9.923  12.912  0.00  0.00    +0.000 C 
ENDROOT
BRANCH   1   4
ATOM      4  C   UNL     1      47.146   8.303  12.241  0.00  0.00    +0.000 A 
ATOM      5  C   UNL     1      46.231   9.366  12.247  0.00  0.00    +0.000 A 
ATOM      6  C   UNL     1      44.914   9.186  11.833  0.00  0.00    +0.000 A 
ATOM      7  C   UNL     1      44.479   7.924  11.428  0.00  0.00    +0.000 A 
ATOM      8  C   UNL     1      45.347   6.819  11.428  0.00  0.00    +0.000 A 
ATOM      9  C   UNL     1      46.669   7.038  11.853  0.00  0.00    +0.000 A 
BRANCH   8  10
ATOM     10  C   UNL     1      44.919   5.495  10.932  0.00  0.00    +0.000 A 
ATOM     11  C   UNL     1      43.989   4.725  11.639  0.00  0.00    +0.000 A 
ATOM     12  C   UNL     1      43.573   3.508  11.121  0.00  0.00    +0.000 A 
ATOM     13  N   UNL     1      44.011   3.003   9.950  0.00  0.00    +0.000 NA
ATOM     14  C   UNL     1      44.905   3.750   9.273  0.00  0.00    +0.000 A 
ATOM     15  C   UNL     1      45.386   4.974   9.716  0.00  0.00    +0.000 A 
ENDBRANCH   8  10
ENDBRANCH   1   4
BRANCH   1  16
ATOM     16  C   UNL     1      49.410   7.301  13.022  0.00  0.00    +0.000 C 
BRANCH  16  20
ATOM     17  C   UNL     1      48.475   6.421  17.078  0.00  0.00    +0.000 A 
ATOM     18  C   UNL     1      49.231   7.559  16.799  0.00  0.00    +0.000 A 
ATOM     19  C   UNL     1      49.609   7.818  15.482  0.00  0.00    +0.000 A 
ATOM     20  C   UNL     1      49.213   6.937  14.474  0.00  0.00    +0.000 A 
ATOM     21  N   UNL     1      48.517   5.803  14.738  0.00  0.00    +0.000 NA
ATOM     22  C   UNL     1      48.176   5.564  16.030  0.00  0.00    +0.000 A 
BRANCH  17  24
ATOM     23  N   UNL     1      46.788   5.422  18.515  0.00  0.00    +0.000 N 
ATOM     24  C   UNL     1      47.978   6.097  18.431  0.00  0.00    +0.000 C 
ATOM     25  O   UNL     1      48.620   6.373  19.433  0.00  0.00    +0.000 OA
ATOM     26  H   UNL     1      46.514   5.111  19.439  0.00  0.00    +0.000 HD
ATOM     27  H   UNL     1      46.372   4.952  17.724  0.00  0.00    +0.000 HD
ENDBRANCH  17  24
ENDBRANCH  16  20
ENDBRANCH   1  16
TORSDOF 5
ENDMDL
MODEL 7
REMARK VINA RESULT:    -5.948      4.876      8.146
REMARK INTER + INTRA:          -8.704
REMARK INTER:                  -7.338
REMARK INTRA:                  -1.365
REMARK UNBOUND:                -1.017
REMARK  Name = 
REMARK  5 active torsions:
REMARK  status: ('A' for Active; 'I' for Inactive)
REMARK    1  A    between atoms: C_2  and  C_4
REMARK    2  A    between atoms: C_7  and  C_8
REMARK    3  A    between atoms: C_8  and  C_9
REMARK    4  A    between atoms: C_9  and  C_10
REMARK    5  A    between atoms: C_14  and  C_15
REMARK                            x       y       z     vdW  Elec       q    Type
REMARK                         _______ _______ _______ _____ _____    ______ ____
ROOT
ATOM      1  C   UNL     1      49.264   8.488  17.187  0.00  0.00    +0.000 C 
ATOM      2  C   UNL     1      49.060   9.954  17.571  0.00  0.00    +0.000 C 
ATOM      3  C   UNL     1      47.920   8.997  17.701  0.00  0.00    +0.000 C 
ENDROOT
BRANCH   1   4
ATOM      4  C   UNL     1      49.391   8.210  15.692  0.00  0.00    +0.000 A 
ATOM      5  C   UNL     1      50.566   8.497  14.983  0.00  0.00    +0.000 A 
ATOM      6  C   UNL     1      50.718   8.113  13.654  0.00  0.00    +0.000 A 
ATOM      7  C   UNL     1      49.679   7.453  12.998  0.00  0.00    +0.000 A 
ATOM      8  C   UNL     1      48.471   7.165  13.652  0.00  0.00    +0.000 A 
ATOM      9  C   UNL     1      48.352   7.569  14.994  0.00  0.00    +0.000 A 
BRANCH   8  10
ATOM     10  C   UNL     1      47.392   6.402  12.992  0.00  0.00    +0.000 A 
ATOM     11  C   UNL     1      46.970   6.722  11.696  0.00  0.00    +0.000 A 
ATOM     12  C   UNL     1      45.988   5.955  11.088  0.00  0.00    +0.000 A 
ATOM     13  N   UNL     1      45.398   4.892  11.670  0.00  0.00    +0.000 NA
ATOM     14  C   UNL     1      45.810   4.588  12.917  0.00  0.00    +0.000 A 
ATOM     15  C   UNL     1      46.779   5.301  13.609  0.00  0.00    +0.000 A 
ENDBRANCH   8  10
ENDBRANCH   1   4
BRANCH   1  16
ATOM     16  C   UNL     1      50.209   7.738  18.110  0.00  0.00    +0.000 C 
BRANCH  16  20
ATOM     17  C   UNL     1      50.081   3.549  17.375  0.00  0.00    +0.000 A 
ATOM     18  C   UNL     1      48.902   4.200  17.734  0.00  0.00    +0.000 A 
ATOM     19  C   UNL     1      48.944   5.557  18.052  0.00  0.00    +0.000 A 
ATOM     20  C   UNL     1      50.164   6.233  17.993  0.00  0.00    +0.000 A 
ATOM     21  N   UNL     1      51.325   5.601  17.690  0.00  0.00    +0.000 NA
ATOM     22  C   UNL     1      51.261   4.276  17.401  0.00  0.00    +0.000 A 
BRANCH  17  24
ATOM     23  N   UNL     1      50.918   1.291  17.701  0.00  0.00    +0.000 N 
ATOM     24  C   UNL     1      50.125   2.130  16.964  0.00  0.00    +0.000 C 
ATOM     25  O   UNL     1      49.448   1.710  16.038  0.00  0.00    +0.000 OA
ATOM     26  H   UNL     1      50.854   0.305  17.478  0.00  0.00    +0.000 HD
ATOM     27  H   UNL     1      51.273   1.538  18.613  0.00  0.00    +0.000 HD
ENDBRANCH  17  24
ENDBRANCH  16  20
ENDBRANCH   1  16
TORSDOF 5
ENDMDL
MODEL 8
REMARK VINA RESULT:    -5.849      3.034      5.456
REMARK INTER + INTRA:          -8.576
REMARK INTER:                  -7.806
REMARK INTRA:                  -0.770
REMARK UNBOUND:                -1.017
REMARK  Name = 
REMARK  5 active torsions:
REMARK  status: ('A' for Active; 'I' for Inactive)
REMARK    1  A    between atoms: C_2  and  C_4
REMARK    2  A    between atoms: C_7  and  C_8
REMARK    3  A    between atoms: C_8  and  C_9
REMARK    4  A    between atoms: C_9  and  C_10
REMARK    5  A    between atoms: C_14  and  C_15
REMARK                            x       y       z     vdW  Elec       q    Type
REMARK                         _______ _______ _______ _____ _____    ______ ____
ROOT
ATOM      1  C   UNL     1      47.892   8.103  13.047  0.00  0.00    +0.000 C 
ATOM      2  C   UNL     1      47.654   8.807  14.383  0.00  0.00    +0.000 C 
ATOM      3  C   UNL     1      46.611   8.886  13.316  0.00  0.00    +0.000 C 
ENDROOT
BRANCH   1   4
ATOM      4  C   UNL     1      48.938   8.745  12.141  0.00  0.00    +0.000 A 
ATOM      5  C   UNL     1      48.835  10.079  11.720  0.00  0.00    +0.000 A 
ATOM      6  C   UNL     1      49.862  10.693  11.010  0.00  0.00    +0.000 A 
ATOM      7  C   UNL     1      51.009   9.970  10.682  0.00  0.00    +0.000 A 
ATOM      8  C   UNL     1      51.153   8.623  11.055  0.00  0.00    +0.000 A 
ATOM      9  C   UNL     1      50.095   8.036  11.770  0.00  0.00    +0.000 A 
BRANCH   8  10
ATOM     10  C   UNL     1      52.393   7.869  10.779  0.00  0.00    +0.000 A 
ATOM     11  C   UNL     1      53.581   8.159  11.459  0.00  0.00    +0.000 A 
ATOM     12  C   UNL     1      54.714   7.400  11.211  0.00  0.00    +0.000 A 
ATOM     13  N   UNL     1      54.752   6.371  10.340  0.00  0.00    +0.000 NA
ATOM     14  C   UNL     1      53.604   6.096   9.690  0.00  0.00    +0.000 A 
ATOM     15  C   UNL     1      52.424   6.804   9.866  0.00  0.00    +0.000 A 
ENDBRANCH   8  10
ENDBRANCH   1   4
BRANCH   1  16
ATOM     16  C   UNL     1      47.905   6.586  13.146  0.00  0.00    +0.000 C 
BRANCH  16  20
ATOM     17  C   UNL     1      44.968   4.331  11.049  0.00  0.00    +0.000 A 
ATOM     18  C   UNL     1      45.488   5.475  10.446  0.00  0.00    +0.000 A 
ATOM     19  C   UNL     1      46.394   6.265  11.152  0.00  0.00    +0.000 A 
ATOM     20  C   UNL     1      46.766   5.886  12.443  0.00  0.00    +0.000 A 
ATOM     21  N   UNL     1      46.233   4.802  13.059  0.00  0.00    +0.000 NA
ATOM     22  C   UNL     1      45.340   4.059  12.358  0.00  0.00    +0.000 A 
BRANCH  17  24
ATOM     23  N   UNL     1      44.159   3.315   8.996  0.00  0.00    +0.000 N 
ATOM     24  C   UNL     1      44.050   3.402  10.358  0.00  0.00    +0.000 C 
ATOM     25  O   UNL     1      43.261   2.705  10.976  0.00  0.00    +0.000 OA
ATOM     26  H   UNL     1      43.602   2.598   8.548  0.00  0.00    +0.000 HD
ATOM     27  H   UNL     1      44.959   3.665   8.489  0.00  0.00    +0.000 HD
ENDBRANCH  17  24
ENDBRANCH  16  20
ENDBRANCH   1  16
TORSDOF 5
ENDMDL
MODEL 9
REMARK VINA RESULT:    -5.827      3.588      7.475
REMARK INTER + INTRA:          -8.548
REMARK INTER:                  -9.059
REMARK INTRA:                   0.511
REMARK UNBOUND:                -1.017
REMARK  Name = 
REMARK  5 active torsions:
REMARK  status: ('A' for Active; 'I' for Inactive)
REMARK    1  A    between atoms: C_2  and  C_4
REMARK    2  A    between atoms: C_7  and  C_8
REMARK    3  A    between atoms: C_8  and  C_9
REMARK    4  A    between atoms: C_9  and  C_10
REMARK    5  A    between atoms: C_14  and  C_15
REMARK                            x       y       z     vdW  Elec       q    Type
REMARK                         _______ _______ _______ _____ _____    ______ ____
ROOT
ATOM      1  C   UNL     1      48.773   8.005  12.713  0.00  0.00    +0.000 C 
ATOM      2  C   UNL     1      49.766   7.366  11.740  0.00  0.00    +0.000 C 
ATOM      3  C   UNL     1      49.529   8.842  11.683  0.00  0.00    +0.000 C 
ENDROOT
BRANCH   1   4
ATOM      4  C   UNL     1      47.302   7.708  12.442  0.00  0.00    +0.000 A 
ATOM      5  C   UNL     1      46.285   8.597  12.818  0.00  0.00    +0.000 A 
ATOM      6  C   UNL     1      44.963   8.380  12.444  0.00  0.00    +0.000 A 
ATOM      7  C   UNL     1      44.626   7.248  11.703  0.00  0.00    +0.000 A 
ATOM      8  C   UNL     1      45.601   6.311  11.322  0.00  0.00    +0.000 A 
ATOM      9  C   UNL     1      46.926   6.561  11.719  0.00  0.00    +0.000 A 
BRANCH   8  10
ATOM     10  C   UNL     1      45.270   5.146  10.475  0.00  0.00    +0.000 A 
ATOM     11  C   UNL     1      45.664   5.096   9.133  0.00  0.00    +0.000 A 
ATOM     12  C   UNL     1      45.380   3.968   8.378  0.00  0.00    +0.000 A 
ATOM     13  N   UNL     1      44.737   2.885   8.861  0.00  0.00    +0.000 NA
ATOM     14  C   UNL     1      44.363   2.940  10.155  0.00  0.00    +0.000 A 
ATOM     15  C   UNL     1      44.596   4.027  10.984  0.00  0.00    +0.000 A 
ENDBRANCH   8  10
ENDBRANCH   1   4
BRANCH   1  16
ATOM     16  C   UNL     1      49.228   7.971  14.162  0.00  0.00    +0.000 C 
BRANCH  16  20
ATOM     17  C   UNL     1      47.825   4.739  16.548  0.00  0.00    +0.000 A 
ATOM     18  C   UNL     1      47.531   4.740  15.185  0.00  0.00    +0.000 A 
ATOM     19  C   UNL     1      47.918   5.829  14.407  0.00  0.00    +0.000 A 
ATOM     20  C   UNL     1      48.601   6.888  15.008  0.00  0.00    +0.000 A 
ATOM     21  N   UNL     1      48.852   6.921  16.340  0.00  0.00    +0.000 NA
ATOM     22  C   UNL     1      48.449   5.857  17.081  0.00  0.00    +0.000 A 
BRANCH  17  24
ATOM     23  N   UNL     1      48.434   3.285  18.398  0.00  0.00    +0.000 N 
ATOM     24  C   UNL     1      47.508   3.604  17.440  0.00  0.00    +0.000 C 
ATOM     25  O   UNL     1      46.447   3.006  17.362  0.00  0.00    +0.000 OA
ATOM     26  H   UNL     1      48.158   2.580  19.069  0.00  0.00    +0.000 HD
ATOM     27  H   UNL     1      49.183   3.910  18.662  0.00  0.00    +0.000 HD
ENDBRANCH  17  24
ENDBRANCH  16  20
ENDBRANCH   1  16
TORSDOF 5
ENDMDL
