MODEL 1
REMARK VINA RESULT:    -7.578      0.000      0.000
REMARK INTER + INTRA:         -12.204
REMARK INTER:                 -10.901
REMARK INTRA:                  -1.303
REMARK UNBOUND:                -1.303
REMARK  Name = 
REMARK  8 active torsions:
REMARK  status: ('A' for Active; 'I' for Inactive)
REMARK    1  A    between atoms: N_1  and  C_2
REMARK    2  A    between atoms: C_2  and  C_3
REMARK    3  A    between atoms: C_3  and  N_4
REMARK    4  A    between atoms: C_3  and  C_17
REMARK    5  A    between atoms: C_5  and  C_7
REMARK    6  A    between atoms: C_20  and  C_21
REMARK    7  A    between atoms: C_21  and  N_22
REMARK    8  A    between atoms: C_23  and  C_25
REMARK                            x       y       z     vdW  Elec       q    Type
REMARK                         _______ _______ _______ _____ _____    ______ ____
ROOT
ATOM      1  C   UNL     1      47.152   7.747  13.666  0.00  0.00    +0.000 C 
ENDROOT
BRANCH   1   2
ATOM      2  C   UNL     1      46.266   6.820  12.844  0.00  0.00    +0.000 A 
ATOM      3  C   UNL     1      46.441   5.429  12.944  0.00  0.00    +0.000 A 
ATOM      4  C   UNL     1      45.666   4.546  12.184  0.00  0.00    +0.000 A 
ATOM      5  C   UNL     1      44.706   5.032  11.289  0.00  0.00    +0.000 A 
ATOM      6  C   UNL     1      44.515   6.416  11.199  0.00  0.00    +0.000 A 
ATOM      7  C   UNL     1      45.294   7.298  11.954  0.00  0.00    +0.000 A 
BRANCH   5   8
ATOM      8  C   UNL     1      43.894   4.097  10.435  0.00  0.00    +0.000 C 
BRANCH   8   9
ATOM      9  N   UNL     1      44.723   3.165   9.711  0.00  0.00    +0.000 N 
ATOM     10  C   UNL     1      45.422   3.563   8.597  0.00  0.00    +0.000 C 
ATOM     11  O   UNL     1      45.359   4.704   8.150  0.00  0.00    +0.000 OA
ATOM     12  H   UNL     1      44.864   2.246  10.103  0.00  0.00    +0.000 HD
BRANCH  10  13
ATOM     13  C   UNL     1      46.245   2.553   7.988  0.00  0.00    +0.000 A 
ATOM     14  C   UNL     1      47.309   2.602   7.110  0.00  0.00    +0.000 A 
ATOM     15  N   UNL     1      47.767   1.347   6.806  0.00  0.00    +0.000 NA
ATOM     16  C   UNL     1      47.006   0.526   7.490  0.00  0.00    +0.000 A 
ATOM     17  N   UNL     1      46.078   1.204   8.224  0.00  0.00    +0.000 N 
ATOM     18  H   UNL     1      45.381   0.805   8.837  0.00  0.00    +0.000 HD
ENDBRANCH  10  13
ENDBRANCH   8   9
ENDBRANCH   5   8
ENDBRANCH   1   2
BRANCH   1  19
ATOM     19  N   UNL     1      48.075   6.948  14.465  0.00  0.00    +0.000 N 
ATOM     20  C   UNL     1      48.621   7.423  15.630  0.00  0.00    +0.000 C 
ATOM     21  O   UNL     1      48.314   8.517  16.099  0.00  0.00    +0.000 OA
ATOM     22  H   UNL     1      48.485   6.136  14.013  0.00  0.00    +0.000 HD
BRANCH  20  23
ATOM     23  C   UNL     1      49.557   6.537  16.329  0.00  0.00    +0.000 A 
ATOM     24  C   UNL     1      50.846   6.972  16.614  0.00  0.00    +0.000 A 
ATOM     25  S   UNL     1      51.795   5.807  17.428  0.00  0.00    +0.000 S 
ATOM     26  C   UNL     1      50.530   4.672  17.381  0.00  0.00    +0.000 A 
ATOM     27  N   UNL     1      50.673   3.417  17.874  0.00  0.00    +0.000 NA
ATOM     28  N   UNL     1      49.719   2.605  17.779  0.00  0.00    +0.000 NA
ATOM     29  N   UNL     1      48.548   3.013  17.201  0.00  0.00    +0.000 N 
ATOM     30  C   UNL     1      48.287   4.271  16.711  0.00  0.00    +0.000 A 
ATOM     31  O   UNL     1      47.190   4.577  16.252  0.00  0.00    +0.000 OA
ATOM     32  C   UNL     1      49.396   5.184  16.789  0.00  0.00    +0.000 A 
ATOM     33  H   UNL     1      47.811   2.322  17.166  0.00  0.00    +0.000 HD
ENDBRANCH  20  23
ENDBRANCH   1  19
BRANCH   1  34
ATOM     34  C   UNL     1      47.925   8.831  12.854  0.00  0.00    +0.000 C 
BRANCH  34  35
ATOM     35  N   UNL     1      47.840  10.184  13.418  0.00  0.00    +0.000 NA
ATOM     36  H   UNL     1      47.166  10.185  14.183  0.00  0.00    +0.000 HD
ATOM     37  H   UNL     1      47.469  10.819  12.711  0.00  0.00    +0.000 HD
ENDBRANCH  34  35
ENDBRANCH   1  34
TORSDOF 8
ENDMDL
MODEL 2
REMARK VINA RESULT:    -7.476      2.636      3.859
REMARK INTER + INTRA:         -12.057
REMARK INTER:                 -10.586
REMARK INTRA:                  -1.471
REMARK UNBOUND:                -1.303
REMARK  Name = 
REMARK  8 active torsions:
REMARK  status: ('A' for Active; 'I' for Inactive)
REMARK    1  A    between atoms: N_1  and  C_2
REMARK    2  A    between atoms: C_2  and  C_3
REMARK    3  A    between atoms: C_3  and  N_4
REMARK    4  A    between atoms: C_3  and  C_17
REMARK    5  A    between atoms: C_5  and  C_7
REMARK    6  A    between atoms: C_20  and  C_21
REMARK    7  A    between atoms: C_21  and  N_22
REMARK    8  A    between atoms: C_23  and  C_25
REMARK                            x       y       z     vdW  Elec       q    Type
REMARK                         _______ _______ _______ _____ _____    ______ ____
ROOT
ATOM      1  C   UNL     1      47.831   4.980  15.117  0.00  0.00    +0.000 C 
ENDROOT
BRANCH   1   2
ATOM      2  C   UNL     1      46.910   4.824  13.914  0.00  0.00    +0.000 A 
ATOM      3  C   UNL     1      46.458   3.543  13.552  0.00  0.00    +0.000 A 
ATOM      4  C   UNL     1      45.634   3.355  12.437  0.00  0.00    +0.000 A 
ATOM      5  C   UNL     1      45.254   4.443  11.642  0.00  0.00    +0.000 A 
ATOM      6  C   UNL     1      45.687   5.723  12.008  0.00  0.00    +0.000 A 
ATOM      7  C   UNL     1      46.516   5.909  13.119  0.00  0.00    +0.000 A 
BRANCH   5   8
ATOM      8  C   UNL     1      44.404   4.252  10.416  0.00  0.00    +0.000 C 
BRANCH   8   9
ATOM      9  N   UNL     1      45.061   3.443   9.420  0.00  0.00    +0.000 N 
ATOM     10  C   UNL     1      45.842   4.020   8.447  0.00  0.00    +0.000 C 
ATOM     11  O   UNL     1      45.996   5.234   8.358  0.00  0.00    +0.000 OA
ATOM     12  H   UNL     1      45.025   2.439   9.518  0.00  0.00    +0.000 HD
BRANCH  10  13
ATOM     13  C   UNL     1      46.477   3.104   7.537  0.00  0.00    +0.000 A 
ATOM     14  C   UNL     1      46.725   1.748   7.581  0.00  0.00    +0.000 A 
ATOM     15  N   UNL     1      47.380   1.320   6.456  0.00  0.00    +0.000 NA
ATOM     16  C   UNL     1      47.532   2.393   5.716  0.00  0.00    +0.000 A 
ATOM     17  N   UNL     1      46.999   3.493   6.320  0.00  0.00    +0.000 N 
ATOM     18  H   UNL     1      46.980   4.436   5.957  0.00  0.00    +0.000 HD
ENDBRANCH  10  13
ENDBRANCH   8   9
ENDBRANCH   5   8
ENDBRANCH   1   2
BRANCH   1  19
ATOM     19  N   UNL     1      47.833   6.375  15.544  0.00  0.00    +0.000 N 
ATOM     20  C   UNL     1      49.000   7.073  15.730  0.00  0.00    +0.000 C 
ATOM     21  O   UNL     1      50.100   6.585  15.483  0.00  0.00    +0.000 OA
ATOM     22  H   UNL     1      46.966   6.736  15.930  0.00  0.00    +0.000 HD
BRANCH  20  23
ATOM     23  C   UNL     1      48.873   8.460  16.187  0.00  0.00    +0.000 A 
ATOM     24  C   UNL     1      49.342   9.500  15.394  0.00  0.00    +0.000 A 
ATOM     25  S   UNL     1      49.113  11.044  16.088  0.00  0.00    +0.000 S 
ATOM     26  C   UNL     1      48.424  10.367  17.487  0.00  0.00    +0.000 A 
ATOM     27  N   UNL     1      48.029  11.132  18.535  0.00  0.00    +0.000 NA
ATOM     28  N   UNL     1      47.562  10.577  19.562  0.00  0.00    +0.000 NA
ATOM     29  N   UNL     1      47.440   9.216  19.589  0.00  0.00    +0.000 N 
ATOM     30  C   UNL     1      47.769   8.356  18.568  0.00  0.00    +0.000 A 
ATOM     31  O   UNL     1      47.582   7.145  18.649  0.00  0.00    +0.000 OA
ATOM     32  C   UNL     1      48.339   8.995  17.411  0.00  0.00    +0.000 A 
ATOM     33  H   UNL     1      47.044   8.827  20.434  0.00  0.00    +0.000 HD
ENDBRANCH  20  23
ENDBRANCH   1  19
BRANCH   1  34
ATOM     34  C   UNL     1      47.527   4.037  16.322  0.00  0.00    +0.000 C 
BRANCH  34  35
ATOM     35  N   UNL     1      46.775   4.672  17.411  0.00  0.00    +0.000 NA
ATOM     36  H   UNL     1      47.354   4.695  18.249  0.00  0.00    +0.000 HD
ATOM     37  H   UNL     1      45.965   4.095  17.641  0.00  0.00    +0.000 HD
ENDBRANCH  34  35
ENDBRANCH   1  34
TORSDOF 8
ENDMDL
MODEL 3
REMARK VINA RESULT:    -7.099      4.040      4.657
REMARK INTER + INTRA:         -11.515
REMARK INTER:                 -10.375
REMARK INTRA:                  -1.140
REMARK UNBOUND:                -1.303
REMARK  Name = 
REMARK  8 active torsions:
REMARK  status: ('A' for Active; 'I' for Inactive)
REMARK    1  A    between atoms: N_1  and  C_2
REMARK    2  A    between atoms: C_2  and  C_3
REMARK    3  A    between atoms: C_3  and  N_4
REMARK    4  A    between atoms: C_3  and  C_17
REMARK    5  A    between atoms: C_5  and  C_7
REMARK    6  A    between atoms: C_20  and  C_21
REMARK    7  A    between atoms: C_21  and  N_22
REMARK    8  A    between atoms: C_23  and  C_25
REMARK                            x       y       z     vdW  Elec       q    Type
REMARK                         _______ _______ _______ _____ _____    ______ ____
ROOT
ATOM      1  C   UNL     1      45.766   8.687  12.589  0.00  0.00    +0.000 C 
ENDROOT
BRANCH   1   2
ATOM      2  C   UNL     1      45.320   7.287  12.187  0.00  0.00    +0.000 A 
ATOM      3  C   UNL     1      46.136   6.186  12.498  0.00  0.00    +0.000 A 
ATOM      4  C   UNL     1      45.773   4.888  12.120  0.00  0.00    +0.000 A 
ATOM      5  C   UNL     1      44.593   4.659  11.403  0.00  0.00    +0.000 A 
ATOM      6  C   UNL     1      43.768   5.750  11.106  0.00  0.00    +0.000 A 
ATOM      7  C   UNL     1      44.134   7.048  11.478  0.00  0.00    +0.000 A 
BRANCH   5   8
ATOM      8  C   UNL     1      44.211   3.275  10.953  0.00  0.00    +0.000 C 
BRANCH   8   9
ATOM      9  N   UNL     1      45.192   2.704  10.064  0.00  0.00    +0.000 N 
ATOM     10  C   UNL     1      45.209   3.034   8.730  0.00  0.00    +0.000 C 
ATOM     11  O   UNL     1      44.390   3.797   8.227  0.00  0.00    +0.000 OA
ATOM     12  H   UNL     1      45.930   2.143  10.462  0.00  0.00    +0.000 HD
BRANCH  10  13
ATOM     13  C   UNL     1      46.260   2.430   7.956  0.00  0.00    +0.000 A 
ATOM     14  C   UNL     1      46.666   1.125   7.768  0.00  0.00    +0.000 A 
ATOM     15  N   UNL     1      47.746   1.050   6.928  0.00  0.00    +0.000 NA
ATOM     16  C   UNL     1      48.006   2.291   6.589  0.00  0.00    +0.000 A 
ATOM     17  N   UNL     1      47.135   3.160   7.177  0.00  0.00    +0.000 N 
ATOM     18  H   UNL     1      47.117   4.165   7.073  0.00  0.00    +0.000 HD
ENDBRANCH  10  13
ENDBRANCH   8   9
ENDBRANCH   5   8
ENDBRANCH   1   2
BRANCH   1  19
ATOM     19  N   UNL     1      47.051   8.981  11.965  0.00  0.00    +0.000 N 
ATOM     20  C   UNL     1      48.029   9.688  12.619  0.00  0.00    +0.000 C 
ATOM     21  O   UNL     1      47.903  10.053  13.785  0.00  0.00    +0.000 OA
ATOM     22  H   UNL     1      47.108   8.860  10.958  0.00  0.00    +0.000 HD
BRANCH  20  23
ATOM     23  C   UNL     1      49.266   9.944  11.875  0.00  0.00    +0.000 A 
ATOM     24  C   UNL     1      49.577  11.234  11.465  0.00  0.00    +0.000 A 
ATOM     25  S   UNL     1      51.052  11.342  10.610  0.00  0.00    +0.000 S 
ATOM     26  C   UNL     1      51.297   9.664  10.722  0.00  0.00    +0.000 A 
ATOM     27  N   UNL     1      52.368   9.055  10.156  0.00  0.00    +0.000 NA
ATOM     28  N   UNL     1      52.480   7.805  10.235  0.00  0.00    +0.000 NA
ATOM     29  N   UNL     1      51.530   7.090  10.910  0.00  0.00    +0.000 N 
ATOM     30  C   UNL     1      50.433   7.613  11.553  0.00  0.00    +0.000 A 
ATOM     31  O   UNL     1      49.649   6.909  12.184  0.00  0.00    +0.000 OA
ATOM     32  C   UNL     1      50.291   9.039  11.426  0.00  0.00    +0.000 A 
ATOM     33  H   UNL     1      51.680   6.091  10.954  0.00  0.00    +0.000 HD
ENDBRANCH  20  23
ENDBRANCH   1  19
BRANCH   1  34
ATOM     34  C   UNL     1      44.742   9.827  12.302  0.00  0.00    +0.000 C 
BRANCH  34  35
ATOM     35  N   UNL     1      45.344  11.159  12.162  0.00  0.00    +0.000 NA
ATOM     36  H   UNL     1      44.777  11.837  12.668  0.00  0.00    +0.000 HD
ATOM     37  H   UNL     1      45.314  11.439  11.181  0.00  0.00    +0.000 HD
ENDBRANCH  34  35
ENDBRANCH   1  34
TORSDOF 8
ENDMDL
MODEL 4
REMARK VINA RESULT:    -7.088      3.037      9.524
REMARK INTER + INTRA:         -11.498
REMARK INTER:                 -10.659
REMARK INTRA:                  -0.839
REMARK UNBOUND:                -1.303
REMARK  Name = 
REMARK  8 active torsions:
REMARK  status: ('A' for Active; 'I' for Inactive)
REMARK    1  A    between atoms: N_1  and  C_2
REMARK    2  A    between atoms: C_2  and  C_3
REMARK    3  A    between atoms: C_3  and  N_4
REMARK    4  A    between atoms: C_3  and  C_17
REMARK    5  A    between atoms: C_5  and  C_7
REMARK    6  A    between atoms: C_20  and  C_21
REMARK    7  A    between atoms: C_21  and  N_22
REMARK    8  A    between atoms: C_23  and  C_25
REMARK                            x       y       z     vdW  Elec       q    Type
REMARK                         _______ _______ _______ _____ _____    ______ ____
ROOT
ATOM      1  C   UNL     1      44.497   4.148  11.567  0.00  0.00    +0.000 C 
ENDROOT
BRANCH   1   2
ATOM      2  C   UNL     1      45.539   4.862  12.419  0.00  0.00    +0.000 A 
ATOM      3  C   UNL     1      45.886   6.190  12.116  0.00  0.00    +0.000 A 
ATOM      4  C   UNL     1      46.858   6.871  12.858  0.00  0.00    +0.000 A 
ATOM      5  C   UNL     1      47.525   6.233  13.910  0.00  0.00    +0.000 A 
ATOM      6  C   UNL     1      47.172   4.916  14.227  0.00  0.00    +0.000 A 
ATOM      7  C   UNL     1      46.204   4.235  13.482  0.00  0.00    +0.000 A 
BRANCH   5   8
ATOM      8  C   UNL     1      48.603   6.937  14.689  0.00  0.00    +0.000 C 
BRANCH   8   9
ATOM      9  N   UNL     1      48.298   7.007  16.097  0.00  0.00    +0.000 N 
ATOM     10  C   UNL     1      48.929   6.181  16.996  0.00  0.00    +0.000 C 
ATOM     11  O   UNL     1      49.752   5.336  16.653  0.00  0.00    +0.000 OA
ATOM     12  H   UNL     1      47.694   7.748  16.420  0.00  0.00    +0.000 HD
BRANCH  10  13
ATOM     13  C   UNL     1      48.569   6.375  18.375  0.00  0.00    +0.000 A 
ATOM     14  C   UNL     1      48.405   7.498  19.159  0.00  0.00    +0.000 A 
ATOM     15  N   UNL     1      48.058   7.167  20.443  0.00  0.00    +0.000 NA
ATOM     16  C   UNL     1      47.999   5.856  20.458  0.00  0.00    +0.000 A 
ATOM     17  N   UNL     1      48.292   5.332  19.234  0.00  0.00    +0.000 N 
ATOM     18  H   UNL     1      48.309   4.353  18.981  0.00  0.00    +0.000 HD
ENDBRANCH  10  13
ENDBRANCH   8   9
ENDBRANCH   5   8
ENDBRANCH   1   2
BRANCH   1  19
ATOM     19  N   UNL     1      45.169   3.236  10.648  0.00  0.00    +0.000 N 
ATOM     20  C   UNL     1      44.908   3.244   9.301  0.00  0.00    +0.000 C 
ATOM     21  O   UNL     1      44.147   4.061   8.787  0.00  0.00    +0.000 OA
ATOM     22  H   UNL     1      45.648   2.442  11.061  0.00  0.00    +0.000 HD
BRANCH  20  23
ATOM     23  C   UNL     1      45.626   2.261   8.484  0.00  0.00    +0.000 A 
ATOM     24  C   UNL     1      45.397   0.903   8.670  0.00  0.00    +0.000 A 
ATOM     25  S   UNL     1      46.323  -0.092   7.634  0.00  0.00    +0.000 S 
ATOM     26  C   UNL     1      47.089   1.258   6.941  0.00  0.00    +0.000 A 
ATOM     27  N   UNL     1      48.050   1.129   5.993  0.00  0.00    +0.000 NA
ATOM     28  N   UNL     1      48.613   2.159   5.542  0.00  0.00    +0.000 NA
ATOM     29  N   UNL     1      48.225   3.388   6.001  0.00  0.00    +0.000 N 
ATOM     30  C   UNL     1      47.236   3.629   6.924  0.00  0.00    +0.000 A 
ATOM     31  O   UNL     1      46.909   4.767   7.249  0.00  0.00    +0.000 OA
ATOM     32  C   UNL     1      46.623   2.444   7.464  0.00  0.00    +0.000 A 
ATOM     33  H   UNL     1      48.702   4.180   5.591  0.00  0.00    +0.000 HD
ENDBRANCH  20  23
ENDBRANCH   1  19
BRANCH   1  34
ATOM     34  C   UNL     1      43.378   3.404  12.359  0.00  0.00    +0.000 C 
BRANCH  34  35
ATOM     35  N   UNL     1      42.994   2.107  11.788  0.00  0.00    +0.000 NA
ATOM     36  H   UNL     1      43.677   1.404  12.066  0.00  0.00    +0.000 HD
ATOM     37  H   UNL     1      43.040   2.162  10.770  0.00  0.00    +0.000 HD
ENDBRANCH  34  35
ENDBRANCH   1  34
TORSDOF 8
ENDMDL
MODEL 5
REMARK VINA RESULT:    -6.913      1.913      2.333
REMARK INTER + INTRA:         -11.248
REMARK INTER:                 -10.249
REMARK INTRA:                  -0.998
REMARK UNBOUND:                -1.303
REMARK  Name = 
REMARK  8 active torsions:
REMARK  status: ('A' for Active; 'I' for Inactive)
REMARK    1  A    between atoms: N_1  and  C_2
REMARK    2  A    between atoms: C_2  and  C_3
REMARK    3  A    between atoms: C_3  and  N_4
REMARK    4  A    between atoms: C_3  and  C_17
REMARK    5  A    between atoms: C_5  and  C_7
REMARK    6  A    between atoms: C_20  and  C_21
REMARK    7  A    between atoms: C_21  and  N_22
REMARK    8  A    between atoms: C_23  and  C_25
REMARK                            x       y       z     vdW  Elec       q    Type
REMARK                         _______ _______ _______ _____ _____    ______ ____
ROOT
ATOM      1  C   UNL     1      48.011   7.683  13.751  0.00  0.00    +0.000 C 
ENDROOT
BRANCH   1   2
ATOM      2  C   UNL     1      47.123   6.680  13.026  0.00  0.00    +0.000 A 
ATOM      3  C   UNL     1      46.571   7.022  11.779  0.00  0.00    +0.000 A 
ATOM      4  C   UNL     1      45.728   6.138  11.095  0.00  0.00    +0.000 A 
ATOM      5  C   UNL     1      45.399   4.896  11.650  0.00  0.00    +0.000 A 
ATOM      6  C   UNL     1      45.959   4.544  12.884  0.00  0.00    +0.000 A 
ATOM      7  C   UNL     1      46.797   5.430  13.569  0.00  0.00    +0.000 A 
BRANCH   5   8
ATOM      8  C   UNL     1      44.460   3.953  10.947  0.00  0.00    +0.000 C 
BRANCH   8   9
ATOM      9  N   UNL     1      45.153   3.079  10.033  0.00  0.00    +0.000 N 
ATOM     10  C   UNL     1      45.335   3.435   8.718  0.00  0.00    +0.000 C 
ATOM     11  O   UNL     1      44.901   4.485   8.252  0.00  0.00    +0.000 OA
ATOM     12  H   UNL     1      45.597   2.252  10.406  0.00  0.00    +0.000 HD
BRANCH  10  13
ATOM     13  C   UNL     1      46.077   2.498   7.919  0.00  0.00    +0.000 A 
ATOM     14  C   UNL     1      46.326   1.146   8.036  0.00  0.00    +0.000 A 
ATOM     15  N   UNL     1      47.110   0.690   7.008  0.00  0.00    +0.000 NA
ATOM     16  C   UNL     1      47.340   1.740   6.256  0.00  0.00    +0.000 A 
ATOM     17  N   UNL     1      46.734   2.853   6.759  0.00  0.00    +0.000 N 
ATOM     18  H   UNL     1      46.751   3.783   6.365  0.00  0.00    +0.000 HD
ENDBRANCH  10  13
ENDBRANCH   8   9
ENDBRANCH   5   8
ENDBRANCH   1   2
BRANCH   1  19
ATOM     19  N   UNL     1      48.002   7.389  15.180  0.00  0.00    +0.000 N 
ATOM     20  C   UNL     1      48.366   8.327  16.114  0.00  0.00    +0.000 C 
ATOM     21  O   UNL     1      48.652   9.481  15.805  0.00  0.00    +0.000 OA
ATOM     22  H   UNL     1      47.956   6.410  15.444  0.00  0.00    +0.000 HD
BRANCH  20  23
ATOM     23  C   UNL     1      48.344   7.902  17.517  0.00  0.00    +0.000 A 
ATOM     24  C   UNL     1      47.807   8.739  18.488  0.00  0.00    +0.000 A 
ATOM     25  S   UNL     1      47.870   8.082  20.064  0.00  0.00    +0.000 S 
ATOM     26  C   UNL     1      48.657   6.684  19.504  0.00  0.00    +0.000 A 
ATOM     27  N   UNL     1      49.052   5.696  20.345  0.00  0.00    +0.000 NA
ATOM     28  N   UNL     1      49.666   4.702  19.882  0.00  0.00    +0.000 NA
ATOM     29  N   UNL     1      49.900   4.626  18.537  0.00  0.00    +0.000 N 
ATOM     30  C   UNL     1      49.505   5.548  17.597  0.00  0.00    +0.000 A 
ATOM     31  O   UNL     1      49.708   5.385  16.397  0.00  0.00    +0.000 OA
ATOM     32  C   UNL     1      48.837   6.702  18.138  0.00  0.00    +0.000 A 
ATOM     33  H   UNL     1      50.384   3.796  18.221  0.00  0.00    +0.000 HD
ENDBRANCH  20  23
ENDBRANCH   1  19
BRANCH   1  34
ATOM     34  C   UNL     1      49.474   7.791  13.221  0.00  0.00    +0.000 C 
BRANCH  34  35
ATOM     35  N   UNL     1      50.479   7.166  14.090  0.00  0.00    +0.000 NA
ATOM     36  H   UNL     1      51.120   6.617  13.518  0.00  0.00    +0.000 HD
ATOM     37  H   UNL     1      50.017   6.505  14.715  0.00  0.00    +0.000 HD
ENDBRANCH  34  35
ENDBRANCH   1  34
TORSDOF 8
ENDMDL
MODEL 6
REMARK VINA RESULT:    -6.881      4.032      8.492
REMARK INTER + INTRA:         -11.201
REMARK INTER:                 -10.083
REMARK INTRA:                  -1.118
REMARK UNBOUND:                -1.303
REMARK  Name = 
REMARK  8 active torsions:
REMARK  status: ('A' for Active; 'I' for Inactive)
REMARK    1  A    between atoms: N_1  and  C_2
REMARK    2  A    between atoms: C_2  and  C_3
REMARK    3  A    between atoms: C_3  and  N_4
REMARK    4  A    between atoms: C_3  and  C_17
REMARK    5  A    between atoms: C_5  and  C_7
REMARK    6  A    between atoms: C_20  and  C_21
REMARK    7  A    between atoms: C_21  and  N_22
REMARK    8  A    between atoms: C_23  and  C_25
REMARK                            x       y       z     vdW  Elec       q    Type
REMARK                         _______ _______ _______ _____ _____    ______ ____
ROOT
ATOM      1  C   UNL     1      44.262   4.362  11.541  0.00  0.00    +0.000 C 
ENDROOT
BRANCH   1   2
ATOM      2  C   UNL     1      45.266   5.393  12.042  0.00  0.00    +0.000 A 
ATOM      3  C   UNL     1      46.264   5.001  12.951  0.00  0.00    +0.000 A 
ATOM      4  C   UNL     1      47.187   5.924  13.455  0.00  0.00    +0.000 A 
ATOM      5  C   UNL     1      47.123   7.271  13.077  0.00  0.00    +0.000 A 
ATOM      6  C   UNL     1      46.142   7.663  12.160  0.00  0.00    +0.000 A 
ATOM      7  C   UNL     1      45.217   6.741  11.661  0.00  0.00    +0.000 A 
BRANCH   5   8
ATOM      8  C   UNL     1      48.081   8.283  13.643  0.00  0.00    +0.000 C 
BRANCH   8   9
ATOM      9  N   UNL     1      49.417   8.114  13.127  0.00  0.00    +0.000 N 
ATOM     10  C   UNL     1      49.824   8.779  11.995  0.00  0.00    +0.000 C 
ATOM     11  O   UNL     1      49.078   9.517  11.358  0.00  0.00    +0.000 OA
ATOM     12  H   UNL     1      50.079   7.585  13.675  0.00  0.00    +0.000 HD
BRANCH  10  13
ATOM     13  C   UNL     1      51.191   8.560  11.605  0.00  0.00    +0.000 A 
ATOM     14  C   UNL     1      52.350   9.289  11.772  0.00  0.00    +0.000 A 
ATOM     15  N   UNL     1      53.426   8.658  11.205  0.00  0.00    +0.000 NA
ATOM     16  C   UNL     1      52.947   7.546  10.698  0.00  0.00    +0.000 A 
ATOM     17  N   UNL     1      51.606   7.437  10.918  0.00  0.00    +0.000 N 
ATOM     18  H   UNL     1      51.005   6.676  10.636  0.00  0.00    +0.000 HD
ENDBRANCH  10  13
ENDBRANCH   8   9
ENDBRANCH   5   8
ENDBRANCH   1   2
BRANCH   1  19
ATOM     19  N   UNL     1      44.945   3.404  10.679  0.00  0.00    +0.000 N 
ATOM     20  C   UNL     1      44.765   3.398   9.319  0.00  0.00    +0.000 C 
ATOM     21  O   UNL     1      44.076   4.238   8.747  0.00  0.00    +0.000 OA
ATOM     22  H   UNL     1      45.361   2.597  11.134  0.00  0.00    +0.000 HD
BRANCH  20  23
ATOM     23  C   UNL     1      45.485   2.368   8.563  0.00  0.00    +0.000 A 
ATOM     24  C   UNL     1      45.199   1.025   8.773  0.00  0.00    +0.000 A 
ATOM     25  S   UNL     1      46.136  -0.031   7.809  0.00  0.00    +0.000 S 
ATOM     26  C   UNL     1      46.982   1.272   7.118  0.00  0.00    +0.000 A 
ATOM     27  N   UNL     1      47.981   1.084   6.221  0.00  0.00    +0.000 NA
ATOM     28  N   UNL     1      48.601   2.080   5.771  0.00  0.00    +0.000 NA
ATOM     29  N   UNL     1      48.237   3.334   6.178  0.00  0.00    +0.000 N 
ATOM     30  C   UNL     1      47.215   3.635   7.046  0.00  0.00    +0.000 A 
ATOM     31  O   UNL     1      46.915   4.792   7.326  0.00  0.00    +0.000 OA
ATOM     32  C   UNL     1      46.535   2.487   7.588  0.00  0.00    +0.000 A 
ATOM     33  H   UNL     1      48.760   4.097   5.771  0.00  0.00    +0.000 HD
ENDBRANCH  20  23
ENDBRANCH   1  19
BRANCH   1  34
ATOM     34  C   UNL     1      43.450   3.623  12.649  0.00  0.00    +0.000 C 
BRANCH  34  35
ATOM     35  N   UNL     1      43.466   2.159  12.535  0.00  0.00    +0.000 NA
ATOM     36  H   UNL     1      43.769   1.759  13.422  0.00  0.00    +0.000 HD
ATOM     37  H   UNL     1      44.166   1.885  11.845  0.00  0.00    +0.000 HD
ENDBRANCH  34  35
ENDBRANCH   1  34
TORSDOF 8
ENDMDL
MODEL 7
REMARK VINA RESULT:    -6.553      3.030      5.468
REMARK INTER + INTRA:         -10.729
REMARK INTER:                  -9.867
REMARK INTRA:                  -0.862
REMARK UNBOUND:                -1.303
REMARK  Name = 
REMARK  8 active torsions:
REMARK  status: ('A' for Active; 'I' for Inactive)
REMARK    1  A    between atoms: N_1  and  C_2
REMARK    2  A    between atoms: C_2  and  C_3
REMARK    3  A    between atoms: C_3  and  N_4
REMARK    4  A    between atoms: C_3  and  C_17
REMARK    5  A    between atoms: C_5  and  C_7
REMARK    6  A    between atoms: C_20  and  C_21
REMARK    7  A    between atoms: C_21  and  N_22
REMARK    8  A    between atoms: C_23  and  C_25
REMARK                            x       y       z     vdW  Elec       q    Type
REMARK                         _______ _______ _______ _____ _____    ______ ____
ROOT
ATOM      1  C   UNL     1      48.673   3.841  18.210  0.00  0.00    +0.000 C 
ENDROOT
BRANCH   1   2
ATOM      2  C   UNL     1      48.354   4.541  16.895  0.00  0.00    +0.000 A 
ATOM      3  C   UNL     1      48.965   5.773  16.602  0.00  0.00    +0.000 A 
ATOM      4  C   UNL     1      48.676   6.460  15.418  0.00  0.00    +0.000 A 
ATOM      5  C   UNL     1      47.753   5.941  14.502  0.00  0.00    +0.000 A 
ATOM      6  C   UNL     1      47.154   4.707  14.781  0.00  0.00    +0.000 A 
ATOM      7  C   UNL     1      47.439   4.024  15.968  0.00  0.00    +0.000 A 
BRANCH   5   8
ATOM      8  C   UNL     1      47.400   6.688  13.245  0.00  0.00    +0.000 C 
BRANCH   8   9
ATOM      9  N   UNL     1      46.844   5.821  12.236  0.00  0.00    +0.000 N 
ATOM     10  C   UNL     1      45.511   5.887  11.907  0.00  0.00    +0.000 C 
ATOM     11  O   UNL     1      44.731   6.654  12.462  0.00  0.00    +0.000 OA
ATOM     12  H   UNL     1      47.475   5.242  11.701  0.00  0.00    +0.000 HD
BRANCH  10  13
ATOM     13  C   UNL     1      45.087   4.999  10.858  0.00  0.00    +0.000 A 
ATOM     14  C   UNL     1      44.388   3.810  10.851  0.00  0.00    +0.000 A 
ATOM     15  N   UNL     1      44.232   3.326   9.578  0.00  0.00    +0.000 NA
ATOM     16  C   UNL     1      44.819   4.205   8.801  0.00  0.00    +0.000 A 
ATOM     17  N   UNL     1      45.344   5.235   9.523  0.00  0.00    +0.000 N 
ATOM     18  H   UNL     1      45.838   6.039   9.162  0.00  0.00    +0.000 HD
ENDBRANCH  10  13
ENDBRANCH   8   9
ENDBRANCH   5   8
ENDBRANCH   1   2
BRANCH   1  19
ATOM     19  N   UNL     1      50.083   3.470  18.229  0.00  0.00    +0.000 N 
ATOM     20  C   UNL     1      50.575   2.458  17.444  0.00  0.00    +0.000 C 
ATOM     21  O   UNL     1      49.872   1.855  16.636  0.00  0.00    +0.000 OA
ATOM     22  H   UNL     1      50.636   3.815  19.008  0.00  0.00    +0.000 HD
BRANCH  20  23
ATOM     23  C   UNL     1      52.005   2.159  17.572  0.00  0.00    +0.000 A 
ATOM     24  C   UNL     1      52.437   0.841  17.641  0.00  0.00    +0.000 A 
ATOM     25  S   UNL     1      54.132   0.685  17.792  0.00  0.00    +0.000 S 
ATOM     26  C   UNL     1      54.334   2.372  17.817  0.00  0.00    +0.000 A 
ATOM     27  N   UNL     1      55.553   2.947  17.969  0.00  0.00    +0.000 NA
ATOM     28  N   UNL     1      55.642   4.200  18.020  0.00  0.00    +0.000 NA
ATOM     29  N   UNL     1      54.509   4.956  17.897  0.00  0.00    +0.000 N 
ATOM     30  C   UNL     1      53.237   4.476  17.697  0.00  0.00    +0.000 A 
ATOM     31  O   UNL     1      52.273   5.222  17.545  0.00  0.00    +0.000 OA
ATOM     32  C   UNL     1      53.137   3.040  17.678  0.00  0.00    +0.000 A 
ATOM     33  H   UNL     1      54.644   5.958  17.931  0.00  0.00    +0.000 HD
ENDBRANCH  20  23
ENDBRANCH   1  19
BRANCH   1  34
ATOM     34  C   UNL     1      48.296   4.633  19.500  0.00  0.00    +0.000 C 
BRANCH  34  35
ATOM     35  N   UNL     1      48.439   3.865  20.744  0.00  0.00    +0.000 NA
ATOM     36  H   UNL     1      47.630   3.254  20.854  0.00  0.00    +0.000 HD
ATOM     37  H   UNL     1      48.422   4.505  21.538  0.00  0.00    +0.000 HD
ENDBRANCH  34  35
ENDBRANCH   1  34
TORSDOF 8
ENDMDL
MODEL 8
REMARK VINA RESULT:    -6.391      1.868      2.296
REMARK INTER + INTRA:         -10.497
REMARK INTER:                  -9.770
REMARK INTRA:                  -0.727
REMARK UNBOUND:                -1.303
REMARK  Name = 
REMARK  8 active torsions:
REMARK  status: ('A' for Active; 'I' for Inactive)
REMARK    1  A    between atoms: N_1  and  C_2
REMARK    2  A    between atoms: C_2  and  C_3
REMARK    3  A    between atoms: C_3  and  N_4
REMARK    4  A    between atoms: C_3  and  C_17
REMARK    5  A    between atoms: C_5  and  C_7
REMARK    6  A    between atoms: C_20  and  C_21
REMARK    7  A    between atoms: C_21  and  N_22
REMARK    8  A    between atoms: C_23  and  C_25
REMARK                            x       y       z     vdW  Elec       q    Type
REMARK                         _______ _______ _______ _____ _____    ______ ____
ROOT
ATOM      1  C   UNL     1      46.257   8.251  13.221  0.00  0.00    +0.000 C 
ENDROOT
BRANCH   1   2
ATOM      2  C   UNL     1      45.738   7.139  12.318  0.00  0.00    +0.000 A 
ATOM      3  C   UNL     1      46.491   6.752  11.197  0.00  0.00    +0.000 A 
ATOM      4  C   UNL     1      46.035   5.753  10.329  0.00  0.00    +0.000 A 
ATOM      5  C   UNL     1      44.802   5.128  10.549  0.00  0.00    +0.000 A 
ATOM      6  C   UNL     1      44.056   5.498  11.674  0.00  0.00    +0.000 A 
ATOM      7  C   UNL     1      44.510   6.500  12.538  0.00  0.00    +0.000 A 
BRANCH   5   8
ATOM      8  C   UNL     1      44.279   4.083   9.602  0.00  0.00    +0.000 C 
BRANCH   8   9
ATOM      9  N   UNL     1      45.220   3.783   8.551  0.00  0.00    +0.000 N 
ATOM     10  C   UNL     1      45.741   2.519   8.412  0.00  0.00    +0.000 C 
ATOM     11  O   UNL     1      45.460   1.601   9.177  0.00  0.00    +0.000 OA
ATOM     12  H   UNL     1      45.402   4.491   7.855  0.00  0.00    +0.000 HD
BRANCH  10  13
ATOM     13  C   UNL     1      46.636   2.336   7.302  0.00  0.00    +0.000 A 
ATOM     14  C   UNL     1      47.575   1.373   6.994  0.00  0.00    +0.000 A 
ATOM     15  N   UNL     1      48.197   1.641   5.802  0.00  0.00    +0.000 NA
ATOM     16  C   UNL     1      47.647   2.751   5.368  0.00  0.00    +0.000 A 
ATOM     17  N   UNL     1      46.697   3.206   6.233  0.00  0.00    +0.000 N 
ATOM     18  H   UNL     1      46.126   4.033   6.127  0.00  0.00    +0.000 HD
ENDBRANCH  10  13
ENDBRANCH   8   9
ENDBRANCH   5   8
ENDBRANCH   1   2
BRANCH   1  19
ATOM     19  N   UNL     1      47.663   8.010  13.523  0.00  0.00    +0.000 N 
ATOM     20  C   UNL     1      48.239   8.452  14.688  0.00  0.00    +0.000 C 
ATOM     21  O   UNL     1      47.589   9.013  15.566  0.00  0.00    +0.000 OA
ATOM     22  H   UNL     1      48.254   7.723  12.749  0.00  0.00    +0.000 HD
BRANCH  20  23
ATOM     23  C   UNL     1      49.667   8.172  14.865  0.00  0.00    +0.000 A 
ATOM     24  C   UNL     1      50.609   8.858  14.108  0.00  0.00    +0.000 A 
ATOM     25  S   UNL     1      52.220   8.400  14.446  0.00  0.00    +0.000 S 
ATOM     26  C   UNL     1      51.706   7.240  15.577  0.00  0.00    +0.000 A 
ATOM     27  N   UNL     1      52.581   6.437  16.230  0.00  0.00    +0.000 NA
ATOM     28  N   UNL     1      52.144   5.569  17.027  0.00  0.00    +0.000 NA
ATOM     29  N   UNL     1      50.796   5.471  17.236  0.00  0.00    +0.000 N 
ATOM     30  C   UNL     1      49.831   6.262  16.660  0.00  0.00    +0.000 A 
ATOM     31  O   UNL     1      48.641   6.146  16.937  0.00  0.00    +0.000 OA
ATOM     32  C   UNL     1      50.336   7.228  15.719  0.00  0.00    +0.000 A 
ATOM     33  H   UNL     1      50.505   4.765  17.899  0.00  0.00    +0.000 HD
ENDBRANCH  20  23
ENDBRANCH   1  19
BRANCH   1  34
ATOM     34  C   UNL     1      46.051   9.701  12.684  0.00  0.00    +0.000 C 
BRANCH  34  35
ATOM     35  N   UNL     1      47.267  10.524  12.687  0.00  0.00    +0.000 NA
ATOM     36  H   UNL     1      47.062  11.423  13.121  0.00  0.00    +0.000 HD
ATOM     37  H   UNL     1      47.536  10.728  11.724  0.00  0.00    +0.000 HD
ENDBRANCH  34  35
ENDBRANCH   1  34
TORSDOF 8
ENDMDL
