MODEL 1
REMARK VINA RESULT:    -8.408      0.000      0.000
REMARK INTER + INTRA:         -11.686
REMARK INTER:                 -10.866
REMARK INTRA:                  -0.820
REMARK UNBOUND:                -0.820
REMARK  Name = 
REMARK  5 active torsions:
REMARK  status: ('A' for Active; 'I' for Inactive)
REMARK    1  A    between atoms: C_2  and  C_19
REMARK    2  A    between atoms: N_3  and  C_4
REMARK    3  A    between atoms: C_4  and  C_5
REMARK    4  A    between atoms: C_8  and  C_9
REMARK    5  A    between atoms: C_9  and  N_10
REMARK                            x       y       z     vdW  Elec       q    Type
REMARK                         _______ _______ _______ _____ _____    ______ ____
ROOT
ATOM      1  C   UNL     1      47.801   7.238  13.897  0.00  0.00    +0.000 C 
ENDROOT
BRANCH   1   2
ATOM      2  C   UNL     1      46.549   6.654  13.248  0.00  0.00    +0.000 C 
ATOM      3  C   UNL     1      46.410   5.160  13.564  0.00  0.00    +0.000 C 
ATOM      4  C   UNL     1      45.190   4.567  12.873  0.00  0.00    +0.000 C 
ATOM      5  C   UNL     1      45.258   4.789  11.354  0.00  0.00    +0.000 C 
ATOM      6  C   UNL     1      45.378   6.289  11.042  0.00  0.00    +0.000 C 
ATOM      7  C   UNL     1      46.584   6.908  11.738  0.00  0.00    +0.000 C 
BRANCH   5   8
ATOM      8  C   UNL     1      44.039   4.204  10.632  0.00  0.00    +0.000 C 
BRANCH   8   9
ATOM      9  N   UNL     1      44.143   4.436   9.200  0.00  0.00    +0.000 N 
ATOM     10  C   UNL     1      45.033   3.579   8.567  0.00  0.00    +0.000 A 
ATOM     11  N   UNL     1      45.171   2.315   8.993  0.00  0.00    +0.000 NA
ATOM     12  C   UNL     1      46.055   1.540   8.343  0.00  0.00    +0.000 A 
ATOM     13  C   UNL     1      46.807   1.980   7.286  0.00  0.00    +0.000 A 
ATOM     14  C   UNL     1      46.594   3.288   6.925  0.00  0.00    +0.000 A 
ATOM     15  N   UNL     1      45.724   4.106   7.549  0.00  0.00    +0.000 NA
ATOM     16  H   UNL     1      44.453   5.363   8.928  0.00  0.00    +0.000 HD
ENDBRANCH   8   9
ENDBRANCH   5   8
ENDBRANCH   1   2
BRANCH   1  19
ATOM     17  O   UNL     1      48.592   8.188  16.514  0.00  0.00    +0.000 OA
ATOM     18  C   UNL     1      48.742   7.016  16.188  0.00  0.00    +0.000 C 
ATOM     19  N   UNL     1      48.312   6.463  15.001  0.00  0.00    +0.000 N 
ATOM     20  H   UNL     1      48.669   5.550  14.760  0.00  0.00    +0.000 HD
BRANCH  18  21
ATOM     21  C   UNL     1      49.590   6.101  16.932  0.00  0.00    +0.000 A 
ATOM     22  C   UNL     1      50.806   6.498  17.457  0.00  0.00    +0.000 A 
ATOM     23  S   UNL     1      51.821   5.155  17.779  0.00  0.00    +0.000 S 
ATOM     24  C   UNL     1      50.592   4.052  17.348  0.00  0.00    +0.000 A 
ATOM     25  N   UNL     1      50.815   2.715  17.242  0.00  0.00    +0.000 NA
ATOM     26  C   UNL     1      49.758   2.023  16.961  0.00  0.00    +0.000 A 
ATOM     27  N   UNL     1      48.491   2.537  16.828  0.00  0.00    +0.000 N 
ATOM     28  C   UNL     1      48.216   3.879  16.943  0.00  0.00    +0.000 A 
ATOM     29  O   UNL     1      47.070   4.313  16.906  0.00  0.00    +0.000 OA
ATOM     30  C   UNL     1      49.396   4.696  17.119  0.00  0.00    +0.000 A 
ATOM     31  H   UNL     1      47.694   1.930  16.708  0.00  0.00    +0.000 HD
ENDBRANCH  18  21
ENDBRANCH   1  19
TORSDOF 5
ENDMDL
MODEL 2
REMARK VINA RESULT:    -8.391      1.978      2.148
REMARK INTER + INTRA:         -11.664
REMARK INTER:                 -11.073
REMARK INTRA:                  -0.591
REMARK UNBOUND:                -0.820
REMARK  Name = 
REMARK  5 active torsions:
REMARK  status: ('A' for Active; 'I' for Inactive)
REMARK    1  A    between atoms: C_2  and  C_19
REMARK    2  A    between atoms: N_3  and  C_4
REMARK    3  A    between atoms: C_4  and  C_5
REMARK    4  A    between atoms: C_8  and  C_9
REMARK    5  A    between atoms: C_9  and  N_10
REMARK                            x       y       z     vdW  Elec       q    Type
REMARK                         _______ _______ _______ _____ _____    ______ ____
ROOT
ATOM      1  C   UNL     1      48.174   6.622  13.862  0.00  0.00    +0.000 C 
ENDROOT
BRANCH   1   2
ATOM      2  C   UNL     1      46.834   6.248  13.236  0.00  0.00    +0.000 C 
ATOM      3  C   UNL     1      46.519   4.763  13.454  0.00  0.00    +0.000 C 
ATOM      4  C   UNL     1      45.208   4.379  12.784  0.00  0.00    +0.000 C 
ATOM      5  C   UNL     1      45.243   4.702  11.283  0.00  0.00    +0.000 C 
ATOM      6  C   UNL     1      45.540   6.195  11.070  0.00  0.00    +0.000 C 
ATOM      7  C   UNL     1      46.841   6.608  11.747  0.00  0.00    +0.000 C 
BRANCH   5   8
ATOM      8  C   UNL     1      43.932   4.329  10.582  0.00  0.00    +0.000 C 
BRANCH   8   9
ATOM      9  N   UNL     1      44.061   4.507   9.145  0.00  0.00    +0.000 N 
ATOM     10  C   UNL     1      44.952   3.619   8.557  0.00  0.00    +0.000 A 
ATOM     11  N   UNL     1      45.071   2.371   9.031  0.00  0.00    +0.000 NA
ATOM     12  C   UNL     1      45.958   1.564   8.424  0.00  0.00    +0.000 A 
ATOM     13  C   UNL     1      46.730   1.959   7.363  0.00  0.00    +0.000 A 
ATOM     14  C   UNL     1      46.535   3.255   6.952  0.00  0.00    +0.000 A 
ATOM     15  N   UNL     1      45.663   4.103   7.532  0.00  0.00    +0.000 NA
ATOM     16  H   UNL     1      44.384   5.421   8.844  0.00  0.00    +0.000 HD
ENDBRANCH   8   9
ENDBRANCH   5   8
ENDBRANCH   1   2
BRANCH   1  19
ATOM     17  O   UNL     1      50.092   6.139  15.975  0.00  0.00    +0.000 OA
ATOM     18  C   UNL     1      49.018   6.684  16.200  0.00  0.00    +0.000 C 
ATOM     19  N   UNL     1      48.090   7.032  15.242  0.00  0.00    +0.000 N 
ATOM     20  H   UNL     1      47.167   7.285  15.563  0.00  0.00    +0.000 HD
BRANCH  18  21
ATOM     21  C   UNL     1      48.489   6.842  17.544  0.00  0.00    +0.000 A 
ATOM     22  C   UNL     1      48.199   8.086  18.073  0.00  0.00    +0.000 A 
ATOM     23  S   UNL     1      48.131   8.042  19.785  0.00  0.00    +0.000 S 
ATOM     24  C   UNL     1      48.352   6.351  19.806  0.00  0.00    +0.000 A 
ATOM     25  N   UNL     1      48.548   5.654  20.957  0.00  0.00    +0.000 NA
ATOM     26  C   UNL     1      48.640   4.374  20.792  0.00  0.00    +0.000 A 
ATOM     27  N   UNL     1      48.503   3.721  19.590  0.00  0.00    +0.000 N 
ATOM     28  C   UNL     1      48.288   4.382  18.405  0.00  0.00    +0.000 A 
ATOM     29  O   UNL     1      48.084   3.784  17.355  0.00  0.00    +0.000 OA
ATOM     30  C   UNL     1      48.318   5.823  18.534  0.00  0.00    +0.000 A 
ATOM     31  H   UNL     1      48.486   2.713  19.545  0.00  0.00    +0.000 HD
ENDBRANCH  18  21
ENDBRANCH   1  19
TORSDOF 5
ENDMDL
MODEL 3
REMARK VINA RESULT:    -8.009      2.093      2.586
REMARK INTER + INTRA:         -11.171
REMARK INTER:                 -10.611
REMARK INTRA:                  -0.560
REMARK UNBOUND:                -0.820
REMARK  Name = 
REMARK  5 active torsions:
REMARK  status: ('A' for Active; 'I' for Inactive)
REMARK    1  A    between atoms: C_2  and  C_19
REMARK    2  A    between atoms: N_3  and  C_4
REMARK    3  A    between atoms: C_4  and  C_5
REMARK    4  A    between atoms: C_8  and  C_9
REMARK    5  A    between atoms: C_9  and  N_10
REMARK                            x       y       z     vdW  Elec       q    Type
REMARK                         _______ _______ _______ _____ _____    ______ ____
ROOT
ATOM      1  C   UNL     1      46.751   8.091  13.012  0.00  0.00    +0.000 C 
ENDROOT
BRANCH   1   2
ATOM      2  C   UNL     1      45.801   7.302  12.115  0.00  0.00    +0.000 C 
ATOM      3  C   UNL     1      44.928   6.349  12.940  0.00  0.00    +0.000 C 
ATOM      4  C   UNL     1      44.019   5.524  12.039  0.00  0.00    +0.000 C 
ATOM      5  C   UNL     1      44.839   4.737  11.006  0.00  0.00    +0.000 C 
ATOM      6  C   UNL     1      45.698   5.698  10.169  0.00  0.00    +0.000 C 
ATOM      7  C   UNL     1      46.605   6.547  11.051  0.00  0.00    +0.000 C 
BRANCH   5   8
ATOM      8  C   UNL     1      43.948   3.899  10.082  0.00  0.00    +0.000 C 
BRANCH   8   9
ATOM      9  N   UNL     1      44.256   4.186   8.690  0.00  0.00    +0.000 N 
ATOM     10  C   UNL     1      45.250   3.371   8.166  0.00  0.00    +0.000 A 
ATOM     11  N   UNL     1      45.354   2.095   8.565  0.00  0.00    +0.000 NA
ATOM     12  C   UNL     1      46.343   1.362   8.026  0.00  0.00    +0.000 A 
ATOM     13  C   UNL     1      47.230   1.856   7.106  0.00  0.00    +0.000 A 
ATOM     14  C   UNL     1      47.041   3.172   6.763  0.00  0.00    +0.000 A 
ATOM     15  N   UNL     1      46.069   3.949   7.279  0.00  0.00    +0.000 NA
ATOM     16  H   UNL     1      44.579   5.129   8.499  0.00  0.00    +0.000 HD
ENDBRANCH   8   9
ENDBRANCH   5   8
ENDBRANCH   1   2
BRANCH   1  19
ATOM     17  O   UNL     1      49.206   6.627  13.468  0.00  0.00    +0.000 OA
ATOM     18  C   UNL     1      48.312   6.650  14.305  0.00  0.00    +0.000 C 
ATOM     19  N   UNL     1      47.153   7.392  14.208  0.00  0.00    +0.000 N 
ATOM     20  H   UNL     1      46.409   7.175  14.853  0.00  0.00    +0.000 HD
BRANCH  18  21
ATOM     21  C   UNL     1      48.263   5.722  15.422  0.00  0.00    +0.000 A 
ATOM     22  C   UNL     1      47.428   4.619  15.417  0.00  0.00    +0.000 A 
ATOM     23  S   UNL     1      47.152   4.032  17.003  0.00  0.00    +0.000 S 
ATOM     24  C   UNL     1      48.247   5.158  17.671  0.00  0.00    +0.000 A 
ATOM     25  N   UNL     1      48.394   5.327  19.012  0.00  0.00    +0.000 NA
ATOM     26  C   UNL     1      49.308   6.182  19.340  0.00  0.00    +0.000 A 
ATOM     27  N   UNL     1      50.123   6.845  18.455  0.00  0.00    +0.000 N 
ATOM     28  C   UNL     1      50.020   6.695  17.092  0.00  0.00    +0.000 A 
ATOM     29  O   UNL     1      50.808   7.227  16.319  0.00  0.00    +0.000 OA
ATOM     30  C   UNL     1      48.917   5.851  16.687  0.00  0.00    +0.000 A 
ATOM     31  H   UNL     1      50.883   7.424  18.781  0.00  0.00    +0.000 HD
ENDBRANCH  18  21
ENDBRANCH   1  19
TORSDOF 5
ENDMDL
MODEL 4
REMARK VINA RESULT:    -7.980      1.441      2.027
REMARK INTER + INTRA:         -11.132
REMARK INTER:                 -10.867
REMARK INTRA:                  -0.266
REMARK UNBOUND:                -0.820
REMARK  Name = 
REMARK  5 active torsions:
REMARK  status: ('A' for Active; 'I' for Inactive)
REMARK    1  A    between atoms: C_2  and  C_19
REMARK    2  A    between atoms: N_3  and  C_4
REMARK    3  A    between atoms: C_4  and  C_5
REMARK    4  A    between atoms: C_8  and  C_9
REMARK    5  A    between atoms: C_9  and  N_10
REMARK                            x       y       z     vdW  Elec       q    Type
REMARK                         _______ _______ _______ _____ _____    ______ ____
ROOT
ATOM      1  C   UNL     1      46.395   7.690  13.046  0.00  0.00    +0.000 C 
ENDROOT
BRANCH   1   2
ATOM      2  C   UNL     1      46.137   6.406  12.264  0.00  0.00    +0.000 C 
ATOM      3  C   UNL     1      45.993   6.692  10.764  0.00  0.00    +0.000 C 
ATOM      4  C   UNL     1      45.682   5.418   9.992  0.00  0.00    +0.000 C 
ATOM      5  C   UNL     1      44.410   4.746  10.532  0.00  0.00    +0.000 C 
ATOM      6  C   UNL     1      44.566   4.444  12.031  0.00  0.00    +0.000 C 
ATOM      7  C   UNL     1      44.895   5.703  12.823  0.00  0.00    +0.000 C 
BRANCH   5   8
ATOM      8  C   UNL     1      44.074   3.457   9.774  0.00  0.00    +0.000 C 
BRANCH   8   9
ATOM      9  N   UNL     1      45.183   2.519   9.862  0.00  0.00    +0.000 N 
ATOM     10  C   UNL     1      45.822   2.306   8.648  0.00  0.00    +0.000 A 
ATOM     11  N   UNL     1      45.935   3.306   7.762  0.00  0.00    +0.000 NA
ATOM     12  C   UNL     1      46.557   3.032   6.602  0.00  0.00    +0.000 A 
ATOM     13  C   UNL     1      47.066   1.798   6.295  0.00  0.00    +0.000 A 
ATOM     14  C   UNL     1      46.899   0.841   7.267  0.00  0.00    +0.000 A 
ATOM     15  N   UNL     1      46.279   1.066   8.441  0.00  0.00    +0.000 NA
ATOM     16  H   UNL     1      44.943   1.587  10.185  0.00  0.00    +0.000 HD
ENDBRANCH   8   9
ENDBRANCH   5   8
ENDBRANCH   1   2
BRANCH   1  19
ATOM     17  O   UNL     1      49.012   6.481  13.313  0.00  0.00    +0.000 OA
ATOM     18  C   UNL     1      48.372   6.841  14.294  0.00  0.00    +0.000 C 
ATOM     19  N   UNL     1      47.164   7.504  14.253  0.00  0.00    +0.000 N 
ATOM     20  H   UNL     1      46.640   7.564  15.113  0.00  0.00    +0.000 HD
BRANCH  18  21
ATOM     21  C   UNL     1      48.708   6.419  15.643  0.00  0.00    +0.000 A 
ATOM     22  C   UNL     1      49.504   7.188  16.471  0.00  0.00    +0.000 A 
ATOM     23  S   UNL     1      50.185   6.254  17.736  0.00  0.00    +0.000 S 
ATOM     24  C   UNL     1      49.313   4.867  17.256  0.00  0.00    +0.000 A 
ATOM     25  N   UNL     1      49.527   3.644  17.808  0.00  0.00    +0.000 NA
ATOM     26  C   UNL     1      48.737   2.718  17.365  0.00  0.00    +0.000 A 
ATOM     27  N   UNL     1      47.722   2.914  16.460  0.00  0.00    +0.000 N 
ATOM     28  C   UNL     1      47.461   4.135  15.887  0.00  0.00    +0.000 A 
ATOM     29  O   UNL     1      46.500   4.314  15.147  0.00  0.00    +0.000 OA
ATOM     30  C   UNL     1      48.412   5.161  16.257  0.00  0.00    +0.000 A 
ATOM     31  H   UNL     1      47.080   2.170  16.231  0.00  0.00    +0.000 HD
ENDBRANCH  18  21
ENDBRANCH   1  19
TORSDOF 5
ENDMDL
MODEL 5
REMARK VINA RESULT:    -7.836      2.581      4.345
REMARK INTER + INTRA:         -10.946
REMARK INTER:                 -10.105
REMARK INTRA:                  -0.841
REMARK UNBOUND:                -0.820
REMARK  Name = 
REMARK  5 active torsions:
REMARK  status: ('A' for Active; 'I' for Inactive)
REMARK    1  A    between atoms: C_2  and  C_19
REMARK    2  A    between atoms: N_3  and  C_4
REMARK    3  A    between atoms: C_4  and  C_5
REMARK    4  A    between atoms: C_8  and  C_9
REMARK    5  A    between atoms: C_9  and  N_10
REMARK                            x       y       z     vdW  Elec       q    Type
REMARK                         _______ _______ _______ _____ _____    ______ ____
ROOT
ATOM      1  C   UNL     1      47.223   5.135  14.839  0.00  0.00    +0.000 C 
ENDROOT
BRANCH   1   2
ATOM      2  C   UNL     1      46.052   4.811  13.915  0.00  0.00    +0.000 C 
ATOM      3  C   UNL     1      46.320   3.532  13.113  0.00  0.00    +0.000 C 
ATOM      4  C   UNL     1      45.176   3.239  12.153  0.00  0.00    +0.000 C 
ATOM      5  C   UNL     1      44.938   4.423  11.205  0.00  0.00    +0.000 C 
ATOM      6  C   UNL     1      44.650   5.699  12.013  0.00  0.00    +0.000 C 
ATOM      7  C   UNL     1      45.776   6.004  12.994  0.00  0.00    +0.000 C 
BRANCH   5   8
ATOM      8  C   UNL     1      43.787   4.157  10.229  0.00  0.00    +0.000 C 
BRANCH   8   9
ATOM      9  N   UNL     1      44.198   4.469   8.869  0.00  0.00    +0.000 N 
ATOM     10  C   UNL     1      45.146   3.589   8.365  0.00  0.00    +0.000 A 
ATOM     11  N   UNL     1      45.116   2.294   8.713  0.00  0.00    +0.000 NA
ATOM     12  C   UNL     1      46.068   1.497   8.198  0.00  0.00    +0.000 A 
ATOM     13  C   UNL     1      47.046   1.945   7.350  0.00  0.00    +0.000 A 
ATOM     14  C   UNL     1      46.991   3.285   7.054  0.00  0.00    +0.000 A 
ATOM     15  N   UNL     1      46.062   4.125   7.550  0.00  0.00    +0.000 NA
ATOM     16  H   UNL     1      44.613   5.386   8.737  0.00  0.00    +0.000 HD
ENDBRANCH   8   9
ENDBRANCH   5   8
ENDBRANCH   1   2
BRANCH   1  19
ATOM     17  O   UNL     1      49.760   6.069  15.873  0.00  0.00    +0.000 OA
ATOM     18  C   UNL     1      49.086   6.759  15.118  0.00  0.00    +0.000 C 
ATOM     19  N   UNL     1      47.914   6.358  14.511  0.00  0.00    +0.000 N 
ATOM     20  H   UNL     1      47.348   7.073  14.080  0.00  0.00    +0.000 HD
BRANCH  18  21
ATOM     21  C   UNL     1      49.327   8.180  14.934  0.00  0.00    +0.000 A 
ATOM     22  C   UNL     1      49.511   9.033  16.007  0.00  0.00    +0.000 A 
ATOM     23  S   UNL     1      49.223  10.665  15.569  0.00  0.00    +0.000 S 
ATOM     24  C   UNL     1      48.990  10.244  13.932  0.00  0.00    +0.000 A 
ATOM     25  N   UNL     1      48.554  11.136  13.004  0.00  0.00    +0.000 NA
ATOM     26  C   UNL     1      48.489  10.659  11.802  0.00  0.00    +0.000 A 
ATOM     27  N   UNL     1      48.867   9.390  11.435  0.00  0.00    +0.000 N 
ATOM     28  C   UNL     1      49.327   8.460  12.336  0.00  0.00    +0.000 A 
ATOM     29  O   UNL     1      49.739   7.362  11.983  0.00  0.00    +0.000 OA
ATOM     30  C   UNL     1      49.282   8.916  13.709  0.00  0.00    +0.000 A 
ATOM     31  H   UNL     1      48.885   9.114  10.464  0.00  0.00    +0.000 HD
ENDBRANCH  18  21
ENDBRANCH   1  19
TORSDOF 5
ENDMDL
MODEL 6
REMARK VINA RESULT:    -7.345      3.142      4.715
REMARK INTER + INTRA:         -10.312
REMARK INTER:                  -9.565
REMARK INTRA:                  -0.747
REMARK UNBOUND:                -0.820
REMARK  Name = 
REMARK  5 active torsions:
REMARK  status: ('A' for Active; 'I' for Inactive)
REMARK    1  A    between atoms: C_2  and  C_19
REMARK    2  A    between atoms: N_3  and  C_4
REMARK    3  A    between atoms: C_4  and  C_5
REMARK    4  A    between atoms: C_8  and  C_9
REMARK    5  A    between atoms: C_9  and  N_10
REMARK                            x       y       z     vdW  Elec       q    Type
REMARK                         _______ _______ _______ _____ _____    ______ ____
ROOT
ATOM      1  C   UNL     1      47.648   5.829  14.304  0.00  0.00    +0.000 C 
ENDROOT
BRANCH   1   2
ATOM      2  C   UNL     1      46.394   5.487  13.505  0.00  0.00    +0.000 C 
ATOM      3  C   UNL     1      46.312   3.982  13.224  0.00  0.00    +0.000 C 
ATOM      4  C   UNL     1      45.089   3.649  12.381  0.00  0.00    +0.000 C 
ATOM      5  C   UNL     1      45.100   4.439  11.063  0.00  0.00    +0.000 C 
ATOM      6  C   UNL     1      45.163   5.947  11.350  0.00  0.00    +0.000 C 
ATOM      7  C   UNL     1      46.371   6.302  12.208  0.00  0.00    +0.000 C 
BRANCH   5   8
ATOM      8  C   UNL     1      43.876   4.126  10.195  0.00  0.00    +0.000 C 
BRANCH   8   9
ATOM      9  N   UNL     1      44.182   4.358   8.792  0.00  0.00    +0.000 N 
ATOM     10  C   UNL     1      45.137   3.486   8.286  0.00  0.00    +0.000 A 
ATOM     11  N   UNL     1      45.193   2.220   8.723  0.00  0.00    +0.000 NA
ATOM     12  C   UNL     1      46.147   1.431   8.199  0.00  0.00    +0.000 A 
ATOM     13  C   UNL     1      47.045   1.860   7.258  0.00  0.00    +0.000 A 
ATOM     14  C   UNL     1      46.905   3.171   6.876  0.00  0.00    +0.000 A 
ATOM     15  N   UNL     1      45.971   4.003   7.375  0.00  0.00    +0.000 NA
ATOM     16  H   UNL     1      44.542   5.280   8.569  0.00  0.00    +0.000 HD
ENDBRANCH   8   9
ENDBRANCH   5   8
ENDBRANCH   1   2
BRANCH   1  19
ATOM     17  O   UNL     1      48.403   8.373  15.459  0.00  0.00    +0.000 OA
ATOM     18  C   UNL     1      48.705   8.080  14.308  0.00  0.00    +0.000 C 
ATOM     19  N   UNL     1      48.465   6.860  13.712  0.00  0.00    +0.000 N 
ATOM     20  H   UNL     1      48.572   6.806  12.710  0.00  0.00    +0.000 HD
BRANCH  18  21
ATOM     21  C   UNL     1      49.168   9.066  13.347  0.00  0.00    +0.000 A 
ATOM     22  C   UNL     1      48.310   9.987  12.776  0.00  0.00    +0.000 A 
ATOM     23  S   UNL     1      48.954  10.632  11.325  0.00  0.00    +0.000 S 
ATOM     24  C   UNL     1      50.422   9.789  11.535  0.00  0.00    +0.000 A 
ATOM     25  N   UNL     1      51.388   9.755  10.579  0.00  0.00    +0.000 NA
ATOM     26  C   UNL     1      52.457   9.116  10.930  0.00  0.00    +0.000 A 
ATOM     27  N   UNL     1      52.670   8.552  12.165  0.00  0.00    +0.000 N 
ATOM     28  C   UNL     1      51.728   8.575  13.166  0.00  0.00    +0.000 A 
ATOM     29  O   UNL     1      51.963   8.142  14.289  0.00  0.00    +0.000 OA
ATOM     30  C   UNL     1      50.469   9.161  12.760  0.00  0.00    +0.000 A 
ATOM     31  H   UNL     1      53.565   8.154  12.408  0.00  0.00    +0.000 HD
ENDBRANCH  18  21
ENDBRANCH   1  19
TORSDOF 5
ENDMDL
MODEL 7
REMARK VINA RESULT:    -7.208      4.086      4.813
REMARK INTER + INTRA:         -10.136
REMARK INTER:                  -9.239
REMARK INTRA:                  -0.896
REMARK UNBOUND:                -0.820
REMARK  Name = 
REMARK  5 active torsions:
REMARK  status: ('A' for Active; 'I' for Inactive)
REMARK    1  A    between atoms: C_2  and  C_19
REMARK    2  A    between atoms: N_3  and  C_4
REMARK    3  A    between atoms: C_4  and  C_5
REMARK    4  A    between atoms: C_8  and  C_9
REMARK    5  A    between atoms: C_9  and  N_10
REMARK                            x       y       z     vdW  Elec       q    Type
REMARK                         _______ _______ _______ _____ _____    ______ ____
ROOT
ATOM      1  C   UNL     1      45.354   7.460  13.255  0.00  0.00    +0.000 C 
ENDROOT
BRANCH   1   2
ATOM      2  C   UNL     1      45.561   6.270  12.323  0.00  0.00    +0.000 C 
ATOM      3  C   UNL     1      44.720   6.414  11.049  0.00  0.00    +0.000 C 
ATOM      4  C   UNL     1      44.886   5.201  10.145  0.00  0.00    +0.000 C 
ATOM      5  C   UNL     1      44.513   3.909  10.886  0.00  0.00    +0.000 C 
ATOM      6  C   UNL     1      45.372   3.758  12.152  0.00  0.00    +0.000 C 
ATOM      7  C   UNL     1      45.235   4.970  13.066  0.00  0.00    +0.000 C 
BRANCH   5   8
ATOM      8  C   UNL     1      44.675   2.669   9.999  0.00  0.00    +0.000 C 
BRANCH   8   9
ATOM      9  N   UNL     1      44.516   3.028   8.599  0.00  0.00    +0.000 N 
ATOM     10  C   UNL     1      45.602   2.671   7.812  0.00  0.00    +0.000 A 
ATOM     11  N   UNL     1      46.292   1.553   8.082  0.00  0.00    +0.000 NA
ATOM     12  C   UNL     1      47.338   1.269   7.288  0.00  0.00    +0.000 A 
ATOM     13  C   UNL     1      47.721   2.060   6.237  0.00  0.00    +0.000 A 
ATOM     14  C   UNL     1      46.953   3.182   6.043  0.00  0.00    +0.000 A 
ATOM     15  N   UNL     1      45.899   3.512   6.814  0.00  0.00    +0.000 NA
ATOM     16  H   UNL     1      44.387   4.017   8.413  0.00  0.00    +0.000 HD
ENDBRANCH   8   9
ENDBRANCH   5   8
ENDBRANCH   1   2
BRANCH   1  19
ATOM     17  O   UNL     1      46.079   9.797  11.708  0.00  0.00    +0.000 OA
ATOM     18  C   UNL     1      46.823   9.348  12.572  0.00  0.00    +0.000 C 
ATOM     19  N   UNL     1      46.518   8.298  13.412  0.00  0.00    +0.000 N 
ATOM     20  H   UNL     1      47.278   7.889  13.936  0.00  0.00    +0.000 HD
BRANCH  18  21
ATOM     21  C   UNL     1      48.220   9.732  12.676  0.00  0.00    +0.000 A 
ATOM     22  C   UNL     1      48.600  11.014  13.027  0.00  0.00    +0.000 A 
ATOM     23  S   UNL     1      50.211  11.347  12.547  0.00  0.00    +0.000 S 
ATOM     24  C   UNL     1      50.438   9.747  12.001  0.00  0.00    +0.000 A 
ATOM     25  N   UNL     1      51.550   9.358  11.322  0.00  0.00    +0.000 NA
ATOM     26  C   UNL     1      51.580   8.096  11.034  0.00  0.00    +0.000 A 
ATOM     27  N   UNL     1      50.627   7.179  11.407  0.00  0.00    +0.000 N 
ATOM     28  C   UNL     1      49.496   7.523  12.107  0.00  0.00    +0.000 A 
ATOM     29  O   UNL     1      48.697   6.683  12.506  0.00  0.00    +0.000 OA
ATOM     30  C   UNL     1      49.364   8.948  12.324  0.00  0.00    +0.000 A 
ATOM     31  H   UNL     1      50.760   6.193  11.237  0.00  0.00    +0.000 HD
ENDBRANCH  18  21
ENDBRANCH   1  19
TORSDOF 5
ENDMDL
MODEL 8
REMARK VINA RESULT:    -7.032      2.305      3.091
REMARK INTER + INTRA:          -9.907
REMARK INTER:                  -8.646
REMARK INTRA:                  -1.262
REMARK UNBOUND:                -0.820
REMARK  Name = 
REMARK  5 active torsions:
REMARK  status: ('A' for Active; 'I' for Inactive)
REMARK    1  A    between atoms: C_2  and  C_19
REMARK    2  A    between atoms: N_3  and  C_4
REMARK    3  A    between atoms: C_4  and  C_5
REMARK    4  A    between atoms: C_8  and  C_9
REMARK    5  A    between atoms: C_9  and  N_10
REMARK                            x       y       z     vdW  Elec       q    Type
REMARK                         _______ _______ _______ _____ _____    ______ ____
ROOT
ATOM      1  C   UNL     1      50.149   8.054  14.296  0.00  0.00    +0.000 C 
ENDROOT
BRANCH   1   2
ATOM      2  C   UNL     1      48.938   8.250  13.389  0.00  0.00    +0.000 C 
ATOM      3  C   UNL     1      47.681   8.566  14.209  0.00  0.00    +0.000 C 
ATOM      4  C   UNL     1      46.463   8.708  13.308  0.00  0.00    +0.000 C 
ATOM      5  C   UNL     1      46.249   7.439  12.470  0.00  0.00    +0.000 C 
ATOM      6  C   UNL     1      47.504   7.137  11.635  0.00  0.00    +0.000 C 
ATOM      7  C   UNL     1      48.740   7.006  12.516  0.00  0.00    +0.000 C 
BRANCH   5   8
ATOM      8  C   UNL     1      45.029   7.556  11.549  0.00  0.00    +0.000 C 
BRANCH   8   9
ATOM      9  N   UNL     1      45.080   6.535  10.514  0.00  0.00    +0.000 N 
ATOM     10  C   UNL     1      44.504   5.332  10.899  0.00  0.00    +0.000 A 
ATOM     11  N   UNL     1      43.439   5.325  11.713  0.00  0.00    +0.000 NA
ATOM     12  C   UNL     1      42.935   4.127  12.055  0.00  0.00    +0.000 A 
ATOM     13  C   UNL     1      43.455   2.939  11.615  0.00  0.00    +0.000 A 
ATOM     14  C   UNL     1      44.544   3.052  10.787  0.00  0.00    +0.000 A 
ATOM     15  N   UNL     1      45.089   4.228  10.420  0.00  0.00    +0.000 NA
ATOM     16  H   UNL     1      46.009   6.278  10.199  0.00  0.00    +0.000 HD
ENDBRANCH   8   9
ENDBRANCH   5   8
ENDBRANCH   1   2
BRANCH   1  19
ATOM     17  O   UNL     1      51.651   6.241  15.980  0.00  0.00    +0.000 OA
ATOM     18  C   UNL     1      50.562   6.681  16.329  0.00  0.00    +0.000 C 
ATOM     19  N   UNL     1      49.825   7.615  15.631  0.00  0.00    +0.000 N 
ATOM     20  H   UNL     1      48.863   7.746  15.908  0.00  0.00    +0.000 HD
BRANCH  18  21
ATOM     21  C   UNL     1      49.803   6.108  17.427  0.00  0.00    +0.000 A 
ATOM     22  C   UNL     1      50.103   6.391  18.747  0.00  0.00    +0.000 A 
ATOM     23  S   UNL     1      49.461   5.206  19.806  0.00  0.00    +0.000 S 
ATOM     24  C   UNL     1      48.675   4.403  18.522  0.00  0.00    +0.000 A 
ATOM     25  N   UNL     1      48.054   3.204  18.681  0.00  0.00    +0.000 NA
ATOM     26  C   UNL     1      47.463   2.769  17.615  0.00  0.00    +0.000 A 
ATOM     27  N   UNL     1      47.391   3.445  16.420  0.00  0.00    +0.000 N 
ATOM     28  C   UNL     1      47.991   4.665  16.218  0.00  0.00    +0.000 A 
ATOM     29  O   UNL     1      47.848   5.294  15.176  0.00  0.00    +0.000 OA
ATOM     30  C   UNL     1      48.776   5.116  17.347  0.00  0.00    +0.000 A 
ATOM     31  H   UNL     1      46.830   3.095  15.658  0.00  0.00    +0.000 HD
ENDBRANCH  18  21
ENDBRANCH   1  19
TORSDOF 5
ENDMDL
MODEL 9
REMARK VINA RESULT:    -6.931      1.673      2.585
REMARK INTER + INTRA:          -9.777
REMARK INTER:                  -9.084
REMARK INTRA:                  -0.693
REMARK UNBOUND:                -0.820
REMARK  Name = 
REMARK  5 active torsions:
REMARK  status: ('A' for Active; 'I' for Inactive)
REMARK    1  A    between atoms: C_2  and  C_19
REMARK    2  A    between atoms: N_3  and  C_4
REMARK    3  A    between atoms: C_4  and  C_5
REMARK    4  A    between atoms: C_8  and  C_9
REMARK    5  A    between atoms: C_9  and  N_10
REMARK                            x       y       z     vdW  Elec       q    Type
REMARK                         _______ _______ _______ _____ _____    ______ ____
ROOT
ATOM      1  C   UNL     1      48.126   7.296  13.708  0.00  0.00    +0.000 C 
ENDROOT
BRANCH   1   2
ATOM      2  C   UNL     1      46.792   6.795  13.163  0.00  0.00    +0.000 C 
ATOM      3  C   UNL     1      46.597   5.304  13.464  0.00  0.00    +0.000 C 
ATOM      4  C   UNL     1      45.291   4.794  12.873  0.00  0.00    +0.000 C 
ATOM      5  C   UNL     1      45.239   5.043  11.358  0.00  0.00    +0.000 C 
ATOM      6  C   UNL     1      45.416   6.541  11.062  0.00  0.00    +0.000 C 
ATOM      7  C   UNL     1      46.710   7.079  11.659  0.00  0.00    +0.000 C 
BRANCH   5   8
ATOM      8  C   UNL     1      43.932   4.541  10.736  0.00  0.00    +0.000 C 
BRANCH   8   9
ATOM      9  N   UNL     1      43.976   4.684   9.289  0.00  0.00    +0.000 N 
ATOM     10  C   UNL     1      44.837   3.785   8.673  0.00  0.00    +0.000 A 
ATOM     11  N   UNL     1      44.990   2.550   9.171  0.00  0.00    +0.000 NA
ATOM     12  C   UNL     1      45.845   1.732   8.534  0.00  0.00    +0.000 A 
ATOM     13  C   UNL     1      46.552   2.103   7.420  0.00  0.00    +0.000 A 
ATOM     14  C   UNL     1      46.326   3.387   6.988  0.00  0.00    +0.000 A 
ATOM     15  N   UNL     1      45.484   4.245   7.596  0.00  0.00    +0.000 NA
ATOM     16  H   UNL     1      44.275   5.591   8.947  0.00  0.00    +0.000 HD
ENDBRANCH   8   9
ENDBRANCH   5   8
ENDBRANCH   1   2
BRANCH   1  19
ATOM     17  O   UNL     1      48.617   7.983  16.477  0.00  0.00    +0.000 OA
ATOM     18  C   UNL     1      48.967   6.903  16.016  0.00  0.00    +0.000 C 
ATOM     19  N   UNL     1      48.694   6.461  14.738  0.00  0.00    +0.000 N 
ATOM     20  H   UNL     1      49.204   5.654  14.410  0.00  0.00    +0.000 HD
BRANCH  18  21
ATOM     21  C   UNL     1      49.910   6.032  16.697  0.00  0.00    +0.000 A 
ATOM     22  C   UNL     1      49.496   4.909  17.388  0.00  0.00    +0.000 A 
ATOM     23  S   UNL     1      50.676   4.396  18.520  0.00  0.00    +0.000 S 
ATOM     24  C   UNL     1      51.780   5.584  17.991  0.00  0.00    +0.000 A 
ATOM     25  N   UNL     1      52.956   5.825  18.630  0.00  0.00    +0.000 NA
ATOM     26  C   UNL     1      53.695   6.721  18.059  0.00  0.00    +0.000 A 
ATOM     27  N   UNL     1      53.392   7.360  16.881  0.00  0.00    +0.000 N 
ATOM     28  C   UNL     1      52.224   7.137  16.193  0.00  0.00    +0.000 A 
ATOM     29  O   UNL     1      52.004   7.650  15.101  0.00  0.00    +0.000 OA
ATOM     30  C   UNL     1      51.313   6.244  16.876  0.00  0.00    +0.000 A 
ATOM     31  H   UNL     1      54.058   7.975  16.437  0.00  0.00    +0.000 HD
ENDBRANCH  18  21
ENDBRANCH   1  19
TORSDOF 5
ENDMDL
