MODEL 1
REMARK VINA RESULT:    -8.215      0.000      0.000
REMARK INTER + INTRA:         -12.860
REMARK INTER:                 -11.576
REMARK INTRA:                  -1.284
REMARK UNBOUND:                -1.284
REMARK  Name = 
REMARK  9 active torsions:
REMARK  status: ('A' for Active; 'I' for Inactive)
REMARK    1  A    between atoms: C_1  and  N_2
REMARK    2  A    between atoms: N_2  and  C_3
REMARK    3  A    between atoms: N_2  and  C_4
REMARK    4  A    between atoms: C_4  and  C_5
REMARK    5  A    between atoms: C_5  and  N_6
REMARK    6  A    between atoms: C_5  and  C_19
REMARK    7  A    between atoms: C_7  and  C_9
REMARK    8  A    between atoms: C_22  and  C_23
REMARK    9  A    between atoms: C_23  and  C_24
REMARK                            x       y       z     vdW  Elec       q    Type
REMARK                         _______ _______ _______ _____ _____    ______ ____
ROOT
ATOM      1  C   UNL     1      46.217   7.843  12.560  0.00  0.00    +0.000 C 
ENDROOT
BRANCH   1   2
ATOM      2  C   UNL     1      45.817   6.631  11.727  0.00  0.00    +0.000 A 
ATOM      3  C   UNL     1      46.389   6.443  10.464  0.00  0.00    +0.000 A 
ATOM      4  C   UNL     1      45.960   5.405   9.636  0.00  0.00    +0.000 A 
ATOM      5  C   UNL     1      44.966   4.512  10.061  0.00  0.00    +0.000 A 
ATOM      6  C   UNL     1      44.431   4.662  11.345  0.00  0.00    +0.000 A 
ATOM      7  C   UNL     1      44.852   5.709  12.170  0.00  0.00    +0.000 A 
BRANCH   5   8
ATOM      8  C   UNL     1      44.469   3.420   9.143  0.00  0.00    +0.000 C 
BRANCH   8   9
ATOM      9  C   UNL     1      45.504   2.774   8.252  0.00  0.00    +0.000 A 
ATOM     10  C   UNL     1      45.918   3.385   7.068  0.00  0.00    +0.000 A 
ATOM     11  C   UNL     1      46.764   2.692   6.206  0.00  0.00    +0.000 A 
ATOM     12  C   UNL     1      47.178   1.411   6.544  0.00  0.00    +0.000 A 
ATOM     13  C   UNL     1      46.741   0.881   7.745  0.00  0.00    +0.000 A 
ATOM     14  N   UNL     1      45.916   1.527   8.598  0.00  0.00    +0.000 NA
ENDBRANCH   8   9
ENDBRANCH   5   8
ENDBRANCH   1   2
BRANCH   1  15
ATOM     15  N   UNL     1      46.835   7.427  13.805  0.00  0.00    +0.000 N 
ATOM     16  C   UNL     1      48.141   7.015  13.886  0.00  0.00    +0.000 C 
ATOM     17  O   UNL     1      48.915   7.082  12.935  0.00  0.00    +0.000 OA
ATOM     18  H   UNL     1      46.210   7.270  14.588  0.00  0.00    +0.000 HD
BRANCH  16  19
ATOM     19  C   UNL     1      48.585   6.524  15.198  0.00  0.00    +0.000 A 
ATOM     20  C   UNL     1      49.568   7.212  15.895  0.00  0.00    +0.000 A 
ATOM     21  S   UNL     1      49.988   6.489  17.384  0.00  0.00    +0.000 S 
ATOM     22  C   UNL     1      48.912   5.198  17.121  0.00  0.00    +0.000 A 
ATOM     23  N   UNL     1      48.830   4.166  18.003  0.00  0.00    +0.000 NA
ATOM     24  C   UNL     1      48.017   3.227  17.650  0.00  0.00    +0.000 A 
ATOM     25  N   UNL     1      47.254   3.242  16.512  0.00  0.00    +0.000 N 
ATOM     26  C   UNL     1      47.228   4.310  15.647  0.00  0.00    +0.000 A 
ATOM     27  O   UNL     1      46.410   4.365  14.734  0.00  0.00    +0.000 OA
ATOM     28  C   UNL     1      48.194   5.350  15.948  0.00  0.00    +0.000 A 
ATOM     29  H   UNL     1      46.600   2.498  16.318  0.00  0.00    +0.000 HD
ENDBRANCH  16  19
ENDBRANCH   1  15
BRANCH   1  30
ATOM     30  C   UNL     1      44.974   8.764  12.794  0.00  0.00    +0.000 C 
BRANCH  30  32
ATOM     31  C   UNL     1      46.316  10.542  11.796  0.00  0.00    +0.000 C 
ATOM     32  N   UNL     1      44.963  10.063  12.084  0.00  0.00    +0.000 NA
ATOM     33  C   UNL     1      44.213   9.942  10.828  0.00  0.00    +0.000 C 
ENDBRANCH  30  32
ENDBRANCH   1  30
TORSDOF 7
ENDMDL
MODEL 2
REMARK VINA RESULT:    -7.805      1.770      2.417
REMARK INTER + INTRA:         -12.282
REMARK INTER:                 -11.093
REMARK INTRA:                  -1.189
REMARK UNBOUND:                -1.284
REMARK  Name = 
REMARK  9 active torsions:
REMARK  status: ('A' for Active; 'I' for Inactive)
REMARK    1  A    between atoms: C_1  and  N_2
REMARK    2  A    between atoms: N_2  and  C_3
REMARK    3  A    between atoms: N_2  and  C_4
REMARK    4  A    between atoms: C_4  and  C_5
REMARK    5  A    between atoms: C_5  and  N_6
REMARK    6  A    between atoms: C_5  and  C_19
REMARK    7  A    between atoms: C_7  and  C_9
REMARK    8  A    between atoms: C_22  and  C_23
REMARK    9  A    between atoms: C_23  and  C_24
REMARK                            x       y       z     vdW  Elec       q    Type
REMARK                         _______ _______ _______ _____ _____    ______ ____
ROOT
ATOM      1  C   UNL     1      46.993   6.899  13.128  0.00  0.00    +0.000 C 
ENDROOT
BRANCH   1   2
ATOM      2  C   UNL     1      46.292   5.987  12.128  0.00  0.00    +0.000 A 
ATOM      3  C   UNL     1      45.839   4.729  12.540  0.00  0.00    +0.000 A 
ATOM      4  C   UNL     1      45.294   3.833  11.621  0.00  0.00    +0.000 A 
ATOM      5  C   UNL     1      45.164   4.182  10.269  0.00  0.00    +0.000 A 
ATOM      6  C   UNL     1      45.564   5.459   9.862  0.00  0.00    +0.000 A 
ATOM      7  C   UNL     1      46.121   6.353  10.780  0.00  0.00    +0.000 A 
BRANCH   5   8
ATOM      8  C   UNL     1      44.619   3.191   9.267  0.00  0.00    +0.000 C 
BRANCH   8   9
ATOM      9  C   UNL     1      45.611   2.633   8.272  0.00  0.00    +0.000 A 
ATOM     10  C   UNL     1      45.955   3.343   7.122  0.00  0.00    +0.000 A 
ATOM     11  C   UNL     1      46.760   2.734   6.163  0.00  0.00    +0.000 A 
ATOM     12  C   UNL     1      47.203   1.435   6.373  0.00  0.00    +0.000 A 
ATOM     13  C   UNL     1      46.836   0.803   7.549  0.00  0.00    +0.000 A 
ATOM     14  N   UNL     1      46.053   1.368   8.494  0.00  0.00    +0.000 NA
ENDBRANCH   8   9
ENDBRANCH   5   8
ENDBRANCH   1   2
BRANCH   1  15
ATOM     15  N   UNL     1      47.112   6.247  14.418  0.00  0.00    +0.000 N 
ATOM     16  C   UNL     1      48.311   6.086  15.064  0.00  0.00    +0.000 C 
ATOM     17  O   UNL     1      49.354   6.586  14.654  0.00  0.00    +0.000 OA
ATOM     18  H   UNL     1      46.294   5.742  14.744  0.00  0.00    +0.000 HD
BRANCH  16  19
ATOM     19  C   UNL     1      48.275   5.311  16.312  0.00  0.00    +0.000 A 
ATOM     20  C   UNL     1      47.896   3.976  16.284  0.00  0.00    +0.000 A 
ATOM     21  S   UNL     1      47.877   3.235  17.822  0.00  0.00    +0.000 S 
ATOM     22  C   UNL     1      48.318   4.689  18.587  0.00  0.00    +0.000 A 
ATOM     23  N   UNL     1      48.409   4.765  19.942  0.00  0.00    +0.000 NA
ATOM     24  C   UNL     1      48.695   5.942  20.390  0.00  0.00    +0.000 A 
ATOM     25  N   UNL     1      48.930   7.040  19.606  0.00  0.00    +0.000 N 
ATOM     26  C   UNL     1      48.950   6.985  18.233  0.00  0.00    +0.000 A 
ATOM     27  O   UNL     1      49.331   7.942  17.566  0.00  0.00    +0.000 OA
ATOM     28  C   UNL     1      48.542   5.708  17.678  0.00  0.00    +0.000 A 
ATOM     29  H   UNL     1      49.197   7.922  20.018  0.00  0.00    +0.000 HD
ENDBRANCH  16  19
ENDBRANCH   1  15
BRANCH   1  30
ATOM     30  C   UNL     1      46.241   8.268  13.221  0.00  0.00    +0.000 C 
BRANCH  30  32
ATOM     31  C   UNL     1      48.256   9.124  12.140  0.00  0.00    +0.000 C 
ATOM     32  N   UNL     1      46.990   9.470  12.789  0.00  0.00    +0.000 NA
ATOM     33  C   UNL     1      46.172  10.266  11.866  0.00  0.00    +0.000 C 
ENDBRANCH  30  32
ENDBRANCH   1  30
TORSDOF 7
ENDMDL
MODEL 3
REMARK VINA RESULT:    -7.574      2.532      4.460
REMARK INTER + INTRA:         -11.957
REMARK INTER:                 -10.662
REMARK INTRA:                  -1.294
REMARK UNBOUND:                -1.284
REMARK  Name = 
REMARK  9 active torsions:
REMARK  status: ('A' for Active; 'I' for Inactive)
REMARK    1  A    between atoms: C_1  and  N_2
REMARK    2  A    between atoms: N_2  and  C_3
REMARK    3  A    between atoms: N_2  and  C_4
REMARK    4  A    between atoms: C_4  and  C_5
REMARK    5  A    between atoms: C_5  and  N_6
REMARK    6  A    between atoms: C_5  and  C_19
REMARK    7  A    between atoms: C_7  and  C_9
REMARK    8  A    between atoms: C_22  and  C_23
REMARK    9  A    between atoms: C_23  and  C_24
REMARK                            x       y       z     vdW  Elec       q    Type
REMARK                         _______ _______ _______ _____ _____    ______ ____
ROOT
ATOM      1  C   UNL     1      46.674   5.499  14.015  0.00  0.00    +0.000 C 
ENDROOT
BRANCH   1   2
ATOM      2  C   UNL     1      46.041   5.135  12.678  0.00  0.00    +0.000 A 
ATOM      3  C   UNL     1      45.357   3.921  12.545  0.00  0.00    +0.000 A 
ATOM      4  C   UNL     1      44.864   3.514  11.306  0.00  0.00    +0.000 A 
ATOM      5  C   UNL     1      45.019   4.322  10.171  0.00  0.00    +0.000 A 
ATOM      6  C   UNL     1      45.652   5.562  10.309  0.00  0.00    +0.000 A 
ATOM      7  C   UNL     1      46.157   5.965  11.548  0.00  0.00    +0.000 A 
BRANCH   5   8
ATOM      8  C   UNL     1      44.527   3.856   8.820  0.00  0.00    +0.000 C 
BRANCH   8   9
ATOM      9  C   UNL     1      45.511   3.067   7.988  0.00  0.00    +0.000 A 
ATOM     10  C   UNL     1      45.880   1.770   8.343  0.00  0.00    +0.000 A 
ATOM     11  C   UNL     1      46.894   1.132   7.634  0.00  0.00    +0.000 A 
ATOM     12  C   UNL     1      47.515   1.801   6.587  0.00  0.00    +0.000 A 
ATOM     13  C   UNL     1      47.080   3.078   6.281  0.00  0.00    +0.000 A 
ATOM     14  N   UNL     1      46.102   3.723   6.956  0.00  0.00    +0.000 NA
ENDBRANCH   8   9
ENDBRANCH   5   8
ENDBRANCH   1   2
BRANCH   1  15
ATOM     15  N   UNL     1      47.938   6.181  13.813  0.00  0.00    +0.000 N 
ATOM     16  C   UNL     1      48.051   7.547  13.782  0.00  0.00    +0.000 C 
ATOM     17  O   UNL     1      47.111   8.294  14.040  0.00  0.00    +0.000 OA
ATOM     18  H   UNL     1      48.716   5.606  13.507  0.00  0.00    +0.000 HD
BRANCH  16  19
ATOM     19  C   UNL     1      49.383   8.080  13.462  0.00  0.00    +0.000 A 
ATOM     20  C   UNL     1      49.564   8.841  12.316  0.00  0.00    +0.000 A 
ATOM     21  S   UNL     1      51.176   9.351  12.078  0.00  0.00    +0.000 S 
ATOM     22  C   UNL     1      51.699   8.523  13.468  0.00  0.00    +0.000 A 
ATOM     23  N   UNL     1      53.016   8.492  13.809  0.00  0.00    +0.000 NA
ATOM     24  C   UNL     1      53.280   7.779  14.853  0.00  0.00    +0.000 A 
ATOM     25  N   UNL     1      52.343   7.122  15.605  0.00  0.00    +0.000 N 
ATOM     26  C   UNL     1      50.993   7.210  15.359  0.00  0.00    +0.000 A 
ATOM     27  O   UNL     1      50.174   6.752  16.149  0.00  0.00    +0.000 OA
ATOM     28  C   UNL     1      50.651   7.922  14.142  0.00  0.00    +0.000 A 
ATOM     29  H   UNL     1      52.609   6.620  16.440  0.00  0.00    +0.000 HD
ENDBRANCH  16  19
ENDBRANCH   1  15
BRANCH   1  30
ATOM     30  C   UNL     1      46.825   4.218  14.901  0.00  0.00    +0.000 C 
BRANCH  30  32
ATOM     31  C   UNL     1      47.359   4.887  17.188  0.00  0.00    +0.000 C 
ATOM     32  N   UNL     1      47.857   4.259  15.962  0.00  0.00    +0.000 NA
ATOM     33  C   UNL     1      48.320   2.900  16.265  0.00  0.00    +0.000 C 
ENDBRANCH  30  32
ENDBRANCH   1  30
TORSDOF 7
ENDMDL
MODEL 4
REMARK VINA RESULT:    -7.538      2.365      3.245
REMARK INTER + INTRA:         -11.906
REMARK INTER:                 -10.495
REMARK INTRA:                  -1.411
REMARK UNBOUND:                -1.284
REMARK  Name = 
REMARK  9 active torsions:
REMARK  status: ('A' for Active; 'I' for Inactive)
REMARK    1  A    between atoms: C_1  and  N_2
REMARK    2  A    between atoms: N_2  and  C_3
REMARK    3  A    between atoms: N_2  and  C_4
REMARK    4  A    between atoms: C_4  and  C_5
REMARK    5  A    between atoms: C_5  and  N_6
REMARK    6  A    between atoms: C_5  and  C_19
REMARK    7  A    between atoms: C_7  and  C_9
REMARK    8  A    between atoms: C_22  and  C_23
REMARK    9  A    between atoms: C_23  and  C_24
REMARK                            x       y       z     vdW  Elec       q    Type
REMARK                         _______ _______ _______ _____ _____    ______ ____
ROOT
ATOM      1  C   UNL     1      47.935   7.108  13.798  0.00  0.00    +0.000 C 
ENDROOT
BRANCH   1   2
ATOM      2  C   UNL     1      46.929   6.408  12.891  0.00  0.00    +0.000 A 
ATOM      3  C   UNL     1      46.531   5.099  13.182  0.00  0.00    +0.000 A 
ATOM      4  C   UNL     1      45.698   4.398  12.310  0.00  0.00    +0.000 A 
ATOM      5  C   UNL     1      45.221   4.997  11.136  0.00  0.00    +0.000 A 
ATOM      6  C   UNL     1      45.571   6.325  10.868  0.00  0.00    +0.000 A 
ATOM      7  C   UNL     1      46.415   7.024  11.736  0.00  0.00    +0.000 A 
BRANCH   5   8
ATOM      8  C   UNL     1      44.361   4.219  10.168  0.00  0.00    +0.000 C 
BRANCH   8   9
ATOM      9  C   UNL     1      45.090   3.482   9.069  0.00  0.00    +0.000 A 
ATOM     10  C   UNL     1      45.304   2.106   9.141  0.00  0.00    +0.000 A 
ATOM     11  C   UNL     1      46.103   1.491   8.181  0.00  0.00    +0.000 A 
ATOM     12  C   UNL     1      46.668   2.260   7.173  0.00  0.00    +0.000 A 
ATOM     13  C   UNL     1      46.394   3.616   7.156  0.00  0.00    +0.000 A 
ATOM     14  N   UNL     1      45.626   4.240   8.077  0.00  0.00    +0.000 NA
ENDBRANCH   8   9
ENDBRANCH   5   8
ENDBRANCH   1   2
BRANCH   1  15
ATOM     15  N   UNL     1      47.888   6.552  15.137  0.00  0.00    +0.000 N 
ATOM     16  C   UNL     1      49.014   6.315  15.885  0.00  0.00    +0.000 C 
ATOM     17  O   UNL     1      50.133   6.666  15.523  0.00  0.00    +0.000 OA
ATOM     18  H   UNL     1      46.998   6.166  15.433  0.00  0.00    +0.000 HD
BRANCH  16  19
ATOM     19  C   UNL     1      48.804   5.650  17.178  0.00  0.00    +0.000 A 
ATOM     20  C   UNL     1      48.930   4.272  17.273  0.00  0.00    +0.000 A 
ATOM     21  S   UNL     1      48.621   3.660  18.837  0.00  0.00    +0.000 S 
ATOM     22  C   UNL     1      48.249   5.211  19.428  0.00  0.00    +0.000 A 
ATOM     23  N   UNL     1      47.826   5.388  20.709  0.00  0.00    +0.000 NA
ATOM     24  C   UNL     1      47.523   6.608  21.006  0.00  0.00    +0.000 A 
ATOM     25  N   UNL     1      47.635   7.670  20.149  0.00  0.00    +0.000 N 
ATOM     26  C   UNL     1      48.155   7.554  18.882  0.00  0.00    +0.000 A 
ATOM     27  O   UNL     1      48.401   8.548  18.205  0.00  0.00    +0.000 OA
ATOM     28  C   UNL     1      48.423   6.190  18.466  0.00  0.00    +0.000 A 
ATOM     29  H   UNL     1      47.428   8.608  20.459  0.00  0.00    +0.000 HD
ENDBRANCH  16  19
ENDBRANCH   1  15
BRANCH   1  30
ATOM     30  C   UNL     1      47.680   8.651  13.787  0.00  0.00    +0.000 C 
BRANCH  30  32
ATOM     31  C   UNL     1      49.457  10.089  14.646  0.00  0.00    +0.000 C 
ATOM     32  N   UNL     1      48.835   9.515  13.451  0.00  0.00    +0.000 NA
ATOM     33  C   UNL     1      49.837   8.746  12.703  0.00  0.00    +0.000 C 
ENDBRANCH  30  32
ENDBRANCH   1  30
TORSDOF 7
ENDMDL
MODEL 5
REMARK VINA RESULT:    -7.308      1.632      2.249
REMARK INTER + INTRA:         -11.582
REMARK INTER:                 -10.073
REMARK INTRA:                  -1.508
REMARK UNBOUND:                -1.284
REMARK  Name = 
REMARK  9 active torsions:
REMARK  status: ('A' for Active; 'I' for Inactive)
REMARK    1  A    between atoms: C_1  and  N_2
REMARK    2  A    between atoms: N_2  and  C_3
REMARK    3  A    between atoms: N_2  and  C_4
REMARK    4  A    between atoms: C_4  and  C_5
REMARK    5  A    between atoms: C_5  and  N_6
REMARK    6  A    between atoms: C_5  and  C_19
REMARK    7  A    between atoms: C_7  and  C_9
REMARK    8  A    between atoms: C_22  and  C_23
REMARK    9  A    between atoms: C_23  and  C_24
REMARK                            x       y       z     vdW  Elec       q    Type
REMARK                         _______ _______ _______ _____ _____    ______ ____
ROOT
ATOM      1  C   UNL     1      47.831   8.030  13.492  0.00  0.00    +0.000 C 
ENDROOT
BRANCH   1   2
ATOM      2  C   UNL     1      46.768   7.224  12.755  0.00  0.00    +0.000 A 
ATOM      3  C   UNL     1      46.882   5.831  12.687  0.00  0.00    +0.000 A 
ATOM      4  C   UNL     1      45.985   5.080  11.927  0.00  0.00    +0.000 A 
ATOM      5  C   UNL     1      44.935   5.701  11.235  0.00  0.00    +0.000 A 
ATOM      6  C   UNL     1      44.784   7.087  11.345  0.00  0.00    +0.000 A 
ATOM      7  C   UNL     1      45.690   7.841  12.097  0.00  0.00    +0.000 A 
BRANCH   5   8
ATOM      8  C   UNL     1      43.996   4.891  10.372  0.00  0.00    +0.000 C 
BRANCH   8   9
ATOM      9  C   UNL     1      44.642   3.929   9.402  0.00  0.00    +0.000 A 
ATOM     10  C   UNL     1      44.596   2.552   9.613  0.00  0.00    +0.000 A 
ATOM     11  C   UNL     1      45.324   1.711   8.776  0.00  0.00    +0.000 A 
ATOM     12  C   UNL     1      46.078   2.261   7.749  0.00  0.00    +0.000 A 
ATOM     13  C   UNL     1      46.058   3.636   7.590  0.00  0.00    +0.000 A 
ATOM     14  N   UNL     1      45.365   4.476   8.390  0.00  0.00    +0.000 NA
ENDBRANCH   8   9
ENDBRANCH   5   8
ENDBRANCH   1   2
BRANCH   1  15
ATOM     15  N   UNL     1      47.957   7.575  14.864  0.00  0.00    +0.000 N 
ATOM     16  C   UNL     1      49.163   7.256  15.435  0.00  0.00    +0.000 C 
ATOM     17  O   UNL     1      50.234   7.445  14.865  0.00  0.00    +0.000 OA
ATOM     18  H   UNL     1      47.096   7.319  15.334  0.00  0.00    +0.000 HD
BRANCH  16  19
ATOM     19  C   UNL     1      49.110   6.710  16.798  0.00  0.00    +0.000 A 
ATOM     20  C   UNL     1      49.572   7.468  17.864  0.00  0.00    +0.000 A 
ATOM     21  S   UNL     1      49.468   6.672  19.370  0.00  0.00    +0.000 S 
ATOM     22  C   UNL     1      48.856   5.262  18.642  0.00  0.00    +0.000 A 
ATOM     23  N   UNL     1      48.611   4.145  19.379  0.00  0.00    +0.000 NA
ATOM     24  C   UNL     1      48.204   3.131  18.691  0.00  0.00    +0.000 A 
ATOM     25  N   UNL     1      47.989   3.143  17.338  0.00  0.00    +0.000 N 
ATOM     26  C   UNL     1      48.124   4.276  16.571  0.00  0.00    +0.000 A 
ATOM     27  O   UNL     1      47.760   4.295  15.400  0.00  0.00    +0.000 OA
ATOM     28  C   UNL     1      48.669   5.418  17.280  0.00  0.00    +0.000 A 
ATOM     29  H   UNL     1      47.624   2.329  16.866  0.00  0.00    +0.000 HD
ENDBRANCH  16  19
ENDBRANCH   1  15
BRANCH   1  30
ATOM     30  C   UNL     1      47.503   9.557  13.401  0.00  0.00    +0.000 C 
BRANCH  30  32
ATOM     31  C   UNL     1      49.545   9.614  12.065  0.00  0.00    +0.000 C 
ATOM     32  N   UNL     1      48.412  10.386  12.579  0.00  0.00    +0.000 NA
ATOM     33  C   UNL     1      47.676  10.975  11.454  0.00  0.00    +0.000 C 
ENDBRANCH  30  32
ENDBRANCH   1  30
TORSDOF 7
ENDMDL
MODEL 6
REMARK VINA RESULT:    -6.979      2.601      5.006
REMARK INTER + INTRA:         -11.118
REMARK INTER:                  -9.609
REMARK INTRA:                  -1.509
REMARK UNBOUND:                -1.284
REMARK  Name = 
REMARK  9 active torsions:
REMARK  status: ('A' for Active; 'I' for Inactive)
REMARK    1  A    between atoms: C_1  and  N_2
REMARK    2  A    between atoms: N_2  and  C_3
REMARK    3  A    between atoms: N_2  and  C_4
REMARK    4  A    between atoms: C_4  and  C_5
REMARK    5  A    between atoms: C_5  and  N_6
REMARK    6  A    between atoms: C_5  and  C_19
REMARK    7  A    between atoms: C_7  and  C_9
REMARK    8  A    between atoms: C_22  and  C_23
REMARK    9  A    between atoms: C_23  and  C_24
REMARK                            x       y       z     vdW  Elec       q    Type
REMARK                         _______ _______ _______ _____ _____    ______ ____
ROOT
ATOM      1  C   UNL     1      47.375   5.641  15.025  0.00  0.00    +0.000 C 
ENDROOT
BRANCH   1   2
ATOM      2  C   UNL     1      46.693   5.188  13.740  0.00  0.00    +0.000 A 
ATOM      3  C   UNL     1      46.346   6.136  12.772  0.00  0.00    +0.000 A 
ATOM      4  C   UNL     1      45.624   5.763  11.638  0.00  0.00    +0.000 A 
ATOM      5  C   UNL     1      45.252   4.428  11.431  0.00  0.00    +0.000 A 
ATOM      6  C   UNL     1      45.645   3.467  12.368  0.00  0.00    +0.000 A 
ATOM      7  C   UNL     1      46.358   3.841  13.510  0.00  0.00    +0.000 A 
BRANCH   5   8
ATOM      8  C   UNL     1      44.427   4.036  10.227  0.00  0.00    +0.000 C 
BRANCH   8   9
ATOM      9  C   UNL     1      45.182   3.421   9.072  0.00  0.00    +0.000 A 
ATOM     10  C   UNL     1      45.390   2.044   8.998  0.00  0.00    +0.000 A 
ATOM     11  C   UNL     1      46.212   1.533   7.996  0.00  0.00    +0.000 A 
ATOM     12  C   UNL     1      46.803   2.406   7.092  0.00  0.00    +0.000 A 
ATOM     13  C   UNL     1      46.532   3.757   7.218  0.00  0.00    +0.000 A 
ATOM     14  N   UNL     1      45.743   4.280   8.183  0.00  0.00    +0.000 NA
ENDBRANCH   8   9
ENDBRANCH   5   8
ENDBRANCH   1   2
BRANCH   1  15
ATOM     15  N   UNL     1      48.707   6.144  14.747  0.00  0.00    +0.000 N 
ATOM     16  C   UNL     1      49.188   7.313  15.281  0.00  0.00    +0.000 C 
ATOM     17  O   UNL     1      48.572   7.957  16.124  0.00  0.00    +0.000 OA
ATOM     18  H   UNL     1      49.209   5.693  13.990  0.00  0.00    +0.000 HD
BRANCH  16  19
ATOM     19  C   UNL     1      50.516   7.737  14.816  0.00  0.00    +0.000 A 
ATOM     20  C   UNL     1      51.575   7.792  15.712  0.00  0.00    +0.000 A 
ATOM     21  S   UNL     1      53.036   8.336  15.016  0.00  0.00    +0.000 S 
ATOM     22  C   UNL     1      52.290   8.574  13.506  0.00  0.00    +0.000 A 
ATOM     23  N   UNL     1      52.981   9.103  12.460  0.00  0.00    +0.000 NA
ATOM     24  C   UNL     1      52.277   9.283  11.393  0.00  0.00    +0.000 A 
ATOM     25  N   UNL     1      50.954   8.951  11.266  0.00  0.00    +0.000 N 
ATOM     26  C   UNL     1      50.245   8.320  12.260  0.00  0.00    +0.000 A 
ATOM     27  O   UNL     1      49.117   7.884  12.054  0.00  0.00    +0.000 OA
ATOM     28  C   UNL     1      50.963   8.181  13.513  0.00  0.00    +0.000 A 
ATOM     29  H   UNL     1      50.473   9.073  10.387  0.00  0.00    +0.000 HD
ENDBRANCH  16  19
ENDBRANCH   1  15
BRANCH   1  30
ATOM     30  C   UNL     1      47.387   4.472  16.065  0.00  0.00    +0.000 C 
BRANCH  30  32
ATOM     31  C   UNL     1      49.105   4.532  17.799  0.00  0.00    +0.000 C 
ATOM     32  N   UNL     1      48.714   3.980  16.500  0.00  0.00    +0.000 NA
ATOM     33  C   UNL     1      48.706   2.514  16.577  0.00  0.00    +0.000 C 
ENDBRANCH  30  32
ENDBRANCH   1  30
TORSDOF 7
ENDMDL
MODEL 7
REMARK VINA RESULT:    -6.510      3.812      5.652
REMARK INTER + INTRA:         -10.457
REMARK INTER:                  -9.168
REMARK INTRA:                  -1.289
REMARK UNBOUND:                -1.284
REMARK  Name = 
REMARK  9 active torsions:
REMARK  status: ('A' for Active; 'I' for Inactive)
REMARK    1  A    between atoms: C_1  and  N_2
REMARK    2  A    between atoms: N_2  and  C_3
REMARK    3  A    between atoms: N_2  and  C_4
REMARK    4  A    between atoms: C_4  and  C_5
REMARK    5  A    between atoms: C_5  and  N_6
REMARK    6  A    between atoms: C_5  and  C_19
REMARK    7  A    between atoms: C_7  and  C_9
REMARK    8  A    between atoms: C_22  and  C_23
REMARK    9  A    between atoms: C_23  and  C_24
REMARK                            x       y       z     vdW  Elec       q    Type
REMARK                         _______ _______ _______ _____ _____    ______ ____
ROOT
ATOM      1  C   UNL     1      48.346   7.151  14.032  0.00  0.00    +0.000 C 
ENDROOT
BRANCH   1   2
ATOM      2  C   UNL     1      47.242   6.571  13.155  0.00  0.00    +0.000 A 
ATOM      3  C   UNL     1      46.859   5.235  13.321  0.00  0.00    +0.000 A 
ATOM      4  C   UNL     1      45.931   4.649  12.461  0.00  0.00    +0.000 A 
ATOM      5  C   UNL     1      45.342   5.391  11.428  0.00  0.00    +0.000 A 
ATOM      6  C   UNL     1      45.680   6.742  11.292  0.00  0.00    +0.000 A 
ATOM      7  C   UNL     1      46.618   7.326  12.147  0.00  0.00    +0.000 A 
BRANCH   5   8
ATOM      8  C   UNL     1      44.375   4.740  10.467  0.00  0.00    +0.000 C 
BRANCH   8   9
ATOM      9  C   UNL     1      44.985   3.874   9.389  0.00  0.00    +0.000 A 
ATOM     10  C   UNL     1      44.985   2.484   9.495  0.00  0.00    +0.000 A 
ATOM     11  C   UNL     1      45.682   1.730   8.554  0.00  0.00    +0.000 A 
ATOM     12  C   UNL     1      46.360   2.380   7.531  0.00  0.00    +0.000 A 
ATOM     13  C   UNL     1      46.296   3.761   7.481  0.00  0.00    +0.000 A 
ATOM     14  N   UNL     1      45.632   4.517   8.383  0.00  0.00    +0.000 NA
ENDBRANCH   8   9
ENDBRANCH   5   8
ENDBRANCH   1   2
BRANCH   1  15
ATOM     15  N   UNL     1      49.604   7.189  13.311  0.00  0.00    +0.000 N 
ATOM     16  C   UNL     1      50.061   8.313  12.670  0.00  0.00    +0.000 C 
ATOM     17  O   UNL     1      49.498   9.400  12.759  0.00  0.00    +0.000 OA
ATOM     18  H   UNL     1      50.051   6.295  13.137  0.00  0.00    +0.000 HD
BRANCH  16  19
ATOM     19  C   UNL     1      51.301   8.158  11.896  0.00  0.00    +0.000 A 
ATOM     20  C   UNL     1      51.268   7.524  10.662  0.00  0.00    +0.000 A 
ATOM     21  S   UNL     1      52.798   7.399   9.913  0.00  0.00    +0.000 S 
ATOM     22  C   UNL     1      53.566   8.135  11.240  0.00  0.00    +0.000 A 
ATOM     23  N   UNL     1      54.919   8.274  11.276  0.00  0.00    +0.000 NA
ATOM     24  C   UNL     1      55.373   8.796  12.366  0.00  0.00    +0.000 A 
ATOM     25  N   UNL     1      54.594   9.222  13.410  0.00  0.00    +0.000 N 
ATOM     26  C   UNL     1      53.220   9.196  13.374  0.00  0.00    +0.000 A 
ATOM     27  O   UNL     1      52.554   9.740  14.249  0.00  0.00    +0.000 OA
ATOM     28  C   UNL     1      52.663   8.532  12.211  0.00  0.00    +0.000 A 
ATOM     29  H   UNL     1      55.009   9.667  14.216  0.00  0.00    +0.000 HD
ENDBRANCH  16  19
ENDBRANCH   1  15
BRANCH   1  30
ATOM     30  C   UNL     1      48.451   6.340  15.366  0.00  0.00    +0.000 C 
BRANCH  30  32
ATOM     31  C   UNL     1      50.043   7.605  16.717  0.00  0.00    +0.000 C 
ATOM     32  N   UNL     1      49.768   6.335  16.041  0.00  0.00    +0.000 NA
ATOM     33  C   UNL     1      49.828   5.241  17.019  0.00  0.00    +0.000 C 
ENDBRANCH  30  32
ENDBRANCH   1  30
TORSDOF 7
ENDMDL
MODEL 8
REMARK VINA RESULT:    -6.444      3.723      6.024
REMARK INTER + INTRA:         -10.365
REMARK INTER:                  -8.949
REMARK INTRA:                  -1.416
REMARK UNBOUND:                -1.284
REMARK  Name = 
REMARK  9 active torsions:
REMARK  status: ('A' for Active; 'I' for Inactive)
REMARK    1  A    between atoms: C_1  and  N_2
REMARK    2  A    between atoms: N_2  and  C_3
REMARK    3  A    between atoms: N_2  and  C_4
REMARK    4  A    between atoms: C_4  and  C_5
REMARK    5  A    between atoms: C_5  and  N_6
REMARK    6  A    between atoms: C_5  and  C_19
REMARK    7  A    between atoms: C_7  and  C_9
REMARK    8  A    between atoms: C_22  and  C_23
REMARK    9  A    between atoms: C_23  and  C_24
REMARK                            x       y       z     vdW  Elec       q    Type
REMARK                         _______ _______ _______ _____ _____    ______ ____
ROOT
ATOM      1  C   UNL     1      48.939   6.187  17.374  0.00  0.00    +0.000 C 
ENDROOT
BRANCH   1   2
ATOM      2  C   UNL     1      48.311   5.474  16.183  0.00  0.00    +0.000 A 
ATOM      3  C   UNL     1      48.190   6.145  14.961  0.00  0.00    +0.000 A 
ATOM      4  C   UNL     1      47.522   5.555  13.888  0.00  0.00    +0.000 A 
ATOM      5  C   UNL     1      46.978   4.268  14.001  0.00  0.00    +0.000 A 
ATOM      6  C   UNL     1      47.145   3.570  15.203  0.00  0.00    +0.000 A 
ATOM      7  C   UNL     1      47.805   4.165  16.282  0.00  0.00    +0.000 A 
BRANCH   5   8
ATOM      8  C   UNL     1      46.211   3.652  12.855  0.00  0.00    +0.000 C 
BRANCH   8   9
ATOM      9  C   UNL     1      44.974   4.393  12.405  0.00  0.00    +0.000 A 
ATOM     10  C   UNL     1      43.951   4.700  13.301  0.00  0.00    +0.000 A 
ATOM     11  C   UNL     1      42.768   5.254  12.820  0.00  0.00    +0.000 A 
ATOM     12  C   UNL     1      42.633   5.491  11.458  0.00  0.00    +0.000 A 
ATOM     13  C   UNL     1      43.700   5.179  10.634  0.00  0.00    +0.000 A 
ATOM     14  N   UNL     1      44.857   4.636  11.073  0.00  0.00    +0.000 NA
ENDBRANCH   8   9
ENDBRANCH   5   8
ENDBRANCH   1   2
BRANCH   1  15
ATOM     15  N   UNL     1      50.012   5.391  17.940  0.00  0.00    +0.000 N 
ATOM     16  C   UNL     1      51.278   5.367  17.413  0.00  0.00    +0.000 C 
ATOM     17  O   UNL     1      51.628   6.106  16.498  0.00  0.00    +0.000 OA
ATOM     18  H   UNL     1      49.743   4.702  18.634  0.00  0.00    +0.000 HD
BRANCH  16  19
ATOM     19  C   UNL     1      52.221   4.428  18.038  0.00  0.00    +0.000 A 
ATOM     20  C   UNL     1      53.280   4.914  18.791  0.00  0.00    +0.000 A 
ATOM     21  S   UNL     1      54.296   3.692  19.416  0.00  0.00    +0.000 S 
ATOM     22  C   UNL     1      53.388   2.473  18.653  0.00  0.00    +0.000 A 
ATOM     23  N   UNL     1      53.768   1.169  18.726  0.00  0.00    +0.000 NA
ATOM     24  C   UNL     1      53.022   0.358  18.052  0.00  0.00    +0.000 A 
ATOM     25  N   UNL     1      51.912   0.729  17.340  0.00  0.00    +0.000 N 
ATOM     26  C   UNL     1      51.433   2.017  17.323  0.00  0.00    +0.000 A 
ATOM     27  O   UNL     1      50.346   2.281  16.819  0.00  0.00    +0.000 OA
ATOM     28  C   UNL     1      52.288   2.983  17.986  0.00  0.00    +0.000 A 
ATOM     29  H   UNL     1      51.343   0.037  16.874  0.00  0.00    +0.000 HD
ENDBRANCH  16  19
ENDBRANCH   1  15
BRANCH   1  30
ATOM     30  C   UNL     1      47.838   6.536  18.430  0.00  0.00    +0.000 C 
BRANCH  30  32
ATOM     31  C   UNL     1      48.365   8.365  19.958  0.00  0.00    +0.000 C 
ATOM     32  N   UNL     1      48.307   6.912  19.783  0.00  0.00    +0.000 NA
ATOM     33  C   UNL     1      47.421   6.334  20.800  0.00  0.00    +0.000 C 
ENDBRANCH  30  32
ENDBRANCH   1  30
TORSDOF 7
ENDMDL
MODEL 9
REMARK VINA RESULT:    -5.680      3.044      4.646
REMARK INTER + INTRA:          -9.288
REMARK INTER:                  -7.998
REMARK INTRA:                  -1.291
REMARK UNBOUND:                -1.284
REMARK  Name = 
REMARK  9 active torsions:
REMARK  status: ('A' for Active; 'I' for Inactive)
REMARK    1  A    between atoms: C_1  and  N_2
REMARK    2  A    between atoms: N_2  and  C_3
REMARK    3  A    between atoms: N_2  and  C_4
REMARK    4  A    between atoms: C_4  and  C_5
REMARK    5  A    between atoms: C_5  and  N_6
REMARK    6  A    between atoms: C_5  and  C_19
REMARK    7  A    between atoms: C_7  and  C_9
REMARK    8  A    between atoms: C_22  and  C_23
REMARK    9  A    between atoms: C_23  and  C_24
REMARK                            x       y       z     vdW  Elec       q    Type
REMARK                         _______ _______ _______ _____ _____    ______ ____
ROOT
ATOM      1  C   UNL     1      49.912   8.382  14.156  0.00  0.00    +0.000 C 
ENDROOT
BRANCH   1   2
ATOM      2  C   UNL     1      48.652   8.085  13.352  0.00  0.00    +0.000 A 
ATOM      3  C   UNL     1      47.434   8.652  13.744  0.00  0.00    +0.000 A 
ATOM      4  C   UNL     1      46.248   8.311  13.093  0.00  0.00    +0.000 A 
ATOM      5  C   UNL     1      46.253   7.413  12.016  0.00  0.00    +0.000 A 
ATOM      6  C   UNL     1      47.476   6.886  11.585  0.00  0.00    +0.000 A 
ATOM      7  C   UNL     1      48.662   7.219  12.244  0.00  0.00    +0.000 A 
BRANCH   5   8
ATOM      8  C   UNL     1      44.962   7.007  11.345  0.00  0.00    +0.000 C 
BRANCH   8   9
ATOM      9  C   UNL     1      44.515   5.581  11.566  0.00  0.00    +0.000 A 
ATOM     10  C   UNL     1      44.606   4.631  10.548  0.00  0.00    +0.000 A 
ATOM     11  C   UNL     1      44.052   3.369  10.745  0.00  0.00    +0.000 A 
ATOM     12  C   UNL     1      43.423   3.082  11.949  0.00  0.00    +0.000 A 
ATOM     13  C   UNL     1      43.391   4.070  12.918  0.00  0.00    +0.000 A 
ATOM     14  N   UNL     1      43.916   5.305  12.753  0.00  0.00    +0.000 NA
ENDBRANCH   8   9
ENDBRANCH   5   8
ENDBRANCH   1   2
BRANCH   1  15
ATOM     15  N   UNL     1      49.654   8.248  15.578  0.00  0.00    +0.000 N 
ATOM     16  C   UNL     1      50.222   7.266  16.348  0.00  0.00    +0.000 C 
ATOM     17  O   UNL     1      51.080   6.501  15.917  0.00  0.00    +0.000 OA
ATOM     18  H   UNL     1      48.887   8.798  15.950  0.00  0.00    +0.000 HD
BRANCH  16  19
ATOM     19  C   UNL     1      49.777   7.202  17.748  0.00  0.00    +0.000 A 
ATOM     20  C   UNL     1      49.756   8.357  18.517  0.00  0.00    +0.000 A 
ATOM     21  S   UNL     1      49.244   8.100  20.126  0.00  0.00    +0.000 S 
ATOM     22  C   UNL     1      49.090   6.426  19.866  0.00  0.00    +0.000 A 
ATOM     23  N   UNL     1      48.747   5.590  20.883  0.00  0.00    +0.000 NA
ATOM     24  C   UNL     1      48.723   4.340  20.559  0.00  0.00    +0.000 A 
ATOM     25  N   UNL     1      48.980   3.854  19.304  0.00  0.00    +0.000 N 
ATOM     26  C   UNL     1      49.228   4.669  18.225  0.00  0.00    +0.000 A 
ATOM     27  O   UNL     1      49.282   4.214  17.088  0.00  0.00    +0.000 OA
ATOM     28  C   UNL     1      49.359   6.076  18.555  0.00  0.00    +0.000 A 
ATOM     29  H   UNL     1      48.897   2.868  19.105  0.00  0.00    +0.000 HD
ENDBRANCH  16  19
ENDBRANCH   1  15
BRANCH   1  30
ATOM     30  C   UNL     1      50.463   9.797  13.783  0.00  0.00    +0.000 C 
BRANCH  30  32
ATOM     31  C   UNL     1      52.530  10.403  14.933  0.00  0.00    +0.000 C 
ATOM     32  N   UNL     1      51.934   9.934  13.681  0.00  0.00    +0.000 NA
ATOM     33  C   UNL     1      52.534   8.648  13.308  0.00  0.00    +0.000 C 
ENDBRANCH  30  32
ENDBRANCH   1  30
TORSDOF 7
ENDMDL
