MODEL 1
REMARK VINA RESULT:    -8.062      0.000      0.000
REMARK INTER + INTRA:         -11.699
REMARK INTER:                 -10.889
REMARK INTRA:                  -0.809
REMARK UNBOUND:                -0.809
REMARK  Name = 
REMARK  7 active torsions:
REMARK  status: ('A' for Active; 'I' for Inactive)
REMARK    1  A    between atoms: C_1  and  S_2
REMARK    2  A    between atoms: S_2  and  C_5
REMARK    3  A    between atoms: N_9  and  C_10
REMARK    4  A    between atoms: C_10  and  C_11
REMARK    5  A    between atoms: C_11  and  C_14
REMARK    6  A    between atoms: C_19  and  O_20
REMARK    7  A    between atoms: O_20  and  C_21
REMARK                            x       y       z     vdW  Elec       q    Type
REMARK                         _______ _______ _______ _____ _____    ______ ____
ROOT
ATOM      1  C   UNL     1      43.405   4.721  12.758  0.00  0.00    +0.000 C 
ATOM      2  F   UNL     1      42.694   5.892  12.682  0.00  0.00    +0.000 F 
ATOM      3  F   UNL     1      42.774   3.986  13.719  0.00  0.00    +0.000 F 
ENDROOT
BRANCH   1   4
ATOM      4  C   UNL     1      44.861   4.974  13.101  0.00  0.00    +0.000 A 
ATOM      5  C   UNL     1      45.450   6.232  12.890  0.00  0.00    +0.000 A 
ATOM      6  C   UNL     1      46.776   6.447  13.244  0.00  0.00    +0.000 A 
ATOM      7  F   UNL     1      47.328   7.648  13.038  0.00  0.00    +0.000 F 
ATOM      8  C   UNL     1      47.534   5.434  13.829  0.00  0.00    +0.000 A 
ATOM      9  C   UNL     1      46.955   4.184  14.060  0.00  0.00    +0.000 A 
ATOM     10  C   UNL     1      45.635   3.951  13.673  0.00  0.00    +0.000 A 
BRANCH   9  11
ATOM     11  O   UNL     1      47.754   3.244  14.661  0.00  0.00    +0.000 OA
BRANCH  11  12
ATOM     12  C   UNL     1      47.671   3.100  16.102  0.00  0.00    +0.000 C 
ATOM     13  C   UNL     1      47.187   4.338  16.899  0.00  0.00    +0.000 C 
ATOM     14  C   UNL     1      48.338   4.120  17.890  0.00  0.00    +0.000 C 
ATOM     15  C   UNL     1      49.018   3.214  16.853  0.00  0.00    +0.000 C 
ENDBRANCH  11  12
ENDBRANCH   9  11
ENDBRANCH   1   4
BRANCH   1  16
ATOM     16  C   UNL     1      43.279   4.004  11.391  0.00  0.00    +0.000 C 
BRANCH  16  21
ATOM     17  C   UNL     1      46.373   2.641   7.745  0.00  0.00    +0.000 A 
ATOM     18  C   UNL     1      46.288   4.019   7.605  0.00  0.00    +0.000 A 
ATOM     19  C   UNL     1      45.472   4.730   8.485  0.00  0.00    +0.000 A 
ATOM     20  C   UNL     1      44.776   4.052   9.487  0.00  0.00    +0.000 A 
ATOM     21  N   UNL     1      43.881   4.777  10.283  0.00  0.00    +0.000 N 
ATOM     22  N   UNL     1      44.879   2.713   9.630  0.00  0.00    +0.000 NA
ATOM     23  C   UNL     1      45.683   2.034   8.774  0.00  0.00    +0.000 A 
ATOM     24  H   UNL     1      44.287   5.654  10.600  0.00  0.00    +0.000 HD
BRANCH  17  26
ATOM     25  C   UNL     1      46.989   2.300   5.052  0.00  0.00    +0.000 C 
ATOM     26  S   UNL     1      47.366   1.668   6.666  0.00  0.00    +0.000 S 
ATOM     27  O   UNL     1      46.880   0.304   6.739  0.00  0.00    +0.000 OA
ATOM     28  O   UNL     1      48.753   1.978   6.956  0.00  0.00    +0.000 OA
ENDBRANCH  17  26
ENDBRANCH  16  21
ENDBRANCH   1  16
TORSDOF 6
ENDMDL
MODEL 2
REMARK VINA RESULT:    -7.931      3.765      8.571
REMARK INTER + INTRA:         -11.521
REMARK INTER:                 -10.971
REMARK INTRA:                  -0.551
REMARK UNBOUND:                -0.809
REMARK  Name = 
REMARK  7 active torsions:
REMARK  status: ('A' for Active; 'I' for Inactive)
REMARK    1  A    between atoms: C_1  and  S_2
REMARK    2  A    between atoms: S_2  and  C_5
REMARK    3  A    between atoms: N_9  and  C_10
REMARK    4  A    between atoms: C_10  and  C_11
REMARK    5  A    between atoms: C_11  and  C_14
REMARK    6  A    between atoms: C_19  and  O_20
REMARK    7  A    between atoms: O_20  and  C_21
REMARK                            x       y       z     vdW  Elec       q    Type
REMARK                         _______ _______ _______ _____ _____    ______ ____
ROOT
ATOM      1  C   UNL     1      45.818   6.073  12.351  0.00  0.00    +0.000 C 
ATOM      2  F   UNL     1      44.865   6.518  13.231  0.00  0.00    +0.000 F 
ATOM      3  F   UNL     1      46.217   7.186  11.670  0.00  0.00    +0.000 F 
ENDROOT
BRANCH   1   4
ATOM      4  C   UNL     1      45.268   5.006  11.424  0.00  0.00    +0.000 A 
ATOM      5  C   UNL     1      44.386   4.019  11.895  0.00  0.00    +0.000 A 
ATOM      6  C   UNL     1      43.869   3.073  11.017  0.00  0.00    +0.000 A 
ATOM      7  F   UNL     1      43.031   2.137  11.475  0.00  0.00    +0.000 F 
ATOM      8  C   UNL     1      44.199   3.098   9.664  0.00  0.00    +0.000 A 
ATOM      9  C   UNL     1      45.061   4.084   9.181  0.00  0.00    +0.000 A 
ATOM     10  C   UNL     1      45.612   5.014  10.062  0.00  0.00    +0.000 A 
BRANCH   9  11
ATOM     11  O   UNL     1      45.321   4.061   7.833  0.00  0.00    +0.000 OA
BRANCH  11  12
ATOM     12  C   UNL     1      46.595   3.523   7.395  0.00  0.00    +0.000 C 
ATOM     13  C   UNL     1      46.759   3.271   5.875  0.00  0.00    +0.000 C 
ATOM     14  C   UNL     1      47.357   1.894   6.191  0.00  0.00    +0.000 C 
ATOM     15  C   UNL     1      46.775   2.001   7.608  0.00  0.00    +0.000 C 
ENDBRANCH  11  12
ENDBRANCH   9  11
ENDBRANCH   1   4
BRANCH   1  16
ATOM     16  C   UNL     1      47.004   5.522  13.182  0.00  0.00    +0.000 C 
BRANCH  16  21
ATOM     17  C   UNL     1      48.792   4.879  17.778  0.00  0.00    +0.000 A 
ATOM     18  C   UNL     1      47.823   3.892  17.661  0.00  0.00    +0.000 A 
ATOM     19  C   UNL     1      47.104   3.800  16.469  0.00  0.00    +0.000 A 
ATOM     20  C   UNL     1      47.380   4.682  15.423  0.00  0.00    +0.000 A 
ATOM     21  N   UNL     1      46.568   4.637  14.283  0.00  0.00    +0.000 N 
ATOM     22  N   UNL     1      48.338   5.627  15.536  0.00  0.00    +0.000 NA
ATOM     23  C   UNL     1      49.037   5.700  16.696  0.00  0.00    +0.000 A 
ATOM     24  H   UNL     1      46.413   3.681  13.972  0.00  0.00    +0.000 HD
BRANCH  17  26
ATOM     25  C   UNL     1      49.725   6.824  19.536  0.00  0.00    +0.000 C 
ATOM     26  S   UNL     1      49.732   5.073  19.253  0.00  0.00    +0.000 S 
ATOM     27  O   UNL     1      51.093   4.672  18.956  0.00  0.00    +0.000 OA
ATOM     28  O   UNL     1      48.990   4.442  20.327  0.00  0.00    +0.000 OA
ENDBRANCH  17  26
ENDBRANCH  16  21
ENDBRANCH   1  16
TORSDOF 6
ENDMDL
MODEL 3
REMARK VINA RESULT:    -7.289      3.795      8.200
REMARK INTER + INTRA:         -10.655
REMARK INTER:                  -9.860
REMARK INTRA:                  -0.794
REMARK UNBOUND:                -0.809
REMARK  Name = 
REMARK  7 active torsions:
REMARK  status: ('A' for Active; 'I' for Inactive)
REMARK    1  A    between atoms: C_1  and  S_2
REMARK    2  A    between atoms: S_2  and  C_5
REMARK    3  A    between atoms: N_9  and  C_10
REMARK    4  A    between atoms: C_10  and  C_11
REMARK    5  A    between atoms: C_11  and  C_14
REMARK    6  A    between atoms: C_19  and  O_20
REMARK    7  A    between atoms: O_20  and  C_21
REMARK                            x       y       z     vdW  Elec       q    Type
REMARK                         _______ _______ _______ _____ _____    ______ ____
ROOT
ATOM      1  C   UNL     1      45.441   6.729  11.753  0.00  0.00    +0.000 C 
ATOM      2  F   UNL     1      44.951   6.948  13.015  0.00  0.00    +0.000 F 
ATOM      3  F   UNL     1      44.943   7.750  10.999  0.00  0.00    +0.000 F 
ENDROOT
BRANCH   1   4
ATOM      4  C   UNL     1      45.023   5.372  11.220  0.00  0.00    +0.000 A 
ATOM      5  C   UNL     1      44.352   4.446  12.035  0.00  0.00    +0.000 A 
ATOM      6  C   UNL     1      43.949   3.223  11.512  0.00  0.00    +0.000 A 
ATOM      7  F   UNL     1      43.311   2.347  12.297  0.00  0.00    +0.000 F 
ATOM      8  C   UNL     1      44.183   2.904  10.176  0.00  0.00    +0.000 A 
ATOM      9  C   UNL     1      44.834   3.824   9.351  0.00  0.00    +0.000 A 
ATOM     10  C   UNL     1      45.274   5.037   9.879  0.00  0.00    +0.000 A 
BRANCH   9  11
ATOM     11  O   UNL     1      45.009   3.451   8.042  0.00  0.00    +0.000 OA
BRANCH  11  12
ATOM     12  C   UNL     1      46.362   3.203   7.579  0.00  0.00    +0.000 C 
ATOM     13  C   UNL     1      46.592   3.240   6.047  0.00  0.00    +0.000 C 
ATOM     14  C   UNL     1      47.402   1.943   6.161  0.00  0.00    +0.000 C 
ATOM     15  C   UNL     1      46.785   1.716   7.549  0.00  0.00    +0.000 C 
ENDBRANCH  11  12
ENDBRANCH   9  11
ENDBRANCH   1   4
BRANCH   1  16
ATOM     16  C   UNL     1      46.985   6.840  11.822  0.00  0.00    +0.000 C 
BRANCH  16  21
ATOM     17  C   UNL     1      48.991   6.989  16.370  0.00  0.00    +0.000 A 
ATOM     18  C   UNL     1      48.785   8.326  16.058  0.00  0.00    +0.000 A 
ATOM     19  C   UNL     1      48.233   8.644  14.817  0.00  0.00    +0.000 A 
ATOM     20  C   UNL     1      47.887   7.624  13.930  0.00  0.00    +0.000 A 
ATOM     21  N   UNL     1      47.439   7.977  12.651  0.00  0.00    +0.000 N 
ATOM     22  N   UNL     1      48.071   6.325  14.248  0.00  0.00    +0.000 NA
ATOM     23  C   UNL     1      48.600   6.027  15.461  0.00  0.00    +0.000 A 
ATOM     24  H   UNL     1      46.751   8.726  12.690  0.00  0.00    +0.000 HD
BRANCH  17  26
ATOM     25  C   UNL     1      51.102   5.525  17.440  0.00  0.00    +0.000 C 
ATOM     26  S   UNL     1      49.698   6.503  17.906  0.00  0.00    +0.000 S 
ATOM     27  O   UNL     1      48.744   5.633  18.568  0.00  0.00    +0.000 OA
ATOM     28  O   UNL     1      50.184   7.703  18.560  0.00  0.00    +0.000 OA
ENDBRANCH  17  26
ENDBRANCH  16  21
ENDBRANCH   1  16
TORSDOF 6
ENDMDL
MODEL 4
REMARK VINA RESULT:    -7.075      4.163      8.484
REMARK INTER + INTRA:         -10.366
REMARK INTER:                  -9.660
REMARK INTRA:                  -0.706
REMARK UNBOUND:                -0.809
REMARK  Name = 
REMARK  7 active torsions:
REMARK  status: ('A' for Active; 'I' for Inactive)
REMARK    1  A    between atoms: C_1  and  S_2
REMARK    2  A    between atoms: S_2  and  C_5
REMARK    3  A    between atoms: N_9  and  C_10
REMARK    4  A    between atoms: C_10  and  C_11
REMARK    5  A    between atoms: C_11  and  C_14
REMARK    6  A    between atoms: C_19  and  O_20
REMARK    7  A    between atoms: O_20  and  C_21
REMARK                            x       y       z     vdW  Elec       q    Type
REMARK                         _______ _______ _______ _____ _____    ______ ____
ROOT
ATOM      1  C   UNL     1      46.744   4.394  13.580  0.00  0.00    +0.000 C 
ATOM      2  F   UNL     1      47.535   5.394  13.076  0.00  0.00    +0.000 F 
ATOM      3  F   UNL     1      47.505   3.264  13.493  0.00  0.00    +0.000 F 
ENDROOT
BRANCH   1   4
ATOM      4  C   UNL     1      45.445   4.265  12.807  0.00  0.00    +0.000 A 
ATOM      5  C   UNL     1      44.371   5.139  13.042  0.00  0.00    +0.000 A 
ATOM      6  C   UNL     1      43.204   5.022  12.296  0.00  0.00    +0.000 A 
ATOM      7  F   UNL     1      42.186   5.857  12.527  0.00  0.00    +0.000 F 
ATOM      8  C   UNL     1      43.087   4.057  11.297  0.00  0.00    +0.000 A 
ATOM      9  C   UNL     1      44.156   3.194  11.042  0.00  0.00    +0.000 A 
ATOM     10  C   UNL     1      45.315   3.282  11.812  0.00  0.00    +0.000 A 
BRANCH   9  11
ATOM     11  O   UNL     1      43.977   2.286  10.029  0.00  0.00    +0.000 OA
BRANCH  11  12
ATOM     12  C   UNL     1      44.445   2.644   8.704  0.00  0.00    +0.000 C 
ATOM     13  C   UNL     1      45.893   2.229   8.340  0.00  0.00    +0.000 C 
ATOM     14  C   UNL     1      46.130   3.635   7.775  0.00  0.00    +0.000 C 
ATOM     15  C   UNL     1      44.888   4.117   8.538  0.00  0.00    +0.000 C 
ENDBRANCH  11  12
ENDBRANCH   9  11
ENDBRANCH   1   4
BRANCH   1  16
ATOM     16  C   UNL     1      46.468   4.718  15.070  0.00  0.00    +0.000 C 
BRANCH  16  21
ATOM     17  C   UNL     1      50.672   4.773  17.725  0.00  0.00    +0.000 A 
ATOM     18  C   UNL     1      50.185   3.486  17.908  0.00  0.00    +0.000 A 
ATOM     19  C   UNL     1      48.983   3.134  17.294  0.00  0.00    +0.000 A 
ATOM     20  C   UNL     1      48.310   4.066  16.502  0.00  0.00    +0.000 A 
ATOM     21  N   UNL     1      47.053   3.719  15.990  0.00  0.00    +0.000 N 
ATOM     22  N   UNL     1      48.799   5.309  16.312  0.00  0.00    +0.000 NA
ATOM     23  C   UNL     1      49.974   5.637  16.907  0.00  0.00    +0.000 A 
ATOM     24  H   UNL     1      47.057   2.783  15.592  0.00  0.00    +0.000 HD
BRANCH  17  26
ATOM     25  C   UNL     1      52.765   3.854  19.312  0.00  0.00    +0.000 C 
ATOM     26  S   UNL     1      52.171   5.303  18.479  0.00  0.00    +0.000 S 
ATOM     27  O   UNL     1      51.827   6.290  19.484  0.00  0.00    +0.000 OA
ATOM     28  O   UNL     1      53.103   5.622  17.415  0.00  0.00    +0.000 OA
ENDBRANCH  17  26
ENDBRANCH  16  21
ENDBRANCH   1  16
TORSDOF 6
ENDMDL
MODEL 5
REMARK VINA RESULT:    -6.989      4.408      6.241
REMARK INTER + INTRA:         -10.250
REMARK INTER:                  -9.531
REMARK INTRA:                  -0.719
REMARK UNBOUND:                -0.809
REMARK  Name = 
REMARK  7 active torsions:
REMARK  status: ('A' for Active; 'I' for Inactive)
REMARK    1  A    between atoms: C_1  and  S_2
REMARK    2  A    between atoms: S_2  and  C_5
REMARK    3  A    between atoms: N_9  and  C_10
REMARK    4  A    between atoms: C_10  and  C_11
REMARK    5  A    between atoms: C_11  and  C_14
REMARK    6  A    between atoms: C_19  and  O_20
REMARK    7  A    between atoms: O_20  and  C_21
REMARK                            x       y       z     vdW  Elec       q    Type
REMARK                         _______ _______ _______ _____ _____    ______ ____
ROOT
ATOM      1  C   UNL     1      48.048   3.619  17.261  0.00  0.00    +0.000 C 
ATOM      2  F   UNL     1      47.655   4.866  17.676  0.00  0.00    +0.000 F 
ATOM      3  F   UNL     1      47.296   2.750  17.996  0.00  0.00    +0.000 F 
ENDROOT
BRANCH   1   4
ATOM      4  C   UNL     1      49.535   3.404  17.473  0.00  0.00    +0.000 A 
ATOM      5  C   UNL     1      50.363   4.445  17.924  0.00  0.00    +0.000 A 
ATOM      6  C   UNL     1      51.716   4.212  18.143  0.00  0.00    +0.000 A 
ATOM      7  F   UNL     1      52.496   5.210  18.571  0.00  0.00    +0.000 F 
ATOM      8  C   UNL     1      52.266   2.949  17.939  0.00  0.00    +0.000 A 
ATOM      9  C   UNL     1      51.449   1.901  17.508  0.00  0.00    +0.000 A 
ATOM     10  C   UNL     1      50.099   2.137  17.251  0.00  0.00    +0.000 A 
BRANCH   9  11
ATOM     11  O   UNL     1      52.056   0.680  17.352  0.00  0.00    +0.000 OA
BRANCH  11  12
ATOM     12  C   UNL     1      53.467   0.575  17.669  0.00  0.00    +0.000 C 
ATOM     13  C   UNL     1      54.414   0.182  16.507  0.00  0.00    +0.000 C 
ATOM     14  C   UNL     1      55.098  -0.829  17.436  0.00  0.00    +0.000 C 
ATOM     15  C   UNL     1      53.888  -0.734  18.377  0.00  0.00    +0.000 C 
ENDBRANCH  11  12
ENDBRANCH   9  11
ENDBRANCH   1   4
BRANCH   1  16
ATOM     16  C   UNL     1      47.681   3.484  15.762  0.00  0.00    +0.000 C 
BRANCH  16  21
ATOM     17  C   UNL     1      45.109   4.400  11.606  0.00  0.00    +0.000 A 
ATOM     18  C   UNL     1      45.435   5.665  12.076  0.00  0.00    +0.000 A 
ATOM     19  C   UNL     1      46.163   5.769  13.261  0.00  0.00    +0.000 A 
ATOM     20  C   UNL     1      46.560   4.613  13.935  0.00  0.00    +0.000 A 
ATOM     21  N   UNL     1      47.192   4.751  15.178  0.00  0.00    +0.000 N 
ATOM     22  N   UNL     1      46.257   3.386  13.462  0.00  0.00    +0.000 NA
ATOM     23  C   UNL     1      45.557   3.297  12.303  0.00  0.00    +0.000 A 
ATOM     24  H   UNL     1      47.913   5.469  15.153  0.00  0.00    +0.000 HD
BRANCH  17  26
ATOM     25  C   UNL     1      45.353   4.497   8.835  0.00  0.00    +0.000 C 
ATOM     26  S   UNL     1      44.180   4.182  10.128  0.00  0.00    +0.000 S 
ATOM     27  O   UNL     1      43.176   5.228  10.088  0.00  0.00    +0.000 OA
ATOM     28  O   UNL     1      43.798   2.785  10.057  0.00  0.00    +0.000 OA
ENDBRANCH  17  26
ENDBRANCH  16  21
ENDBRANCH   1  16
TORSDOF 6
ENDMDL
MODEL 6
REMARK VINA RESULT:    -6.792      4.452      7.394
REMARK INTER + INTRA:          -9.983
REMARK INTER:                  -9.245
REMARK INTRA:                  -0.739
REMARK UNBOUND:                -0.809
REMARK  Name = 
REMARK  7 active torsions:
REMARK  status: ('A' for Active; 'I' for Inactive)
REMARK    1  A    between atoms: C_1  and  S_2
REMARK    2  A    between atoms: S_2  and  C_5
REMARK    3  A    between atoms: N_9  and  C_10
REMARK    4  A    between atoms: C_10  and  C_11
REMARK    5  A    between atoms: C_11  and  C_14
REMARK    6  A    between atoms: C_19  and  O_20
REMARK    7  A    between atoms: O_20  and  C_21
REMARK                            x       y       z     vdW  Elec       q    Type
REMARK                         _______ _______ _______ _____ _____    ______ ____
ROOT
ATOM      1  C   UNL     1      46.452   4.758  13.696  0.00  0.00    +0.000 C 
ATOM      2  F   UNL     1      47.515   3.991  13.293  0.00  0.00    +0.000 F 
ATOM      3  F   UNL     1      46.230   4.398  14.994  0.00  0.00    +0.000 F 
ENDROOT
BRANCH   1   4
ATOM      4  C   UNL     1      45.233   4.524  12.825  0.00  0.00    +0.000 A 
ATOM      5  C   UNL     1      44.115   5.372  12.898  0.00  0.00    +0.000 A 
ATOM      6  C   UNL     1      43.024   5.157  12.064  0.00  0.00    +0.000 A 
ATOM      7  F   UNL     1      41.964   5.969  12.141  0.00  0.00    +0.000 F 
ATOM      8  C   UNL     1      43.027   4.118  11.136  0.00  0.00    +0.000 A 
ATOM      9  C   UNL     1      44.140   3.279  11.042  0.00  0.00    +0.000 A 
ATOM     10  C   UNL     1      45.222   3.466  11.901  0.00  0.00    +0.000 A 
BRANCH   9  11
ATOM     11  O   UNL     1      44.081   2.292  10.090  0.00  0.00    +0.000 OA
BRANCH  11  12
ATOM     12  C   UNL     1      44.494   2.624   8.740  0.00  0.00    +0.000 C 
ATOM     13  C   UNL     1      45.940   2.236   8.338  0.00  0.00    +0.000 C 
ATOM     14  C   UNL     1      46.120   3.631   7.726  0.00  0.00    +0.000 C 
ATOM     15  C   UNL     1      44.891   4.103   8.518  0.00  0.00    +0.000 C 
ENDBRANCH  11  12
ENDBRANCH   9  11
ENDBRANCH   1   4
BRANCH   1  16
ATOM     16  C   UNL     1      46.894   6.242  13.638  0.00  0.00    +0.000 C 
BRANCH  16  21
ATOM     17  C   UNL     1      51.268   8.457  12.812  0.00  0.00    +0.000 A 
ATOM     18  C   UNL     1      50.716   8.339  11.544  0.00  0.00    +0.000 A 
ATOM     19  C   UNL     1      49.465   7.735  11.416  0.00  0.00    +0.000 A 
ATOM     20  C   UNL     1      48.794   7.281  12.552  0.00  0.00    +0.000 A 
ATOM     21  N   UNL     1      47.593   6.581  12.381  0.00  0.00    +0.000 N 
ATOM     22  N   UNL     1      49.328   7.418  13.784  0.00  0.00    +0.000 NA
ATOM     23  C   UNL     1      50.541   8.016  13.898  0.00  0.00    +0.000 A 
ATOM     24  H   UNL     1      46.982   7.044  11.712  0.00  0.00    +0.000 HD
BRANCH  17  26
ATOM     25  C   UNL     1      53.626   9.076  11.470  0.00  0.00    +0.000 C 
ATOM     26  S   UNL     1      52.848   9.192  13.060  0.00  0.00    +0.000 S 
ATOM     27  O   UNL     1      53.581   8.345  13.981  0.00  0.00    +0.000 OA
ATOM     28  O   UNL     1      52.634  10.595  13.353  0.00  0.00    +0.000 OA
ENDBRANCH  17  26
ENDBRANCH  16  21
ENDBRANCH   1  16
TORSDOF 6
ENDMDL
MODEL 7
REMARK VINA RESULT:    -6.759      4.492      7.620
REMARK INTER + INTRA:          -9.938
REMARK INTER:                  -9.339
REMARK INTRA:                  -0.599
REMARK UNBOUND:                -0.809
REMARK  Name = 
REMARK  7 active torsions:
REMARK  status: ('A' for Active; 'I' for Inactive)
REMARK    1  A    between atoms: C_1  and  S_2
REMARK    2  A    between atoms: S_2  and  C_5
REMARK    3  A    between atoms: N_9  and  C_10
REMARK    4  A    between atoms: C_10  and  C_11
REMARK    5  A    between atoms: C_11  and  C_14
REMARK    6  A    between atoms: C_19  and  O_20
REMARK    7  A    between atoms: O_20  and  C_21
REMARK                            x       y       z     vdW  Elec       q    Type
REMARK                         _______ _______ _______ _____ _____    ______ ____
ROOT
ATOM      1  C   UNL     1      45.778   5.990  12.605  0.00  0.00    +0.000 C 
ATOM      2  F   UNL     1      46.260   5.382  13.736  0.00  0.00    +0.000 F 
ATOM      3  F   UNL     1      44.803   6.836  13.047  0.00  0.00    +0.000 F 
ENDROOT
BRANCH   1   4
ATOM      4  C   UNL     1      45.244   4.977  11.611  0.00  0.00    +0.000 A 
ATOM      5  C   UNL     1      44.369   3.955  12.015  0.00  0.00    +0.000 A 
ATOM      6  C   UNL     1      43.866   3.059  11.078  0.00  0.00    +0.000 A 
ATOM      7  F   UNL     1      43.034   2.089  11.472  0.00  0.00    +0.000 F 
ATOM      8  C   UNL     1      44.203   3.170   9.731  0.00  0.00    +0.000 A 
ATOM      9  C   UNL     1      45.058   4.193   9.314  0.00  0.00    +0.000 A 
ATOM     10  C   UNL     1      45.595   5.072  10.254  0.00  0.00    +0.000 A 
BRANCH   9  11
ATOM     11  O   UNL     1      45.326   4.254   7.969  0.00  0.00    +0.000 OA
BRANCH  11  12
ATOM     12  C   UNL     1      46.540   3.621   7.488  0.00  0.00    +0.000 C 
ATOM     13  C   UNL     1      46.637   3.375   5.961  0.00  0.00    +0.000 C 
ATOM     14  C   UNL     1      47.133   1.951   6.246  0.00  0.00    +0.000 C 
ATOM     15  C   UNL     1      46.604   2.088   7.681  0.00  0.00    +0.000 C 
ENDBRANCH  11  12
ENDBRANCH   9  11
ENDBRANCH   1   4
BRANCH   1  16
ATOM     16  C   UNL     1      46.935   6.813  11.984  0.00  0.00    +0.000 C 
BRANCH  16  21
ATOM     17  C   UNL     1      51.622   8.471  12.062  0.00  0.00    +0.000 A 
ATOM     18  C   UNL     1      51.138   8.798  13.321  0.00  0.00    +0.000 A 
ATOM     19  C   UNL     1      49.816   8.476  13.631  0.00  0.00    +0.000 A 
ATOM     20  C   UNL     1      49.022   7.823  12.688  0.00  0.00    +0.000 A 
ATOM     21  N   UNL     1      47.670   7.612  12.987  0.00  0.00    +0.000 N 
ATOM     22  N   UNL     1      49.506   7.489  11.472  0.00  0.00    +0.000 NA
ATOM     23  C   UNL     1      50.795   7.799  11.185  0.00  0.00    +0.000 A 
ATOM     24  H   UNL     1      47.548   7.254  13.932  0.00  0.00    +0.000 HD
BRANCH  17  26
ATOM     25  C   UNL     1      53.089   9.611   9.990  0.00  0.00    +0.000 C 
ATOM     26  S   UNL     1      53.272   8.857  11.585  0.00  0.00    +0.000 S 
ATOM     27  O   UNL     1      53.978   7.603  11.410  0.00  0.00    +0.000 OA
ATOM     28  O   UNL     1      53.765   9.864  12.503  0.00  0.00    +0.000 OA
ENDBRANCH  17  26
ENDBRANCH  16  21
ENDBRANCH   1  16
TORSDOF 6
ENDMDL
MODEL 8
REMARK VINA RESULT:    -6.435      4.042      6.038
REMARK INTER + INTRA:          -9.501
REMARK INTER:                  -8.629
REMARK INTRA:                  -0.872
REMARK UNBOUND:                -0.809
REMARK  Name = 
REMARK  7 active torsions:
REMARK  status: ('A' for Active; 'I' for Inactive)
REMARK    1  A    between atoms: C_1  and  S_2
REMARK    2  A    between atoms: S_2  and  C_5
REMARK    3  A    between atoms: N_9  and  C_10
REMARK    4  A    between atoms: C_10  and  C_11
REMARK    5  A    between atoms: C_11  and  C_14
REMARK    6  A    between atoms: C_19  and  O_20
REMARK    7  A    between atoms: O_20  and  C_21
REMARK                            x       y       z     vdW  Elec       q    Type
REMARK                         _______ _______ _______ _____ _____    ______ ____
ROOT
ATOM      1  C   UNL     1      49.215   7.108  16.016  0.00  0.00    +0.000 C 
ATOM      2  F   UNL     1      50.463   7.669  16.110  0.00  0.00    +0.000 F 
ATOM      3  F   UNL     1      48.371   8.030  16.563  0.00  0.00    +0.000 F 
ENDROOT
BRANCH   1   4
ATOM      4  C   UNL     1      49.146   5.776  16.738  0.00  0.00    +0.000 A 
ATOM      5  C   UNL     1      47.960   5.024  16.762  0.00  0.00    +0.000 A 
ATOM      6  C   UNL     1      47.932   3.790  17.401  0.00  0.00    +0.000 A 
ATOM      7  F   UNL     1      46.798   3.081  17.419  0.00  0.00    +0.000 F 
ATOM      8  C   UNL     1      49.075   3.273  18.008  0.00  0.00    +0.000 A 
ATOM      9  C   UNL     1      50.265   4.004  17.976  0.00  0.00    +0.000 A 
ATOM     10  C   UNL     1      50.290   5.259  17.368  0.00  0.00    +0.000 A 
BRANCH   9  11
ATOM     11  O   UNL     1      51.354   3.421  18.573  0.00  0.00    +0.000 OA
BRANCH  11  12
ATOM     12  C   UNL     1      52.247   2.636  17.742  0.00  0.00    +0.000 C 
ATOM     13  C   UNL     1      51.887   1.140  17.554  0.00  0.00    +0.000 C 
ATOM     14  C   UNL     1      53.351   0.776  17.829  0.00  0.00    +0.000 C 
ATOM     15  C   UNL     1      53.553   2.175  18.432  0.00  0.00    +0.000 C 
ENDBRANCH  11  12
ENDBRANCH   9  11
ENDBRANCH   1   4
BRANCH   1  16
ATOM     16  C   UNL     1      48.889   6.936  14.511  0.00  0.00    +0.000 C 
BRANCH  16  21
ATOM     17  C   UNL     1      44.878   5.520  11.937  0.00  0.00    +0.000 A 
ATOM     18  C   UNL     1      44.707   6.890  12.082  0.00  0.00    +0.000 A 
ATOM     19  C   UNL     1      45.673   7.611  12.784  0.00  0.00    +0.000 A 
ATOM     20  C   UNL     1      46.787   6.952  13.306  0.00  0.00    +0.000 A 
ATOM     21  N   UNL     1      47.682   7.683  14.099  0.00  0.00    +0.000 N 
ATOM     22  N   UNL     1      46.957   5.623  13.144  0.00  0.00    +0.000 NA
ATOM     23  C   UNL     1      46.016   4.933  12.451  0.00  0.00    +0.000 A 
ATOM     24  H   UNL     1      47.908   8.581  13.677  0.00  0.00    +0.000 HD
BRANCH  17  26
ATOM     25  C   UNL     1      43.537   3.086  12.091  0.00  0.00    +0.000 C 
ATOM     26  S   UNL     1      43.698   4.534  11.081  0.00  0.00    +0.000 S 
ATOM     27  O   UNL     1      44.295   4.138   9.820  0.00  0.00    +0.000 OA
ATOM     28  O   UNL     1      42.434   5.245  11.111  0.00  0.00    +0.000 OA
ENDBRANCH  17  26
ENDBRANCH  16  21
ENDBRANCH   1  16
TORSDOF 6
ENDMDL
MODEL 9
REMARK VINA RESULT:    -6.388      4.078      5.817
REMARK INTER + INTRA:          -9.438
REMARK INTER:                  -8.331
REMARK INTRA:                  -1.106
REMARK UNBOUND:                -0.809
REMARK  Name = 
REMARK  7 active torsions:
REMARK  status: ('A' for Active; 'I' for Inactive)
REMARK    1  A    between atoms: C_1  and  S_2
REMARK    2  A    between atoms: S_2  and  C_5
REMARK    3  A    between atoms: N_9  and  C_10
REMARK    4  A    between atoms: C_10  and  C_11
REMARK    5  A    between atoms: C_11  and  C_14
REMARK    6  A    between atoms: C_19  and  O_20
REMARK    7  A    between atoms: O_20  and  C_21
REMARK                            x       y       z     vdW  Elec       q    Type
REMARK                         _______ _______ _______ _____ _____    ______ ____
ROOT
ATOM      1  C   UNL     1      48.979   8.427  15.282  0.00  0.00    +0.000 C 
ATOM      2  F   UNL     1      50.034   9.300  15.362  0.00  0.00    +0.000 F 
ATOM      3  F   UNL     1      47.921   9.188  14.878  0.00  0.00    +0.000 F 
ENDROOT
BRANCH   1   4
ATOM      4  C   UNL     1      48.714   7.747  16.612  0.00  0.00    +0.000 A 
ATOM      5  C   UNL     1      48.223   8.469  17.712  0.00  0.00    +0.000 A 
ATOM      6  C   UNL     1      47.956   7.816  18.909  0.00  0.00    +0.000 A 
ATOM      7  F   UNL     1      47.489   8.512  19.952  0.00  0.00    +0.000 F 
ATOM      8  C   UNL     1      48.151   6.442  19.033  0.00  0.00    +0.000 A 
ATOM      9  C   UNL     1      48.623   5.710  17.941  0.00  0.00    +0.000 A 
ATOM     10  C   UNL     1      48.927   6.365  16.748  0.00  0.00    +0.000 A 
BRANCH   9  11
ATOM     11  O   UNL     1      48.768   4.358  18.129  0.00  0.00    +0.000 OA
BRANCH  11  12
ATOM     12  C   UNL     1      49.624   3.631  17.212  0.00  0.00    +0.000 C 
ATOM     13  C   UNL     1      49.339   2.117  17.045  0.00  0.00    +0.000 C 
ATOM     14  C   UNL     1      50.843   1.843  17.179  0.00  0.00    +0.000 C 
ATOM     15  C   UNL     1      51.014   3.249  17.772  0.00  0.00    +0.000 C 
ENDBRANCH  11  12
ENDBRANCH   9  11
ENDBRANCH   1   4
BRANCH   1  16
ATOM     16  C   UNL     1      49.315   7.383  14.187  0.00  0.00    +0.000 C 
BRANCH  16  21
ATOM     17  C   UNL     1      45.344   5.098  12.255  0.00  0.00    +0.000 A 
ATOM     18  C   UNL     1      45.745   5.965  11.248  0.00  0.00    +0.000 A 
ATOM     19  C   UNL     1      46.852   6.784  11.476  0.00  0.00    +0.000 A 
ATOM     20  C   UNL     1      47.536   6.705  12.690  0.00  0.00    +0.000 A 
ATOM     21  N   UNL     1      48.572   7.615  12.930  0.00  0.00    +0.000 N 
ATOM     22  N   UNL     1      47.152   5.844  13.657  0.00  0.00    +0.000 NA
ATOM     23  C   UNL     1      46.080   5.046  13.421  0.00  0.00    +0.000 A 
ATOM     24  H   UNL     1      49.190   7.699  12.126  0.00  0.00    +0.000 HD
BRANCH  17  26
ATOM     25  C   UNL     1      42.600   5.165  11.797  0.00  0.00    +0.000 C 
ATOM     26  S   UNL     1      43.949   4.043  12.056  0.00  0.00    +0.000 S 
ATOM     27  O   UNL     1      43.733   3.365  13.320  0.00  0.00    +0.000 OA
ATOM     28  O   UNL     1      44.146   3.289  10.834  0.00  0.00    +0.000 OA
ENDBRANCH  17  26
ENDBRANCH  16  21
ENDBRANCH   1  16
TORSDOF 6
ENDMDL
