MODEL 1
REMARK VINA RESULT:    -9.142      0.000      0.000
REMARK INTER + INTRA:         -13.223
REMARK INTER:                 -12.081
REMARK INTRA:                  -1.143
REMARK UNBOUND:                -1.143
REMARK  Name = 
REMARK  9 active torsions:
REMARK  status: ('A' for Active; 'I' for Inactive)
REMARK    1  A    between atoms: C_1  and  C_2
REMARK    2  A    between atoms: C_4  and  C_5
REMARK    3  A    between atoms: C_5  and  C_6
REMARK    4  A    between atoms: C_5  and  C_7
REMARK    5  A    between atoms: C_5  and  C_8
REMARK    6  A    between atoms: C_8  and  N_9
REMARK    7  A    between atoms: C_14  and  C_15
REMARK    8  A    between atoms: C_18  and  O_19
REMARK    9  A    between atoms: C_25  and  C_26
REMARK                            x       y       z     vdW  Elec       q    Type
REMARK                         _______ _______ _______ _____ _____    ______ ____
ROOT
ATOM      1  C   UNL     1      45.230   4.540  12.102  0.00  0.00    +0.000 C 
ENDROOT
BRANCH   1   2
ATOM      2  N   UNL     1      46.017   5.721  11.690  0.00  0.00    +0.000 N 
ATOM      3  C   UNL     1      46.981   6.118  12.642  0.00  0.00    +0.000 A 
ATOM      4  C   UNL     1      47.781   7.216  12.342  0.00  0.00    +0.000 A 
ATOM      5  C   UNL     1      48.725   7.648  13.265  0.00  0.00    +0.000 A 
ATOM      6  C   UNL     1      48.842   6.973  14.474  0.00  0.00    +0.000 A 
ATOM      7  C   UNL     1      48.018   5.876  14.723  0.00  0.00    +0.000 A 
ATOM      8  N   UNL     1      47.108   5.454  13.809  0.00  0.00    +0.000 NA
ATOM      9  H   UNL     1      45.432   6.532  11.512  0.00  0.00    +0.000 HD
BRANCH   7  10
ATOM     10  C   UNL     1      48.025   5.152  16.015  0.00  0.00    +0.000 A 
ATOM     11  C   UNL     1      48.807   5.611  17.094  0.00  0.00    +0.000 A 
ATOM     12  C   UNL     1      48.906   4.889  18.289  0.00  0.00    +0.000 A 
ATOM     13  C   UNL     1      48.210   3.695  18.423  0.00  0.00    +0.000 A 
ATOM     14  C   UNL     1      47.396   3.234  17.400  0.00  0.00    +0.000 A 
ATOM     15  C   UNL     1      47.297   3.962  16.210  0.00  0.00    +0.000 A 
BRANCH  13  16
ATOM     16  O   UNL     1      48.300   2.937  19.552  0.00  0.00    +0.000 OA
ATOM     17  H   UNL     1      48.271   3.528  20.321  0.00  0.00    +0.000 HD
ENDBRANCH  13  16
ENDBRANCH   7  10
ENDBRANCH   1   2
BRANCH   1  18
ATOM     18  C   UNL     1      44.246   4.047  10.992  0.00  0.00    +0.000 C 
ATOM     19  C   UNL     1      43.240   5.170  10.658  0.00  0.00    +0.000 C 
ATOM     20  C   UNL     1      43.483   2.799  11.494  0.00  0.00    +0.000 C 
BRANCH  18  24
ATOM     21  C   UNL     1      46.303   0.553   7.952  0.00  0.00    +0.000 C 
ATOM     22  C   UNL     1      46.029   2.003   8.242  0.00  0.00    +0.000 A 
ATOM     23  C   UNL     1      45.294   2.335   9.395  0.00  0.00    +0.000 A 
ATOM     24  C   UNL     1      45.027   3.669   9.714  0.00  0.00    +0.000 A 
ATOM     25  N   UNL     1      45.468   4.670   8.916  0.00  0.00    +0.000 NA
ATOM     26  C   UNL     1      46.176   4.340   7.803  0.00  0.00    +0.000 A 
ATOM     27  C   UNL     1      46.477   3.041   7.413  0.00  0.00    +0.000 A 
BRANCH  27  28
ATOM     28  C   UNL     1      47.284   2.796   6.185  0.00  0.00    +0.000 C 
ATOM     29  N   UNL     1      48.616   2.520   6.337  0.00  0.00    +0.000 N 
ATOM     30  O   UNL     1      46.802   2.847   5.061  0.00  0.00    +0.000 OA
ATOM     31  H   UNL     1      49.127   2.644   7.199  0.00  0.00    +0.000 HD
ATOM     32  H   UNL     1      49.154   2.444   5.481  0.00  0.00    +0.000 HD
ENDBRANCH  27  28
ENDBRANCH  18  24
ENDBRANCH   1  18
TORSDOF 6
ENDMDL
MODEL 2
REMARK VINA RESULT:    -8.814      1.638      8.268
REMARK INTER + INTRA:         -12.791
REMARK INTER:                 -11.549
REMARK INTRA:                  -1.242
REMARK UNBOUND:                -1.143
REMARK  Name = 
REMARK  9 active torsions:
REMARK  status: ('A' for Active; 'I' for Inactive)
REMARK    1  A    between atoms: C_1  and  C_2
REMARK    2  A    between atoms: C_4  and  C_5
REMARK    3  A    between atoms: C_5  and  C_6
REMARK    4  A    between atoms: C_5  and  C_7
REMARK    5  A    between atoms: C_5  and  C_8
REMARK    6  A    between atoms: C_8  and  N_9
REMARK    7  A    between atoms: C_14  and  C_15
REMARK    8  A    between atoms: C_18  and  O_19
REMARK    9  A    between atoms: C_25  and  C_26
REMARK                            x       y       z     vdW  Elec       q    Type
REMARK                         _______ _______ _______ _____ _____    ______ ____
ROOT
ATOM      1  C   UNL     1      47.153   7.209  11.648  0.00  0.00    +0.000 C 
ENDROOT
BRANCH   1   2
ATOM      2  N   UNL     1      45.733   7.175  12.057  0.00  0.00    +0.000 N 
ATOM      3  C   UNL     1      44.996   6.137  11.446  0.00  0.00    +0.000 A 
ATOM      4  C   UNL     1      43.649   6.015  11.774  0.00  0.00    +0.000 A 
ATOM      5  C   UNL     1      42.887   5.019  11.176  0.00  0.00    +0.000 A 
ATOM      6  C   UNL     1      43.491   4.170  10.256  0.00  0.00    +0.000 A 
ATOM      7  C   UNL     1      44.845   4.334   9.966  0.00  0.00    +0.000 A 
ATOM      8  N   UNL     1      45.583   5.303  10.566  0.00  0.00    +0.000 NA
ATOM      9  H   UNL     1      45.250   8.042  11.843  0.00  0.00    +0.000 HD
BRANCH   7  10
ATOM     10  C   UNL     1      45.543   3.526   8.941  0.00  0.00    +0.000 A 
ATOM     11  C   UNL     1      45.530   2.117   9.001  0.00  0.00    +0.000 A 
ATOM     12  C   UNL     1      46.266   1.336   8.103  0.00  0.00    +0.000 A 
ATOM     13  C   UNL     1      47.020   1.959   7.118  0.00  0.00    +0.000 A 
ATOM     14  C   UNL     1      47.023   3.341   7.000  0.00  0.00    +0.000 A 
ATOM     15  C   UNL     1      46.282   4.116   7.898  0.00  0.00    +0.000 A 
BRANCH  13  16
ATOM     16  O   UNL     1      47.780   1.246   6.241  0.00  0.00    +0.000 OA
ATOM     17  H   UNL     1      48.668   1.636   6.217  0.00  0.00    +0.000 HD
ENDBRANCH  13  16
ENDBRANCH   7  10
ENDBRANCH   1   2
BRANCH   1  18
ATOM     18  C   UNL     1      48.122   7.507  12.840  0.00  0.00    +0.000 C 
ATOM     19  C   UNL     1      47.788   8.888  13.443  0.00  0.00    +0.000 C 
ATOM     20  C   UNL     1      49.582   7.501  12.333  0.00  0.00    +0.000 C 
BRANCH  18  24
ATOM     21  C   UNL     1      48.887   5.897  17.584  0.00  0.00    +0.000 C 
ATOM     22  C   UNL     1      48.337   5.631  16.210  0.00  0.00    +0.000 A 
ATOM     23  C   UNL     1      48.455   6.634  15.228  0.00  0.00    +0.000 A 
ATOM     24  C   UNL     1      47.972   6.426  13.934  0.00  0.00    +0.000 A 
ATOM     25  N   UNL     1      47.377   5.257  13.598  0.00  0.00    +0.000 NA
ATOM     26  C   UNL     1      47.265   4.297  14.553  0.00  0.00    +0.000 A 
ATOM     27  C   UNL     1      47.712   4.426  15.862  0.00  0.00    +0.000 A 
BRANCH  27  28
ATOM     28  C   UNL     1      47.560   3.295  16.820  0.00  0.00    +0.000 C 
ATOM     29  N   UNL     1      48.626   2.454  16.994  0.00  0.00    +0.000 N 
ATOM     30  O   UNL     1      46.524   3.091  17.438  0.00  0.00    +0.000 OA
ATOM     31  H   UNL     1      49.438   2.435  16.394  0.00  0.00    +0.000 HD
ATOM     32  H   UNL     1      48.463   1.647  17.585  0.00  0.00    +0.000 HD
ENDBRANCH  27  28
ENDBRANCH  18  24
ENDBRANCH   1  18
TORSDOF 6
ENDMDL
MODEL 3
REMARK VINA RESULT:    -7.405      3.576      5.445
REMARK INTER + INTRA:         -10.928
REMARK INTER:                  -9.567
REMARK INTRA:                  -1.362
REMARK UNBOUND:                -1.143
REMARK  Name = 
REMARK  9 active torsions:
REMARK  status: ('A' for Active; 'I' for Inactive)
REMARK    1  A    between atoms: C_1  and  C_2
REMARK    2  A    between atoms: C_4  and  C_5
REMARK    3  A    between atoms: C_5  and  C_6
REMARK    4  A    between atoms: C_5  and  C_7
REMARK    5  A    between atoms: C_5  and  C_8
REMARK    6  A    between atoms: C_8  and  N_9
REMARK    7  A    between atoms: C_14  and  C_15
REMARK    8  A    between atoms: C_18  and  O_19
REMARK    9  A    between atoms: C_25  and  C_26
REMARK                            x       y       z     vdW  Elec       q    Type
REMARK                         _______ _______ _______ _____ _____    ______ ____
ROOT
ATOM      1  C   UNL     1      49.879   7.870  14.136  0.00  0.00    +0.000 C 
ENDROOT
BRANCH   1   2
ATOM      2  N   UNL     1      49.133   8.552  15.214  0.00  0.00    +0.000 N 
ATOM      3  C   UNL     1      49.055   7.801  16.408  0.00  0.00    +0.000 A 
ATOM      4  C   UNL     1      48.380   8.362  17.488  0.00  0.00    +0.000 A 
ATOM      5  C   UNL     1      48.264   7.643  18.670  0.00  0.00    +0.000 A 
ATOM      6  C   UNL     1      48.822   6.372  18.743  0.00  0.00    +0.000 A 
ATOM      7  C   UNL     1      49.490   5.859  17.633  0.00  0.00    +0.000 A 
ATOM      8  N   UNL     1      49.609   6.575  16.486  0.00  0.00    +0.000 NA
ATOM      9  H   UNL     1      48.179   8.772  14.944  0.00  0.00    +0.000 HD
BRANCH   7  10
ATOM     10  C   UNL     1      50.042   4.485  17.601  0.00  0.00    +0.000 A 
ATOM     11  C   UNL     1      51.383   4.238  17.960  0.00  0.00    +0.000 A 
ATOM     12  C   UNL     1      51.953   2.966  17.841  0.00  0.00    +0.000 A 
ATOM     13  C   UNL     1      51.179   1.913  17.369  0.00  0.00    +0.000 A 
ATOM     14  C   UNL     1      49.844   2.108  17.048  0.00  0.00    +0.000 A 
ATOM     15  C   UNL     1      49.279   3.381  17.173  0.00  0.00    +0.000 A 
BRANCH  13  16
ATOM     16  O   UNL     1      51.695   0.664  17.202  0.00  0.00    +0.000 OA
ATOM     17  H   UNL     1      52.591   0.650  17.575  0.00  0.00    +0.000 HD
ENDBRANCH  13  16
ENDBRANCH   7  10
ENDBRANCH   1   2
BRANCH   1  18
ATOM     18  C   UNL     1      49.129   7.902  12.763  0.00  0.00    +0.000 C 
ATOM     19  C   UNL     1      50.130   7.618  11.623  0.00  0.00    +0.000 C 
ATOM     20  C   UNL     1      48.487   9.294  12.558  0.00  0.00    +0.000 C 
BRANCH  18  24
ATOM     21  C   UNL     1      45.029   5.857  10.598  0.00  0.00    +0.000 C 
ATOM     22  C   UNL     1      46.036   5.839  11.714  0.00  0.00    +0.000 A 
ATOM     23  C   UNL     1      47.064   6.802  11.714  0.00  0.00    +0.000 A 
ATOM     24  C   UNL     1      48.014   6.833  12.738  0.00  0.00    +0.000 A 
ATOM     25  N   UNL     1      47.967   5.935  13.750  0.00  0.00    +0.000 NA
ATOM     26  C   UNL     1      46.973   5.009  13.741  0.00  0.00    +0.000 A 
ATOM     27  C   UNL     1      45.996   4.905  12.759  0.00  0.00    +0.000 A 
BRANCH  27  28
ATOM     28  C   UNL     1      44.936   3.864  12.864  0.00  0.00    +0.000 C 
ATOM     29  N   UNL     1      45.208   2.620  12.363  0.00  0.00    +0.000 N 
ATOM     30  O   UNL     1      43.842   4.087  13.366  0.00  0.00    +0.000 OA
ATOM     31  H   UNL     1      45.998   2.406  11.771  0.00  0.00    +0.000 HD
ATOM     32  H   UNL     1      44.438   1.960  12.371  0.00  0.00    +0.000 HD
ENDBRANCH  27  28
ENDBRANCH  18  24
ENDBRANCH   1  18
TORSDOF 6
ENDMDL
MODEL 4
REMARK VINA RESULT:    -7.362      3.296      3.962
REMARK INTER + INTRA:         -10.871
REMARK INTER:                  -9.798
REMARK INTRA:                  -1.073
REMARK UNBOUND:                -1.143
REMARK  Name = 
REMARK  9 active torsions:
REMARK  status: ('A' for Active; 'I' for Inactive)
REMARK    1  A    between atoms: C_1  and  C_2
REMARK    2  A    between atoms: C_4  and  C_5
REMARK    3  A    between atoms: C_5  and  C_6
REMARK    4  A    between atoms: C_5  and  C_7
REMARK    5  A    between atoms: C_5  and  C_8
REMARK    6  A    between atoms: C_8  and  N_9
REMARK    7  A    between atoms: C_14  and  C_15
REMARK    8  A    between atoms: C_18  and  O_19
REMARK    9  A    between atoms: C_25  and  C_26
REMARK                            x       y       z     vdW  Elec       q    Type
REMARK                         _______ _______ _______ _____ _____    ______ ____
ROOT
ATOM      1  C   UNL     1      45.253   5.575  11.644  0.00  0.00    +0.000 C 
ENDROOT
BRANCH   1   2
ATOM      2  N   UNL     1      44.501   6.835  11.475  0.00  0.00    +0.000 N 
ATOM      3  C   UNL     1      45.293   7.992  11.646  0.00  0.00    +0.000 A 
ATOM      4  C   UNL     1      44.678   9.231  11.498  0.00  0.00    +0.000 A 
ATOM      5  C   UNL     1      45.422  10.390  11.681  0.00  0.00    +0.000 A 
ATOM      6  C   UNL     1      46.766  10.282  12.016  0.00  0.00    +0.000 A 
ATOM      7  C   UNL     1      47.334   9.015  12.149  0.00  0.00    +0.000 A 
ATOM      8  N   UNL     1      46.601   7.889  11.955  0.00  0.00    +0.000 NA
ATOM      9  H   UNL     1      43.727   6.913  12.127  0.00  0.00    +0.000 HD
BRANCH   7  10
ATOM     10  C   UNL     1      48.735   8.813  12.581  0.00  0.00    +0.000 A 
ATOM     11  C   UNL     1      49.075   8.805  13.949  0.00  0.00    +0.000 A 
ATOM     12  C   UNL     1      50.404   8.716  14.376  0.00  0.00    +0.000 A 
ATOM     13  C   UNL     1      51.418   8.621  13.432  0.00  0.00    +0.000 A 
ATOM     14  C   UNL     1      51.120   8.581  12.078  0.00  0.00    +0.000 A 
ATOM     15  C   UNL     1      49.789   8.666  11.658  0.00  0.00    +0.000 A 
BRANCH  13  16
ATOM     16  O   UNL     1      52.730   8.567  13.794  0.00  0.00    +0.000 OA
ATOM     17  H   UNL     1      53.133   7.792  13.372  0.00  0.00    +0.000 HD
ENDBRANCH  13  16
ENDBRANCH   7  10
ENDBRANCH   1   2
BRANCH   1  18
ATOM     18  C   UNL     1      44.515   4.339  11.030  0.00  0.00    +0.000 C 
ATOM     19  C   UNL     1      43.054   4.719  10.710  0.00  0.00    +0.000 C 
ATOM     20  C   UNL     1      44.540   3.169  12.039  0.00  0.00    +0.000 C 
BRANCH  18  24
ATOM     21  C   UNL     1      46.242   0.664   7.997  0.00  0.00    +0.000 C 
ATOM     22  C   UNL     1      46.062   2.133   8.261  0.00  0.00    +0.000 A 
ATOM     23  C   UNL     1      45.396   2.533   9.436  0.00  0.00    +0.000 A 
ATOM     24  C   UNL     1      45.219   3.888   9.730  0.00  0.00    +0.000 A 
ATOM     25  N   UNL     1      45.679   4.843   8.889  0.00  0.00    +0.000 NA
ATOM     26  C   UNL     1      46.319   4.447   7.757  0.00  0.00    +0.000 A 
ATOM     27  C   UNL     1      46.530   3.125   7.388  0.00  0.00    +0.000 A 
BRANCH  27  28
ATOM     28  C   UNL     1      47.268   2.806   6.133  0.00  0.00    +0.000 C 
ATOM     29  N   UNL     1      48.617   2.592   6.220  0.00  0.00    +0.000 N 
ATOM     30  O   UNL     1      46.715   2.743   5.044  0.00  0.00    +0.000 OA
ATOM     31  H   UNL     1      49.176   2.808   7.033  0.00  0.00    +0.000 HD
ATOM     32  H   UNL     1      49.104   2.464   5.340  0.00  0.00    +0.000 HD
ENDBRANCH  27  28
ENDBRANCH  18  24
ENDBRANCH   1  18
TORSDOF 6
ENDMDL
MODEL 5
REMARK VINA RESULT:    -7.243      3.515      8.636
REMARK INTER + INTRA:         -10.715
REMARK INTER:                  -9.758
REMARK INTRA:                  -0.957
REMARK UNBOUND:                -1.143
REMARK  Name = 
REMARK  9 active torsions:
REMARK  status: ('A' for Active; 'I' for Inactive)
REMARK    1  A    between atoms: C_1  and  C_2
REMARK    2  A    between atoms: C_4  and  C_5
REMARK    3  A    between atoms: C_5  and  C_6
REMARK    4  A    between atoms: C_5  and  C_7
REMARK    5  A    between atoms: C_5  and  C_8
REMARK    6  A    between atoms: C_8  and  N_9
REMARK    7  A    between atoms: C_14  and  C_15
REMARK    8  A    between atoms: C_18  and  O_19
REMARK    9  A    between atoms: C_25  and  C_26
REMARK                            x       y       z     vdW  Elec       q    Type
REMARK                         _______ _______ _______ _____ _____    ______ ____
ROOT
ATOM      1  C   UNL     1      48.630   5.899  16.244  0.00  0.00    +0.000 C 
ENDROOT
BRANCH   1   2
ATOM      2  N   UNL     1      49.426   6.773  15.356  0.00  0.00    +0.000 N 
ATOM      3  C   UNL     1      48.851   6.953  14.079  0.00  0.00    +0.000 A 
ATOM      4  C   UNL     1      49.520   7.768  13.171  0.00  0.00    +0.000 A 
ATOM      5  C   UNL     1      48.995   7.950  11.899  0.00  0.00    +0.000 A 
ATOM      6  C   UNL     1      47.812   7.305  11.559  0.00  0.00    +0.000 A 
ATOM      7  C   UNL     1      47.180   6.502  12.508  0.00  0.00    +0.000 A 
ATOM      8  N   UNL     1      47.695   6.341  13.753  0.00  0.00    +0.000 NA
ATOM      9  H   UNL     1      50.365   6.417  15.206  0.00  0.00    +0.000 HD
BRANCH   7  10
ATOM     10  C   UNL     1      45.962   5.718  12.202  0.00  0.00    +0.000 A 
ATOM     11  C   UNL     1      45.221   5.104  13.232  0.00  0.00    +0.000 A 
ATOM     12  C   UNL     1      44.127   4.277  12.958  0.00  0.00    +0.000 A 
ATOM     13  C   UNL     1      43.748   4.061  11.640  0.00  0.00    +0.000 A 
ATOM     14  C   UNL     1      44.425   4.684  10.601  0.00  0.00    +0.000 A 
ATOM     15  C   UNL     1      45.515   5.513  10.882  0.00  0.00    +0.000 A 
BRANCH  13  16
ATOM     16  O   UNL     1      42.712   3.238  11.318  0.00  0.00    +0.000 OA
ATOM     17  H   UNL     1      42.306   3.562  10.499  0.00  0.00    +0.000 HD
ENDBRANCH  13  16
ENDBRANCH   7  10
ENDBRANCH   1   2
BRANCH   1  18
ATOM     18  C   UNL     1      49.272   5.724  17.660  0.00  0.00    +0.000 C 
ATOM     19  C   UNL     1      48.157   5.622  18.722  0.00  0.00    +0.000 C 
ATOM     20  C   UNL     1      50.177   6.938  17.970  0.00  0.00    +0.000 C 
BRANCH  18  24
ATOM     21  C   UNL     1      53.442   3.255  19.144  0.00  0.00    +0.000 C 
ATOM     22  C   UNL     1      52.135   3.238  18.401  0.00  0.00    +0.000 A 
ATOM     23  C   UNL     1      51.347   4.405  18.391  0.00  0.00    +0.000 A 
ATOM     24  C   UNL     1      50.132   4.441  17.702  0.00  0.00    +0.000 A 
ATOM     25  N   UNL     1      49.685   3.352  17.033  0.00  0.00    +0.000 NA
ATOM     26  C   UNL     1      50.452   2.229  17.050  0.00  0.00    +0.000 A 
ATOM     27  C   UNL     1      51.666   2.109  17.714  0.00  0.00    +0.000 A 
BRANCH  27  28
ATOM     28  C   UNL     1      52.436   0.836  17.644  0.00  0.00    +0.000 C 
ATOM     29  N   UNL     1      52.033  -0.202  18.441  0.00  0.00    +0.000 N 
ATOM     30  O   UNL     1      53.409   0.695  16.916  0.00  0.00    +0.000 OA
ATOM     31  H   UNL     1      51.370  -0.113  19.197  0.00  0.00    +0.000 HD
ATOM     32  H   UNL     1      52.627  -1.023  18.435  0.00  0.00    +0.000 HD
ENDBRANCH  27  28
ENDBRANCH  18  24
ENDBRANCH   1  18
TORSDOF 6
ENDMDL
MODEL 6
REMARK VINA RESULT:    -7.057      3.802      7.942
REMARK INTER + INTRA:         -10.468
REMARK INTER:                  -8.848
REMARK INTRA:                  -1.620
REMARK UNBOUND:                -1.143
REMARK  Name = 
REMARK  9 active torsions:
REMARK  status: ('A' for Active; 'I' for Inactive)
REMARK    1  A    between atoms: C_1  and  C_2
REMARK    2  A    between atoms: C_4  and  C_5
REMARK    3  A    between atoms: C_5  and  C_6
REMARK    4  A    between atoms: C_5  and  C_7
REMARK    5  A    between atoms: C_5  and  C_8
REMARK    6  A    between atoms: C_8  and  N_9
REMARK    7  A    between atoms: C_14  and  C_15
REMARK    8  A    between atoms: C_18  and  O_19
REMARK    9  A    between atoms: C_25  and  C_26
REMARK                            x       y       z     vdW  Elec       q    Type
REMARK                         _______ _______ _______ _____ _____    ______ ____
ROOT
ATOM      1  C   UNL     1      48.183   8.612  16.739  0.00  0.00    +0.000 C 
ENDROOT
BRANCH   1   2
ATOM      2  N   UNL     1      49.054   9.280  15.750  0.00  0.00    +0.000 N 
ATOM      3  C   UNL     1      48.942   8.745  14.447  0.00  0.00    +0.000 A 
ATOM      4  C   UNL     1      49.716   9.313  13.440  0.00  0.00    +0.000 A 
ATOM      5  C   UNL     1      49.648   8.798  12.152  0.00  0.00    +0.000 A 
ATOM      6  C   UNL     1      48.809   7.718  11.902  0.00  0.00    +0.000 A 
ATOM      7  C   UNL     1      48.053   7.189  12.947  0.00  0.00    +0.000 A 
ATOM      8  N   UNL     1      48.117   7.708  14.199  0.00  0.00    +0.000 NA
ATOM      9  H   UNL     1      50.036   9.228  16.003  0.00  0.00    +0.000 HD
BRANCH   7  10
ATOM     10  C   UNL     1      47.197   5.992  12.783  0.00  0.00    +0.000 A 
ATOM     11  C   UNL     1      46.234   5.928  11.756  0.00  0.00    +0.000 A 
ATOM     12  C   UNL     1      45.348   4.851  11.644  0.00  0.00    +0.000 A 
ATOM     13  C   UNL     1      45.423   3.810  12.559  0.00  0.00    +0.000 A 
ATOM     14  C   UNL     1      46.386   3.815  13.557  0.00  0.00    +0.000 A 
ATOM     15  C   UNL     1      47.272   4.892  13.660  0.00  0.00    +0.000 A 
BRANCH  13  16
ATOM     16  O   UNL     1      44.562   2.755  12.515  0.00  0.00    +0.000 OA
ATOM     17  H   UNL     1      45.007   1.980  12.891  0.00  0.00    +0.000 HD
ENDBRANCH  13  16
ENDBRANCH   7  10
ENDBRANCH   1   2
BRANCH   1  18
ATOM     18  C   UNL     1      48.983   7.985  17.928  0.00  0.00    +0.000 C 
ATOM     19  C   UNL     1      48.174   8.145  19.234  0.00  0.00    +0.000 C 
ATOM     20  C   UNL     1      50.345   8.701  18.070  0.00  0.00    +0.000 C 
BRANCH  18  24
ATOM     21  C   UNL     1      47.253   3.260  17.319  0.00  0.00    +0.000 C 
ATOM     22  C   UNL     1      48.424   4.202  17.380  0.00  0.00    +0.000 A 
ATOM     23  C   UNL     1      48.179   5.572  17.591  0.00  0.00    +0.000 A 
ATOM     24  C   UNL     1      49.237   6.483  17.669  0.00  0.00    +0.000 A 
ATOM     25  N   UNL     1      50.518   6.065  17.540  0.00  0.00    +0.000 NA
ATOM     26  C   UNL     1      50.744   4.741  17.334  0.00  0.00    +0.000 A 
ATOM     27  C   UNL     1      49.751   3.774  17.238  0.00  0.00    +0.000 A 
BRANCH  27  28
ATOM     28  C   UNL     1      50.116   2.344  17.036  0.00  0.00    +0.000 C 
ATOM     29  N   UNL     1      50.886   1.738  17.993  0.00  0.00    +0.000 N 
ATOM     30  O   UNL     1      49.765   1.708  16.052  0.00  0.00    +0.000 OA
ATOM     31  H   UNL     1      51.371   2.231  18.728  0.00  0.00    +0.000 HD
ATOM     32  H   UNL     1      51.189   0.793  17.786  0.00  0.00    +0.000 HD
ENDBRANCH  27  28
ENDBRANCH  18  24
ENDBRANCH   1  18
TORSDOF 6
ENDMDL
MODEL 7
REMARK VINA RESULT:    -6.978      3.621      5.489
REMARK INTER + INTRA:         -10.364
REMARK INTER:                  -9.420
REMARK INTRA:                  -0.944
REMARK UNBOUND:                -1.143
REMARK  Name = 
REMARK  9 active torsions:
REMARK  status: ('A' for Active; 'I' for Inactive)
REMARK    1  A    between atoms: C_1  and  C_2
REMARK    2  A    between atoms: C_4  and  C_5
REMARK    3  A    between atoms: C_5  and  C_6
REMARK    4  A    between atoms: C_5  and  C_7
REMARK    5  A    between atoms: C_5  and  C_8
REMARK    6  A    between atoms: C_8  and  N_9
REMARK    7  A    between atoms: C_14  and  C_15
REMARK    8  A    between atoms: C_18  and  O_19
REMARK    9  A    between atoms: C_25  and  C_26
REMARK                            x       y       z     vdW  Elec       q    Type
REMARK                         _______ _______ _______ _____ _____    ______ ____
ROOT
ATOM      1  C   UNL     1      48.638   6.647  14.727  0.00  0.00    +0.000 C 
ENDROOT
BRANCH   1   2
ATOM      2  N   UNL     1      48.304   7.325  15.996  0.00  0.00    +0.000 N 
ATOM      3  C   UNL     1      48.893   6.722  17.130  0.00  0.00    +0.000 A 
ATOM      4  C   UNL     1      48.646   7.293  18.375  0.00  0.00    +0.000 A 
ATOM      5  C   UNL     1      49.190   6.712  19.513  0.00  0.00    +0.000 A 
ATOM      6  C   UNL     1      49.965   5.567  19.380  0.00  0.00    +0.000 A 
ATOM      7  C   UNL     1      50.184   5.037  18.109  0.00  0.00    +0.000 A 
ATOM      8  N   UNL     1      49.658   5.619  17.001  0.00  0.00    +0.000 NA
ATOM      9  H   UNL     1      47.304   7.354  16.167  0.00  0.00    +0.000 HD
BRANCH   7  10
ATOM     10  C   UNL     1      50.929   3.777  17.889  0.00  0.00    +0.000 A 
ATOM     11  C   UNL     1      50.286   2.643  17.354  0.00  0.00    +0.000 A 
ATOM     12  C   UNL     1      50.944   1.414  17.231  0.00  0.00    +0.000 A 
ATOM     13  C   UNL     1      52.268   1.307  17.636  0.00  0.00    +0.000 A 
ATOM     14  C   UNL     1      52.947   2.412  18.127  0.00  0.00    +0.000 A 
ATOM     15  C   UNL     1      52.285   3.638  18.243  0.00  0.00    +0.000 A 
BRANCH  13  16
ATOM     16  O   UNL     1      52.943   0.125  17.570  0.00  0.00    +0.000 OA
ATOM     17  H   UNL     1      53.473   0.120  16.758  0.00  0.00    +0.000 HD
ENDBRANCH  13  16
ENDBRANCH   7  10
ENDBRANCH   1   2
BRANCH   1  18
ATOM     18  C   UNL     1      48.180   7.454  13.467  0.00  0.00    +0.000 C 
ATOM     19  C   UNL     1      49.312   7.459  12.418  0.00  0.00    +0.000 C 
ATOM     20  C   UNL     1      47.845   8.907  13.878  0.00  0.00    +0.000 C 
BRANCH  18  24
ATOM     21  C   UNL     1      45.357   3.368  12.458  0.00  0.00    +0.000 C 
ATOM     22  C   UNL     1      45.550   4.856  12.349  0.00  0.00    +0.000 A 
ATOM     23  C   UNL     1      46.690   5.435  12.938  0.00  0.00    +0.000 A 
ATOM     24  C   UNL     1      46.918   6.811  12.850  0.00  0.00    +0.000 A 
ATOM     25  N   UNL     1      46.045   7.615  12.200  0.00  0.00    +0.000 NA
ATOM     26  C   UNL     1      44.946   7.047  11.636  0.00  0.00    +0.000 A 
ATOM     27  C   UNL     1      44.643   5.693  11.683  0.00  0.00    +0.000 A 
BRANCH  27  28
ATOM     28  C   UNL     1      43.421   5.174  11.007  0.00  0.00    +0.000 C 
ATOM     29  N   UNL     1      42.245   5.189  11.708  0.00  0.00    +0.000 N 
ATOM     30  O   UNL     1      43.438   4.732   9.866  0.00  0.00    +0.000 OA
ATOM     31  H   UNL     1      42.178   5.355  12.702  0.00  0.00    +0.000 HD
ATOM     32  H   UNL     1      41.452   4.751  11.254  0.00  0.00    +0.000 HD
ENDBRANCH  27  28
ENDBRANCH  18  24
ENDBRANCH   1  18
TORSDOF 6
ENDMDL
MODEL 8
REMARK VINA RESULT:    -6.830      2.577      9.171
REMARK INTER + INTRA:         -10.168
REMARK INTER:                  -9.196
REMARK INTRA:                  -0.972
REMARK UNBOUND:                -1.143
REMARK  Name = 
REMARK  9 active torsions:
REMARK  status: ('A' for Active; 'I' for Inactive)
REMARK    1  A    between atoms: C_1  and  C_2
REMARK    2  A    between atoms: C_4  and  C_5
REMARK    3  A    between atoms: C_5  and  C_6
REMARK    4  A    between atoms: C_5  and  C_7
REMARK    5  A    between atoms: C_5  and  C_8
REMARK    6  A    between atoms: C_8  and  N_9
REMARK    7  A    between atoms: C_14  and  C_15
REMARK    8  A    between atoms: C_18  and  O_19
REMARK    9  A    between atoms: C_25  and  C_26
REMARK                            x       y       z     vdW  Elec       q    Type
REMARK                         _______ _______ _______ _____ _____    ______ ____
ROOT
ATOM      1  C   UNL     1      47.133   5.629  12.973  0.00  0.00    +0.000 C 
ENDROOT
BRANCH   1   2
ATOM      2  N   UNL     1      45.762   5.261  13.384  0.00  0.00    +0.000 N 
ATOM      3  C   UNL     1      45.078   4.478  12.429  0.00  0.00    +0.000 A 
ATOM      4  C   UNL     1      43.781   4.071  12.728  0.00  0.00    +0.000 A 
ATOM      5  C   UNL     1      43.069   3.319  11.802  0.00  0.00    +0.000 A 
ATOM      6  C   UNL     1      43.671   2.995  10.592  0.00  0.00    +0.000 A 
ATOM      7  C   UNL     1      44.974   3.425  10.345  0.00  0.00    +0.000 A 
ATOM      8  N   UNL     1      45.666   4.150  11.261  0.00  0.00    +0.000 NA
ATOM      9  H   UNL     1      45.182   6.074  13.565  0.00  0.00    +0.000 HD
BRANCH   7  10
ATOM     10  C   UNL     1      45.657   3.192   9.052  0.00  0.00    +0.000 A 
ATOM     11  C   UNL     1      45.999   1.887   8.642  0.00  0.00    +0.000 A 
ATOM     12  C   UNL     1      46.733   1.653   7.474  0.00  0.00    +0.000 A 
ATOM     13  C   UNL     1      47.127   2.728   6.689  0.00  0.00    +0.000 A 
ATOM     14  C   UNL     1      46.772   4.023   7.037  0.00  0.00    +0.000 A 
ATOM     15  C   UNL     1      46.035   4.250   8.203  0.00  0.00    +0.000 A 
BRANCH  13  16
ATOM     16  O   UNL     1      47.872   2.556   5.562  0.00  0.00    +0.000 OA
ATOM     17  H   UNL     1      47.370   2.001   4.945  0.00  0.00    +0.000 HD
ENDBRANCH  13  16
ENDBRANCH   7  10
ENDBRANCH   1   2
BRANCH   1  18
ATOM     18  C   UNL     1      47.390   7.171  13.023  0.00  0.00    +0.000 C 
ATOM     19  C   UNL     1      46.039   7.919  13.010  0.00  0.00    +0.000 C 
ATOM     20  C   UNL     1      48.230   7.595  11.796  0.00  0.00    +0.000 C 
BRANCH  18  24
ATOM     21  C   UNL     1      48.737  10.570  16.532  0.00  0.00    +0.000 C 
ATOM     22  C   UNL     1      48.829   9.166  16.001  0.00  0.00    +0.000 A 
ATOM     23  C   UNL     1      48.099   8.831  14.845  0.00  0.00    +0.000 A 
ATOM     24  C   UNL     1      48.164   7.543  14.307  0.00  0.00    +0.000 A 
ATOM     25  N   UNL     1      48.929   6.590  14.889  0.00  0.00    +0.000 NA
ATOM     26  C   UNL     1      49.630   6.922  16.006  0.00  0.00    +0.000 A 
ATOM     27  C   UNL     1      49.614   8.175  16.606  0.00  0.00    +0.000 A 
BRANCH  27  28
ATOM     28  C   UNL     1      50.443   8.435  17.817  0.00  0.00    +0.000 C 
ATOM     29  N   UNL     1      49.887   8.180  19.041  0.00  0.00    +0.000 N 
ATOM     30  O   UNL     1      51.582   8.875  17.751  0.00  0.00    +0.000 OA
ATOM     31  H   UNL     1      48.905   8.000  19.193  0.00  0.00    +0.000 HD
ATOM     32  H   UNL     1      50.442   8.448  19.846  0.00  0.00    +0.000 HD
ENDBRANCH  27  28
ENDBRANCH  18  24
ENDBRANCH   1  18
TORSDOF 6
ENDMDL
MODEL 9
REMARK VINA RESULT:    -6.750      3.181      7.854
REMARK INTER + INTRA:         -10.063
REMARK INTER:                  -8.836
REMARK INTRA:                  -1.227
REMARK UNBOUND:                -1.143
REMARK  Name = 
REMARK  9 active torsions:
REMARK  status: ('A' for Active; 'I' for Inactive)
REMARK    1  A    between atoms: C_1  and  C_2
REMARK    2  A    between atoms: C_4  and  C_5
REMARK    3  A    between atoms: C_5  and  C_6
REMARK    4  A    between atoms: C_5  and  C_7
REMARK    5  A    between atoms: C_5  and  C_8
REMARK    6  A    between atoms: C_8  and  N_9
REMARK    7  A    between atoms: C_14  and  C_15
REMARK    8  A    between atoms: C_18  and  O_19
REMARK    9  A    between atoms: C_25  and  C_26
REMARK                            x       y       z     vdW  Elec       q    Type
REMARK                         _______ _______ _______ _____ _____    ______ ____
ROOT
ATOM      1  C   UNL     1      48.828   8.036  13.240  0.00  0.00    +0.000 C 
ENDROOT
BRANCH   1   2
ATOM      2  N   UNL     1      48.118   9.237  12.755  0.00  0.00    +0.000 N 
ATOM      3  C   UNL     1      46.805   8.974  12.306  0.00  0.00    +0.000 A 
ATOM      4  C   UNL     1      46.049  10.044  11.838  0.00  0.00    +0.000 A 
ATOM      5  C   UNL     1      44.762   9.818  11.367  0.00  0.00    +0.000 A 
ATOM      6  C   UNL     1      44.262   8.522  11.370  0.00  0.00    +0.000 A 
ATOM      7  C   UNL     1      45.060   7.486  11.853  0.00  0.00    +0.000 A 
ATOM      8  N   UNL     1      46.312   7.719  12.322  0.00  0.00    +0.000 NA
ATOM      9  H   UNL     1      48.604   9.689  11.987  0.00  0.00    +0.000 HD
BRANCH   7  10
ATOM     10  C   UNL     1      44.634   6.069  11.816  0.00  0.00    +0.000 A 
ATOM     11  C   UNL     1      44.816   5.291  10.655  0.00  0.00    +0.000 A 
ATOM     12  C   UNL     1      44.330   3.982  10.564  0.00  0.00    +0.000 A 
ATOM     13  C   UNL     1      43.661   3.426  11.646  0.00  0.00    +0.000 A 
ATOM     14  C   UNL     1      43.501   4.145  12.821  0.00  0.00    +0.000 A 
ATOM     15  C   UNL     1      43.992   5.451  12.908  0.00  0.00    +0.000 A 
BRANCH  13  16
ATOM     16  O   UNL     1      43.139   2.169  11.596  0.00  0.00    +0.000 OA
ATOM     17  H   UNL     1      43.063   1.832  12.502  0.00  0.00    +0.000 HD
ENDBRANCH  13  16
ENDBRANCH   7  10
ENDBRANCH   1   2
BRANCH   1  18
ATOM     18  C   UNL     1      49.161   8.101  14.767  0.00  0.00    +0.000 C 
ATOM     19  C   UNL     1      48.283   9.177  15.441  0.00  0.00    +0.000 C 
ATOM     20  C   UNL     1      50.654   8.454  14.956  0.00  0.00    +0.000 C 
BRANCH  18  24
ATOM     21  C   UNL     1      50.084   4.710  18.419  0.00  0.00    +0.000 C 
ATOM     22  C   UNL     1      49.323   5.087  17.178  0.00  0.00    +0.000 A 
ATOM     23  C   UNL     1      49.561   6.346  16.595  0.00  0.00    +0.000 A 
ATOM     24  C   UNL     1      48.888   6.733  15.433  0.00  0.00    +0.000 A 
ATOM     25  N   UNL     1      47.990   5.907  14.847  0.00  0.00    +0.000 NA
ATOM     26  C   UNL     1      47.766   4.694  15.419  0.00  0.00    +0.000 A 
ATOM     27  C   UNL     1      48.386   4.236  16.574  0.00  0.00    +0.000 A 
BRANCH  27  28
ATOM     28  C   UNL     1      48.082   2.876  17.099  0.00  0.00    +0.000 C 
ATOM     29  N   UNL     1      47.051   2.748  17.990  0.00  0.00    +0.000 N 
ATOM     30  O   UNL     1      48.724   1.886  16.773  0.00  0.00    +0.000 OA
ATOM     31  H   UNL     1      46.600   3.525  18.452  0.00  0.00    +0.000 HD
ATOM     32  H   UNL     1      46.924   1.827  18.394  0.00  0.00    +0.000 HD
ENDBRANCH  27  28
ENDBRANCH  18  24
ENDBRANCH   1  18
TORSDOF 6
ENDMDL
