MODEL 1
REMARK VINA RESULT:    -8.031      0.000      0.000
REMARK INTER + INTRA:         -11.983
REMARK INTER:                 -10.848
REMARK INTRA:                  -1.135
REMARK UNBOUND:                -1.135
REMARK  Name = 
REMARK  6 active torsions:
REMARK  status: ('A' for Active; 'I' for Inactive)
REMARK    1  A    between atoms: C_5  and  O_6
REMARK    2  A    between atoms: O_6  and  C_7
REMARK    3  A    between atoms: C_7  and  C_8
REMARK    4  A    between atoms: C_12  and  C_13
REMARK    5  A    between atoms: C_19  and  C_20
REMARK    6  A    between atoms: C_24  and  C_25
REMARK                            x       y       z     vdW  Elec       q    Type
REMARK                         _______ _______ _______ _____ _____    ______ ____
ROOT
ATOM      1  F   UNL     1      44.552   7.821  11.641  0.00  0.00    +0.000 F 
ATOM      2  C   UNL     1      45.725   7.463  12.185  0.00  0.00    +0.000 A 
ATOM      3  C   UNL     1      46.594   8.483  12.575  0.00  0.00    +0.000 A 
ATOM      4  C   UNL     1      47.803   8.169  13.191  0.00  0.00    +0.000 A 
ATOM      5  C   UNL     1      48.138   6.836  13.412  0.00  0.00    +0.000 A 
ATOM      6  C   UNL     1      47.291   5.823  12.953  0.00  0.00    +0.000 A 
ATOM      7  C   UNL     1      46.047   6.106  12.358  0.00  0.00    +0.000 A 
ENDROOT
BRANCH   7   8
ATOM      8  C   UNL     1      45.152   4.997  11.953  0.00  0.00    +0.000 A 
ATOM      9  C   UNL     1      44.075   4.597  12.759  0.00  0.00    +0.000 A 
ATOM     10  C   UNL     1      43.286   3.526  12.373  0.00  0.00    +0.000 A 
ATOM     11  N   UNL     1      43.476   2.834  11.235  0.00  0.00    +0.000 NA
ATOM     12  C   UNL     1      44.505   3.220  10.430  0.00  0.00    +0.000 A 
ATOM     13  C   UNL     1      45.350   4.282  10.766  0.00  0.00    +0.000 A 
BRANCH  12  14
ATOM     14  C   UNL     1      44.760   2.482   9.124  0.00  0.00    +0.000 C 
ATOM     15  F   UNL     1      44.186   1.248   9.050  0.00  0.00    +0.000 F 
ATOM     16  F   UNL     1      44.300   3.170   8.038  0.00  0.00    +0.000 F 
ATOM     17  F   UNL     1      46.091   2.286   8.892  0.00  0.00    +0.000 F 
ENDBRANCH  12  14
ENDBRANCH   7   8
BRANCH   5  18
ATOM     18  O   UNL     1      49.306   6.613  14.087  0.00  0.00    +0.000 OA
BRANCH  18  19
ATOM     19  C   UNL     1      49.414   7.296  15.343  0.00  0.00    +0.000 C 
BRANCH  19  20
ATOM     20  C   UNL     1      48.874   6.452  16.465  0.00  0.00    +0.000 A 
ATOM     21  C   UNL     1      48.509   7.012  17.681  0.00  0.00    +0.000 A 
ATOM     22  N   UNL     1      48.039   6.274  18.712  0.00  0.00    +0.000 NA
ATOM     23  C   UNL     1      47.949   4.942  18.486  0.00  0.00    +0.000 A 
ATOM     24  C   UNL     1      48.321   4.349  17.289  0.00  0.00    +0.000 A 
ATOM     25  N   UNL     1      48.800   5.109  16.259  0.00  0.00    +0.000 NA
BRANCH  24  26
ATOM     26  C   UNL     1      48.193   2.851  17.128  0.00  0.00    +0.000 C 
ATOM     27  F   UNL     1      48.193   2.444  15.823  0.00  0.00    +0.000 F 
ATOM     28  F   UNL     1      49.208   2.161  17.718  0.00  0.00    +0.000 F 
ATOM     29  F   UNL     1      47.039   2.354  17.660  0.00  0.00    +0.000 F 
ENDBRANCH  24  26
ENDBRANCH  19  20
ENDBRANCH  18  19
ENDBRANCH   5  18
TORSDOF 6
ENDMDL
MODEL 2
REMARK VINA RESULT:    -7.464      1.667      2.059
REMARK INTER + INTRA:         -11.216
REMARK INTER:                 -10.246
REMARK INTRA:                  -0.971
REMARK UNBOUND:                -1.135
REMARK  Name = 
REMARK  6 active torsions:
REMARK  status: ('A' for Active; 'I' for Inactive)
REMARK    1  A    between atoms: C_5  and  O_6
REMARK    2  A    between atoms: O_6  and  C_7
REMARK    3  A    between atoms: C_7  and  C_8
REMARK    4  A    between atoms: C_12  and  C_13
REMARK    5  A    between atoms: C_19  and  C_20
REMARK    6  A    between atoms: C_24  and  C_25
REMARK                            x       y       z     vdW  Elec       q    Type
REMARK                         _______ _______ _______ _____ _____    ______ ____
ROOT
ATOM      1  F   UNL     1      44.879   7.719  11.244  0.00  0.00    +0.000 F 
ATOM      2  C   UNL     1      45.911   7.349  12.017  0.00  0.00    +0.000 A 
ATOM      3  C   UNL     1      46.780   8.349  12.455  0.00  0.00    +0.000 A 
ATOM      4  C   UNL     1      47.839   8.029  13.301  0.00  0.00    +0.000 A 
ATOM      5  C   UNL     1      48.024   6.709  13.704  0.00  0.00    +0.000 A 
ATOM      6  C   UNL     1      47.187   5.707  13.203  0.00  0.00    +0.000 A 
ATOM      7  C   UNL     1      46.088   6.002  12.374  0.00  0.00    +0.000 A 
ENDROOT
BRANCH   7   8
ATOM      8  C   UNL     1      45.188   4.914  11.926  0.00  0.00    +0.000 A 
ATOM      9  C   UNL     1      44.073   4.530  12.687  0.00  0.00    +0.000 A 
ATOM     10  C   UNL     1      43.279   3.478  12.263  0.00  0.00    +0.000 A 
ATOM     11  N   UNL     1      43.500   2.790  11.128  0.00  0.00    +0.000 NA
ATOM     12  C   UNL     1      44.566   3.160  10.367  0.00  0.00    +0.000 A 
ATOM     13  C   UNL     1      45.419   4.203  10.743  0.00  0.00    +0.000 A 
BRANCH  12  14
ATOM     14  C   UNL     1      44.857   2.425   9.066  0.00  0.00    +0.000 C 
ATOM     15  F   UNL     1      44.328   1.171   8.994  0.00  0.00    +0.000 F 
ATOM     16  F   UNL     1      44.382   3.092   7.974  0.00  0.00    +0.000 F 
ATOM     17  F   UNL     1      46.197   2.275   8.845  0.00  0.00    +0.000 F 
ENDBRANCH  12  14
ENDBRANCH   7   8
BRANCH   5  18
ATOM     18  O   UNL     1      49.040   6.488  14.592  0.00  0.00    +0.000 OA
BRANCH  18  19
ATOM     19  C   UNL     1      48.642   6.471  15.970  0.00  0.00    +0.000 C 
BRANCH  19  20
ATOM     20  C   UNL     1      48.939   5.138  16.601  0.00  0.00    +0.000 A 
ATOM     21  C   UNL     1      47.939   4.200  16.817  0.00  0.00    +0.000 A 
ATOM     22  N   UNL     1      48.176   3.003  17.400  0.00  0.00    +0.000 NA
ATOM     23  C   UNL     1      49.458   2.773  17.768  0.00  0.00    +0.000 A 
ATOM     24  C   UNL     1      50.478   3.695  17.581  0.00  0.00    +0.000 A 
ATOM     25  N   UNL     1      50.220   4.903  16.996  0.00  0.00    +0.000 NA
BRANCH  24  26
ATOM     26  C   UNL     1      51.881   3.355  18.029  0.00  0.00    +0.000 C 
ATOM     27  F   UNL     1      52.216   2.047  17.814  0.00  0.00    +0.000 F 
ATOM     28  F   UNL     1      52.838   4.081  17.386  0.00  0.00    +0.000 F 
ATOM     29  F   UNL     1      52.080   3.564  19.362  0.00  0.00    +0.000 F 
ENDBRANCH  24  26
ENDBRANCH  19  20
ENDBRANCH  18  19
ENDBRANCH   5  18
TORSDOF 6
ENDMDL
MODEL 3
REMARK VINA RESULT:    -7.235      1.724      7.357
REMARK INTER + INTRA:         -10.908
REMARK INTER:                 -10.033
REMARK INTRA:                  -0.875
REMARK UNBOUND:                -1.135
REMARK  Name = 
REMARK  6 active torsions:
REMARK  status: ('A' for Active; 'I' for Inactive)
REMARK    1  A    between atoms: C_5  and  O_6
REMARK    2  A    between atoms: O_6  and  C_7
REMARK    3  A    between atoms: C_7  and  C_8
REMARK    4  A    between atoms: C_12  and  C_13
REMARK    5  A    between atoms: C_19  and  C_20
REMARK    6  A    between atoms: C_24  and  C_25
REMARK                            x       y       z     vdW  Elec       q    Type
REMARK                         _______ _______ _______ _____ _____    ______ ____
ROOT
ATOM      1  F   UNL     1      50.757   8.083  14.796  0.00  0.00    +0.000 F 
ATOM      2  C   UNL     1      49.737   7.718  14.004  0.00  0.00    +0.000 A 
ATOM      3  C   UNL     1      49.761   8.157  12.679  0.00  0.00    +0.000 A 
ATOM      4  C   UNL     1      48.754   7.766  11.800  0.00  0.00    +0.000 A 
ATOM      5  C   UNL     1      47.728   6.940  12.250  0.00  0.00    +0.000 A 
ATOM      6  C   UNL     1      47.679   6.566  13.596  0.00  0.00    +0.000 A 
ATOM      7  C   UNL     1      48.698   6.914  14.502  0.00  0.00    +0.000 A 
ENDROOT
BRANCH   7   8
ATOM      8  C   UNL     1      48.638   6.434  15.903  0.00  0.00    +0.000 A 
ATOM      9  C   UNL     1      48.840   7.307  16.983  0.00  0.00    +0.000 A 
ATOM     10  C   UNL     1      48.825   6.816  18.277  0.00  0.00    +0.000 A 
ATOM     11  N   UNL     1      48.605   5.523  18.580  0.00  0.00    +0.000 NA
ATOM     12  C   UNL     1      48.388   4.664  17.546  0.00  0.00    +0.000 A 
ATOM     13  C   UNL     1      48.406   5.089  16.214  0.00  0.00    +0.000 A 
BRANCH  12  14
ATOM     14  C   UNL     1      48.121   3.193  17.829  0.00  0.00    +0.000 C 
ATOM     15  F   UNL     1      46.849   2.786  17.558  0.00  0.00    +0.000 F 
ATOM     16  F   UNL     1      48.937   2.368  17.110  0.00  0.00    +0.000 F 
ATOM     17  F   UNL     1      48.342   2.870  19.138  0.00  0.00    +0.000 F 
ENDBRANCH  12  14
ENDBRANCH   7   8
BRANCH   5  18
ATOM     18  O   UNL     1      46.819   6.542  11.308  0.00  0.00    +0.000 OA
BRANCH  18  19
ATOM     19  C   UNL     1      45.451   6.593  11.734  0.00  0.00    +0.000 C 
BRANCH  19  20
ATOM     20  C   UNL     1      44.762   5.277  11.499  0.00  0.00    +0.000 A 
ATOM     21  C   UNL     1      43.828   4.778  12.395  0.00  0.00    +0.000 A 
ATOM     22  N   UNL     1      43.208   3.590  12.217  0.00  0.00    +0.000 NA
ATOM     23  C   UNL     1      43.560   2.907  11.103  0.00  0.00    +0.000 A 
ATOM     24  C   UNL     1      44.501   3.369  10.195  0.00  0.00    +0.000 A 
ATOM     25  N   UNL     1      45.123   4.570  10.393  0.00  0.00    +0.000 NA
BRANCH  24  26
ATOM     26  C   UNL     1      44.837   2.535   8.979  0.00  0.00    +0.000 C 
ATOM     27  F   UNL     1      46.173   2.505   8.695  0.00  0.00    +0.000 F 
ATOM     28  F   UNL     1      44.468   1.230   9.108  0.00  0.00    +0.000 F 
ATOM     29  F   UNL     1      44.236   2.987   7.841  0.00  0.00    +0.000 F 
ENDBRANCH  24  26
ENDBRANCH  19  20
ENDBRANCH  18  19
ENDBRANCH   5  18
TORSDOF 6
ENDMDL
MODEL 4
REMARK VINA RESULT:    -6.958      2.088      2.938
REMARK INTER + INTRA:         -10.534
REMARK INTER:                  -9.176
REMARK INTRA:                  -1.358
REMARK UNBOUND:                -1.135
REMARK  Name = 
REMARK  6 active torsions:
REMARK  status: ('A' for Active; 'I' for Inactive)
REMARK    1  A    between atoms: C_5  and  O_6
REMARK    2  A    between atoms: O_6  and  C_7
REMARK    3  A    between atoms: C_7  and  C_8
REMARK    4  A    between atoms: C_12  and  C_13
REMARK    5  A    between atoms: C_19  and  C_20
REMARK    6  A    between atoms: C_24  and  C_25
REMARK                            x       y       z     vdW  Elec       q    Type
REMARK                         _______ _______ _______ _____ _____    ______ ____
ROOT
ATOM      1  F   UNL     1      49.046   8.050  10.947  0.00  0.00    +0.000 F 
ATOM      2  C   UNL     1      49.342   7.905  12.247  0.00  0.00    +0.000 A 
ATOM      3  C   UNL     1      50.591   8.354  12.678  0.00  0.00    +0.000 A 
ATOM      4  C   UNL     1      50.932   8.274  14.026  0.00  0.00    +0.000 A 
ATOM      5  C   UNL     1      50.021   7.745  14.937  0.00  0.00    +0.000 A 
ATOM      6  C   UNL     1      48.801   7.235  14.481  0.00  0.00    +0.000 A 
ATOM      7  C   UNL     1      48.413   7.332  13.132  0.00  0.00    +0.000 A 
ENDROOT
BRANCH   7   8
ATOM      8  C   UNL     1      47.080   6.842  12.710  0.00  0.00    +0.000 A 
ATOM      9  C   UNL     1      46.053   7.732  12.358  0.00  0.00    +0.000 A 
ATOM     10  C   UNL     1      44.805   7.242  12.013  0.00  0.00    +0.000 A 
ATOM     11  N   UNL     1      44.505   5.932  11.975  0.00  0.00    +0.000 NA
ATOM     12  C   UNL     1      45.494   5.051  12.294  0.00  0.00    +0.000 A 
ATOM     13  C   UNL     1      46.773   5.477  12.667  0.00  0.00    +0.000 A 
BRANCH  12  14
ATOM     14  C   UNL     1      45.215   3.555  12.255  0.00  0.00    +0.000 C 
ATOM     15  F   UNL     1      44.028   3.186  12.813  0.00  0.00    +0.000 F 
ATOM     16  F   UNL     1      45.197   3.062  10.983  0.00  0.00    +0.000 F 
ATOM     17  F   UNL     1      46.173   2.834  12.911  0.00  0.00    +0.000 F 
ENDBRANCH  12  14
ENDBRANCH   7   8
BRANCH   5  18
ATOM     18  O   UNL     1      50.401   7.769  16.250  0.00  0.00    +0.000 OA
BRANCH  18  19
ATOM     19  C   UNL     1      51.176   6.638  16.672  0.00  0.00    +0.000 C 
BRANCH  19  20
ATOM     20  C   UNL     1      50.337   5.673  17.464  0.00  0.00    +0.000 A 
ATOM     21  C   UNL     1      50.338   5.681  18.851  0.00  0.00    +0.000 A 
ATOM     22  N   UNL     1      49.608   4.813  19.586  0.00  0.00    +0.000 NA
ATOM     23  C   UNL     1      48.871   3.923  18.881  0.00  0.00    +0.000 A 
ATOM     24  C   UNL     1      48.860   3.877  17.495  0.00  0.00    +0.000 A 
ATOM     25  N   UNL     1      49.609   4.759  16.767  0.00  0.00    +0.000 NA
BRANCH  24  26
ATOM     26  C   UNL     1      48.010   2.844  16.790  0.00  0.00    +0.000 C 
ATOM     27  F   UNL     1      46.976   2.381  17.555  0.00  0.00    +0.000 F 
ATOM     28  F   UNL     1      47.431   3.315  15.650  0.00  0.00    +0.000 F 
ATOM     29  F   UNL     1      48.714   1.734  16.426  0.00  0.00    +0.000 F 
ENDBRANCH  24  26
ENDBRANCH  19  20
ENDBRANCH  18  19
ENDBRANCH   5  18
TORSDOF 6
ENDMDL
MODEL 5
REMARK VINA RESULT:    -6.913      4.436      7.588
REMARK INTER + INTRA:         -10.473
REMARK INTER:                  -9.429
REMARK INTRA:                  -1.044
REMARK UNBOUND:                -1.135
REMARK  Name = 
REMARK  6 active torsions:
REMARK  status: ('A' for Active; 'I' for Inactive)
REMARK    1  A    between atoms: C_5  and  O_6
REMARK    2  A    between atoms: O_6  and  C_7
REMARK    3  A    between atoms: C_7  and  C_8
REMARK    4  A    between atoms: C_12  and  C_13
REMARK    5  A    between atoms: C_19  and  C_20
REMARK    6  A    between atoms: C_24  and  C_25
REMARK                            x       y       z     vdW  Elec       q    Type
REMARK                         _______ _______ _______ _____ _____    ______ ____
ROOT
ATOM      1  F   UNL     1      48.720  10.318  11.402  0.00  0.00    +0.000 F 
ATOM      2  C   UNL     1      48.188   9.185  11.886  0.00  0.00    +0.000 A 
ATOM      3  C   UNL     1      46.818   9.178  12.152  0.00  0.00    +0.000 A 
ATOM      4  C   UNL     1      46.205   8.014  12.608  0.00  0.00    +0.000 A 
ATOM      5  C   UNL     1      46.965   6.863  12.797  0.00  0.00    +0.000 A 
ATOM      6  C   UNL     1      48.348   6.904  12.594  0.00  0.00    +0.000 A 
ATOM      7  C   UNL     1      48.993   8.054  12.101  0.00  0.00    +0.000 A 
ENDROOT
BRANCH   7   8
ATOM      8  C   UNL     1      50.450   8.026  11.834  0.00  0.00    +0.000 A 
ATOM      9  C   UNL     1      51.370   8.559  12.751  0.00  0.00    +0.000 A 
ATOM     10  C   UNL     1      52.721   8.559  12.449  0.00  0.00    +0.000 A 
ATOM     11  N   UNL     1      53.229   8.054  11.311  0.00  0.00    +0.000 NA
ATOM     12  C   UNL     1      52.354   7.515  10.417  0.00  0.00    +0.000 A 
ATOM     13  C   UNL     1      50.975   7.495  10.650  0.00  0.00    +0.000 A 
BRANCH  12  14
ATOM     14  C   UNL     1      52.873   6.916   9.117  0.00  0.00    +0.000 C 
ATOM     15  F   UNL     1      51.909   6.658   8.189  0.00  0.00    +0.000 F 
ATOM     16  F   UNL     1      53.779   7.727   8.497  0.00  0.00    +0.000 F 
ATOM     17  F   UNL     1      53.523   5.731   9.317  0.00  0.00    +0.000 F 
ENDBRANCH  12  14
ENDBRANCH   7   8
BRANCH   5  18
ATOM     18  O   UNL     1      46.277   5.743  13.176  0.00  0.00    +0.000 OA
BRANCH  18  19
ATOM     19  C   UNL     1      44.879   5.759  12.854  0.00  0.00    +0.000 C 
BRANCH  19  20
ATOM     20  C   UNL     1      44.535   4.657  11.890  0.00  0.00    +0.000 A 
ATOM     21  C   UNL     1      43.628   3.661  12.222  0.00  0.00    +0.000 A 
ATOM     22  N   UNL     1      43.315   2.650  11.381  0.00  0.00    +0.000 NA
ATOM     23  C   UNL     1      43.948   2.664  10.185  0.00  0.00    +0.000 A 
ATOM     24  C   UNL     1      44.872   3.635   9.828  0.00  0.00    +0.000 A 
ATOM     25  N   UNL     1      45.182   4.648  10.692  0.00  0.00    +0.000 NA
BRANCH  24  26
ATOM     26  C   UNL     1      45.537   3.568   8.472  0.00  0.00    +0.000 C 
ATOM     27  F   UNL     1      44.648   3.536   7.433  0.00  0.00    +0.000 F 
ATOM     28  F   UNL     1      46.345   4.636   8.219  0.00  0.00    +0.000 F 
ATOM     29  F   UNL     1      46.316   2.460   8.314  0.00  0.00    +0.000 F 
ENDBRANCH  24  26
ENDBRANCH  19  20
ENDBRANCH  18  19
ENDBRANCH   5  18
TORSDOF 6
ENDMDL
MODEL 6
REMARK VINA RESULT:    -6.763      1.472      2.046
REMARK INTER + INTRA:         -10.270
REMARK INTER:                  -9.152
REMARK INTRA:                  -1.118
REMARK UNBOUND:                -1.135
REMARK  Name = 
REMARK  6 active torsions:
REMARK  status: ('A' for Active; 'I' for Inactive)
REMARK    1  A    between atoms: C_5  and  O_6
REMARK    2  A    between atoms: O_6  and  C_7
REMARK    3  A    between atoms: C_7  and  C_8
REMARK    4  A    between atoms: C_12  and  C_13
REMARK    5  A    between atoms: C_19  and  C_20
REMARK    6  A    between atoms: C_24  and  C_25
REMARK                            x       y       z     vdW  Elec       q    Type
REMARK                         _______ _______ _______ _____ _____    ______ ____
ROOT
ATOM      1  F   UNL     1      45.357   8.704  11.907  0.00  0.00    +0.000 F 
ATOM      2  C   UNL     1      46.492   8.241  12.451  0.00  0.00    +0.000 A 
ATOM      3  C   UNL     1      47.198   9.096  13.298  0.00  0.00    +0.000 A 
ATOM      4  C   UNL     1      48.356   8.650  13.930  0.00  0.00    +0.000 A 
ATOM      5  C   UNL     1      48.804   7.350  13.709  0.00  0.00    +0.000 A 
ATOM      6  C   UNL     1      48.127   6.528  12.804  0.00  0.00    +0.000 A 
ATOM      7  C   UNL     1      46.935   6.935  12.176  0.00  0.00    +0.000 A 
ENDROOT
BRANCH   7   8
ATOM      8  C   UNL     1      46.214   6.001  11.280  0.00  0.00    +0.000 A 
ATOM      9  C   UNL     1      46.396   6.040   9.889  0.00  0.00    +0.000 A 
ATOM     10  C   UNL     1      45.672   5.184   9.076  0.00  0.00    +0.000 A 
ATOM     11  N   UNL     1      44.792   4.280   9.544  0.00  0.00    +0.000 NA
ATOM     12  C   UNL     1      44.617   4.214  10.893  0.00  0.00    +0.000 A 
ATOM     13  C   UNL     1      45.304   5.059  11.771  0.00  0.00    +0.000 A 
BRANCH  12  14
ATOM     14  C   UNL     1      43.644   3.202  11.481  0.00  0.00    +0.000 C 
ATOM     15  F   UNL     1      42.369   3.661  11.626  0.00  0.00    +0.000 F 
ATOM     16  F   UNL     1      43.548   2.072  10.721  0.00  0.00    +0.000 F 
ATOM     17  F   UNL     1      44.027   2.775  12.720  0.00  0.00    +0.000 F 
ENDBRANCH  12  14
ENDBRANCH   7   8
BRANCH   5  18
ATOM     18  O   UNL     1      49.906   6.965  14.422  0.00  0.00    +0.000 OA
BRANCH  18  19
ATOM     19  C   UNL     1      49.948   7.448  15.772  0.00  0.00    +0.000 C 
BRANCH  19  20
ATOM     20  C   UNL     1      49.132   6.573  16.684  0.00  0.00    +0.000 A 
ATOM     21  C   UNL     1      48.590   7.063  17.864  0.00  0.00    +0.000 A 
ATOM     22  N   UNL     1      47.870   6.293  18.710  0.00  0.00    +0.000 NA
ATOM     23  C   UNL     1      47.711   5.002  18.337  0.00  0.00    +0.000 A 
ATOM     24  C   UNL     1      48.253   4.476  17.174  0.00  0.00    +0.000 A 
ATOM     25  N   UNL     1      48.984   5.267  16.332  0.00  0.00    +0.000 NA
BRANCH  24  26
ATOM     26  C   UNL     1      48.030   3.019  16.840  0.00  0.00    +0.000 C 
ATOM     27  F   UNL     1      49.114   2.230  17.107  0.00  0.00    +0.000 F 
ATOM     28  F   UNL     1      47.001   2.462  17.538  0.00  0.00    +0.000 F 
ATOM     29  F   UNL     1      47.748   2.811  15.522  0.00  0.00    +0.000 F 
ENDBRANCH  24  26
ENDBRANCH  19  20
ENDBRANCH  18  19
ENDBRANCH   5  18
TORSDOF 6
ENDMDL
MODEL 7
REMARK VINA RESULT:    -6.740      4.518      8.214
REMARK INTER + INTRA:         -10.239
REMARK INTER:                  -9.330
REMARK INTRA:                  -0.909
REMARK UNBOUND:                -1.135
REMARK  Name = 
REMARK  6 active torsions:
REMARK  status: ('A' for Active; 'I' for Inactive)
REMARK    1  A    between atoms: C_5  and  O_6
REMARK    2  A    between atoms: O_6  and  C_7
REMARK    3  A    between atoms: C_7  and  C_8
REMARK    4  A    between atoms: C_12  and  C_13
REMARK    5  A    between atoms: C_19  and  C_20
REMARK    6  A    between atoms: C_24  and  C_25
REMARK                            x       y       z     vdW  Elec       q    Type
REMARK                         _______ _______ _______ _____ _____    ______ ____
ROOT
ATOM      1  F   UNL     1      47.637  10.218  13.121  0.00  0.00    +0.000 F 
ATOM      2  C   UNL     1      47.176   8.992  12.830  0.00  0.00    +0.000 A 
ATOM      3  C   UNL     1      45.793   8.809  12.821  0.00  0.00    +0.000 A 
ATOM      4  C   UNL     1      45.258   7.570  12.476  0.00  0.00    +0.000 A 
ATOM      5  C   UNL     1      46.110   6.521  12.142  0.00  0.00    +0.000 A 
ATOM      6  C   UNL     1      47.495   6.699  12.223  0.00  0.00    +0.000 A 
ATOM      7  C   UNL     1      48.067   7.946  12.534  0.00  0.00    +0.000 A 
ENDROOT
BRANCH   7   8
ATOM      8  C   UNL     1      49.540   8.104  12.537  0.00  0.00    +0.000 A 
ATOM      9  C   UNL     1      50.240   8.390  13.719  0.00  0.00    +0.000 A 
ATOM     10  C   UNL     1      51.611   8.578  13.679  0.00  0.00    +0.000 A 
ATOM     11  N   UNL     1      52.343   8.484  12.553  0.00  0.00    +0.000 NA
ATOM     12  C   UNL     1      51.683   8.188  11.399  0.00  0.00    +0.000 A 
ATOM     13  C   UNL     1      50.297   8.002  11.365  0.00  0.00    +0.000 A 
BRANCH  12  14
ATOM     14  C   UNL     1      52.460   8.057  10.097  0.00  0.00    +0.000 C 
ATOM     15  F   UNL     1      52.477   9.186   9.333  0.00  0.00    +0.000 F 
ATOM     16  F   UNL     1      53.768   7.727  10.303  0.00  0.00    +0.000 F 
ATOM     17  F   UNL     1      51.959   7.073   9.292  0.00  0.00    +0.000 F 
ENDBRANCH  12  14
ENDBRANCH   7   8
BRANCH   5  18
ATOM     18  O   UNL     1      45.507   5.359  11.744  0.00  0.00    +0.000 OA
BRANCH  18  19
ATOM     19  C   UNL     1      44.832   5.435  10.481  0.00  0.00    +0.000 C 
BRANCH  19  20
ATOM     20  C   UNL     1      45.013   4.165   9.695  0.00  0.00    +0.000 A 
ATOM     21  C   UNL     1      44.418   2.976  10.093  0.00  0.00    +0.000 A 
ATOM     22  N   UNL     1      44.580   1.817   9.416  0.00  0.00    +0.000 NA
ATOM     23  C   UNL     1      45.367   1.885   8.318  0.00  0.00    +0.000 A 
ATOM     24  C   UNL     1      45.989   3.053   7.901  0.00  0.00    +0.000 A 
ATOM     25  N   UNL     1      45.821   4.215   8.601  0.00  0.00    +0.000 NA
BRANCH  24  26
ATOM     26  C   UNL     1      46.858   3.034   6.664  0.00  0.00    +0.000 C 
ATOM     27  F   UNL     1      48.178   2.802   6.932  0.00  0.00    +0.000 F 
ATOM     28  F   UNL     1      46.498   2.068   5.773  0.00  0.00    +0.000 F 
ATOM     29  F   UNL     1      46.831   4.212   5.976  0.00  0.00    +0.000 F 
ENDBRANCH  24  26
ENDBRANCH  19  20
ENDBRANCH  18  19
ENDBRANCH   5  18
TORSDOF 6
ENDMDL
MODEL 8
REMARK VINA RESULT:    -6.463      4.294      5.849
REMARK INTER + INTRA:          -9.865
REMARK INTER:                  -9.003
REMARK INTRA:                  -0.862
REMARK UNBOUND:                -1.135
REMARK  Name = 
REMARK  6 active torsions:
REMARK  status: ('A' for Active; 'I' for Inactive)
REMARK    1  A    between atoms: C_5  and  O_6
REMARK    2  A    between atoms: O_6  and  C_7
REMARK    3  A    between atoms: C_7  and  C_8
REMARK    4  A    between atoms: C_12  and  C_13
REMARK    5  A    between atoms: C_19  and  C_20
REMARK    6  A    between atoms: C_24  and  C_25
REMARK                            x       y       z     vdW  Elec       q    Type
REMARK                         _______ _______ _______ _____ _____    ______ ____
ROOT
ATOM      1  F   UNL     1      46.415   4.518  14.673  0.00  0.00    +0.000 F 
ATOM      2  C   UNL     1      46.938   5.453  13.865  0.00  0.00    +0.000 A 
ATOM      3  C   UNL     1      47.980   6.232  14.368  0.00  0.00    +0.000 A 
ATOM      4  C   UNL     1      48.593   7.182  13.556  0.00  0.00    +0.000 A 
ATOM      5  C   UNL     1      48.160   7.349  12.243  0.00  0.00    +0.000 A 
ATOM      6  C   UNL     1      47.069   6.611  11.774  0.00  0.00    +0.000 A 
ATOM      7  C   UNL     1      46.450   5.619  12.557  0.00  0.00    +0.000 A 
ENDROOT
BRANCH   7   8
ATOM      8  C   UNL     1      45.343   4.813  11.991  0.00  0.00    +0.000 A 
ATOM      9  C   UNL     1      44.070   4.806  12.581  0.00  0.00    +0.000 A 
ATOM     10  C   UNL     1      43.072   4.005  12.054  0.00  0.00    +0.000 A 
ATOM     11  N   UNL     1      43.238   3.223  10.971  0.00  0.00    +0.000 NA
ATOM     12  C   UNL     1      44.462   3.232  10.373  0.00  0.00    +0.000 A 
ATOM     13  C   UNL     1      45.520   4.005  10.862  0.00  0.00    +0.000 A 
BRANCH  12  14
ATOM     14  C   UNL     1      44.705   2.378   9.137  0.00  0.00    +0.000 C 
ATOM     15  F   UNL     1      44.062   1.176   9.145  0.00  0.00    +0.000 F 
ATOM     16  F   UNL     1      44.314   3.001   7.988  0.00  0.00    +0.000 F 
ATOM     17  F   UNL     1      46.028   2.088   8.961  0.00  0.00    +0.000 F 
ENDBRANCH  12  14
ENDBRANCH   7   8
BRANCH   5  18
ATOM     18  O   UNL     1      48.860   8.250  11.488  0.00  0.00    +0.000 OA
BRANCH  18  19
ATOM     19  C   UNL     1      50.057   8.748  12.103  0.00  0.00    +0.000 C 
BRANCH  19  20
ATOM     20  C   UNL     1      51.186   8.814  11.112  0.00  0.00    +0.000 A 
ATOM     21  C   UNL     1      51.712  10.027  10.693  0.00  0.00    +0.000 A 
ATOM     22  N   UNL     1      52.714  10.115   9.790  0.00  0.00    +0.000 NA
ATOM     23  C   UNL     1      53.176   8.937   9.310  0.00  0.00    +0.000 A 
ATOM     24  C   UNL     1      52.662   7.707   9.696  0.00  0.00    +0.000 A 
ATOM     25  N   UNL     1      51.645   7.636  10.606  0.00  0.00    +0.000 NA
BRANCH  24  26
ATOM     26  C   UNL     1      53.236   6.440   9.102  0.00  0.00    +0.000 C 
ATOM     27  F   UNL     1      54.544   6.563   8.725  0.00  0.00    +0.000 F 
ATOM     28  F   UNL     1      53.209   5.386   9.965  0.00  0.00    +0.000 F 
ATOM     29  F   UNL     1      52.575   6.029   7.983  0.00  0.00    +0.000 F 
ENDBRANCH  24  26
ENDBRANCH  19  20
ENDBRANCH  18  19
ENDBRANCH   5  18
TORSDOF 6
ENDMDL
MODEL 9
REMARK VINA RESULT:    -6.103      2.550      3.351
REMARK INTER + INTRA:          -9.378
REMARK INTER:                  -8.377
REMARK INTRA:                  -1.002
REMARK UNBOUND:                -1.135
REMARK  Name = 
REMARK  6 active torsions:
REMARK  status: ('A' for Active; 'I' for Inactive)
REMARK    1  A    between atoms: C_5  and  O_6
REMARK    2  A    between atoms: O_6  and  C_7
REMARK    3  A    between atoms: C_7  and  C_8
REMARK    4  A    between atoms: C_12  and  C_13
REMARK    5  A    between atoms: C_19  and  C_20
REMARK    6  A    between atoms: C_24  and  C_25
REMARK                            x       y       z     vdW  Elec       q    Type
REMARK                         _______ _______ _______ _____ _____    ______ ____
ROOT
ATOM      1  F   UNL     1      46.432   9.484  11.772  0.00  0.00    +0.000 F 
ATOM      2  C   UNL     1      47.209   8.842  12.657  0.00  0.00    +0.000 A 
ATOM      3  C   UNL     1      48.065   9.615  13.443  0.00  0.00    +0.000 A 
ATOM      4  C   UNL     1      48.857   9.007  14.413  0.00  0.00    +0.000 A 
ATOM      5  C   UNL     1      48.790   7.627  14.592  0.00  0.00    +0.000 A 
ATOM      6  C   UNL     1      47.981   6.858  13.751  0.00  0.00    +0.000 A 
ATOM      7  C   UNL     1      47.142   7.444  12.785  0.00  0.00    +0.000 A 
ENDROOT
BRANCH   7   8
ATOM      8  C   UNL     1      46.249   6.592  11.966  0.00  0.00    +0.000 A 
ATOM      9  C   UNL     1      46.570   6.261  10.641  0.00  0.00    +0.000 A 
ATOM     10  C   UNL     1      45.690   5.502   9.889  0.00  0.00    +0.000 A 
ATOM     11  N   UNL     1      44.521   5.031  10.361  0.00  0.00    +0.000 NA
ATOM     12  C   UNL     1      44.201   5.326  11.651  0.00  0.00    +0.000 A 
ATOM     13  C   UNL     1      45.036   6.101  12.463  0.00  0.00    +0.000 A 
BRANCH  12  14
ATOM     14  C   UNL     1      42.898   4.809  12.243  0.00  0.00    +0.000 C 
ATOM     15  F   UNL     1      42.810   4.918  13.599  0.00  0.00    +0.000 F 
ATOM     16  F   UNL     1      41.806   5.462  11.747  0.00  0.00    +0.000 F 
ATOM     17  F   UNL     1      42.689   3.489  11.963  0.00  0.00    +0.000 F 
ENDBRANCH  12  14
ENDBRANCH   7   8
BRANCH   5  18
ATOM     18  O   UNL     1      49.544   7.116  15.613  0.00  0.00    +0.000 OA
BRANCH  18  19
ATOM     19  C   UNL     1      48.788   6.545  16.690  0.00  0.00    +0.000 C 
BRANCH  19  20
ATOM     20  C   UNL     1      49.185   5.115  16.930  0.00  0.00    +0.000 A 
ATOM     21  C   UNL     1      48.264   4.081  16.833  0.00  0.00    +0.000 A 
ATOM     22  N   UNL     1      48.590   2.789  17.062  0.00  0.00    +0.000 NA
ATOM     23  C   UNL     1      49.881   2.562  17.400  0.00  0.00    +0.000 A 
ATOM     24  C   UNL     1      50.823   3.573  17.522  0.00  0.00    +0.000 A 
ATOM     25  N   UNL     1      50.475   4.875  17.292  0.00  0.00    +0.000 NA
BRANCH  24  26
ATOM     26  C   UNL     1      52.242   3.226  17.910  0.00  0.00    +0.000 C 
ATOM     27  F   UNL     1      52.634   1.988  17.482  0.00  0.00    +0.000 F 
ATOM     28  F   UNL     1      53.163   4.091  17.398  0.00  0.00    +0.000 F 
ATOM     29  F   UNL     1      52.439   3.220  19.260  0.00  0.00    +0.000 F 
ENDBRANCH  24  26
ENDBRANCH  19  20
ENDBRANCH  18  19
ENDBRANCH   5  18
TORSDOF 6
ENDMDL
