MODEL 1
REMARK VINA RESULT:    -8.077      0.000      0.000
REMARK INTER + INTRA:         -10.242
REMARK INTER:                  -9.730
REMARK INTRA:                  -0.512
REMARK UNBOUND:                -0.512
REMARK  Name = 
REMARK  4 active torsions:
REMARK  status: ('A' for Active; 'I' for Inactive)
REMARK    1  A    between atoms: N_1  and  C_2
REMARK    2  A    between atoms: C_2  and  C_3
REMARK    3  A    between atoms: C_6  and  C_7
REMARK    4  A    between atoms: C_7  and  N_8
REMARK                            x       y       z     vdW  Elec       q    Type
REMARK                         _______ _______ _______ _____ _____    ______ ____
ROOT
ATOM      1  C   UNL     1      46.820   2.155   7.430  0.00  0.00    +0.000 A 
ATOM      2  C   UNL     1      46.703   3.546   7.298  0.00  0.00    +0.000 A 
ATOM      3  C   UNL     1      45.749   4.257   8.031  0.00  0.00    +0.000 A 
ATOM      4  C   UNL     1      44.890   3.593   8.916  0.00  0.00    +0.000 A 
ATOM      5  C   UNL     1      44.993   2.199   9.034  0.00  0.00    +0.000 A 
ATOM      6  C   UNL     1      45.948   1.489   8.301  0.00  0.00    +0.000 A 
ENDROOT
BRANCH   1   7
ATOM      7  C   UNL     1      47.856   1.396   6.642  0.00  0.00    +0.000 C 
BRANCH   7   8
ATOM      8  N   UNL     1      48.373   2.190   5.533  0.00  0.00    +0.000 NA
ATOM      9  H   UNL     1      48.963   1.601   4.948  0.00  0.00    +0.000 HD
ATOM     10  H   UNL     1      48.977   2.920   5.907  0.00  0.00    +0.000 HD
ENDBRANCH   7   8
ENDBRANCH   1   7
BRANCH   4  11
ATOM     11  C   UNL     1      43.888   4.360   9.738  0.00  0.00    +0.000 C 
BRANCH  11  12
ATOM     12  N   UNL     1      44.223   4.375  11.150  0.00  0.00    +0.000 N 
ATOM     13  C   UNL     1      43.653   3.569  12.101  0.00  0.00    +0.000 A 
ATOM     14  N   UNL     1      44.233   3.705  13.272  0.00  0.00    +0.000 NA
ATOM     15  C   UNL     1      45.221   4.628  13.069  0.00  0.00    +0.000 A 
ATOM     16  N   UNL     1      46.093   5.050  14.011  0.00  0.00    +0.000 NA
ATOM     17  C   UNL     1      46.996   5.949  13.572  0.00  0.00    +0.000 A 
ATOM     18  C   UNL     1      47.084   6.445  12.276  0.00  0.00    +0.000 A 
ATOM     19  C   UNL     1      46.183   6.003  11.309  0.00  0.00    +0.000 A 
ATOM     20  C   UNL     1      45.245   5.069  11.748  0.00  0.00    +0.000 A 
ENDBRANCH  11  12
ENDBRANCH   4  11
TORSDOF 4
ENDMDL
MODEL 2
REMARK VINA RESULT:    -7.040      1.799      2.012
REMARK INTER + INTRA:          -8.993
REMARK INTER:                  -8.620
REMARK INTRA:                  -0.372
REMARK UNBOUND:                -0.512
REMARK  Name = 
REMARK  4 active torsions:
REMARK  status: ('A' for Active; 'I' for Inactive)
REMARK    1  A    between atoms: N_1  and  C_2
REMARK    2  A    between atoms: C_2  and  C_3
REMARK    3  A    between atoms: C_6  and  C_7
REMARK    4  A    between atoms: C_7  and  N_8
REMARK                            x       y       z     vdW  Elec       q    Type
REMARK                         _______ _______ _______ _____ _____    ______ ____
ROOT
ATOM      1  C   UNL     1      46.252   2.142   7.900  0.00  0.00    +0.000 A 
ATOM      2  C   UNL     1      46.345   3.533   7.751  0.00  0.00    +0.000 A 
ATOM      3  C   UNL     1      45.533   4.389   8.500  0.00  0.00    +0.000 A 
ATOM      4  C   UNL     1      44.610   3.872   9.420  0.00  0.00    +0.000 A 
ATOM      5  C   UNL     1      44.504   2.480   9.555  0.00  0.00    +0.000 A 
ATOM      6  C   UNL     1      45.317   1.626   8.805  0.00  0.00    +0.000 A 
ENDROOT
BRANCH   1   7
ATOM      7  C   UNL     1      47.137   1.226   7.094  0.00  0.00    +0.000 C 
BRANCH   7   8
ATOM      8  N   UNL     1      47.174  -0.118   7.663  0.00  0.00    +0.000 NA
ATOM      9  H   UNL     1      46.606  -0.137   8.507  0.00  0.00    +0.000 HD
ATOM     10  H   UNL     1      48.129  -0.323   7.954  0.00  0.00    +0.000 HD
ENDBRANCH   7   8
ENDBRANCH   1   7
BRANCH   4  11
ATOM     11  C   UNL     1      43.762   4.791  10.259  0.00  0.00    +0.000 C 
BRANCH  11  12
ATOM     12  N   UNL     1      44.496   5.362  11.373  0.00  0.00    +0.000 N 
ATOM     13  C   UNL     1      45.222   4.642  12.284  0.00  0.00    +0.000 A 
ATOM     14  N   UNL     1      45.887   5.421  13.108  0.00  0.00    +0.000 NA
ATOM     15  C   UNL     1      45.584   6.693  12.709  0.00  0.00    +0.000 A 
ATOM     16  N   UNL     1      46.079   7.819  13.268  0.00  0.00    +0.000 NA
ATOM     17  C   UNL     1      45.656   8.961  12.690  0.00  0.00    +0.000 A 
ATOM     18  C   UNL     1      44.786   9.050  11.609  0.00  0.00    +0.000 A 
ATOM     19  C   UNL     1      44.283   7.884  11.035  0.00  0.00    +0.000 A 
ATOM     20  C   UNL     1      44.715   6.694  11.620  0.00  0.00    +0.000 A 
ENDBRANCH  11  12
ENDBRANCH   4  11
TORSDOF 4
ENDMDL
MODEL 3
REMARK VINA RESULT:    -6.650      1.431      1.978
REMARK INTER + INTRA:          -8.522
REMARK INTER:                  -8.043
REMARK INTRA:                  -0.479
REMARK UNBOUND:                -0.512
REMARK  Name = 
REMARK  4 active torsions:
REMARK  status: ('A' for Active; 'I' for Inactive)
REMARK    1  A    between atoms: N_1  and  C_2
REMARK    2  A    between atoms: C_2  and  C_3
REMARK    3  A    between atoms: C_6  and  C_7
REMARK    4  A    between atoms: C_7  and  N_8
REMARK                            x       y       z     vdW  Elec       q    Type
REMARK                         _______ _______ _______ _____ _____    ______ ____
ROOT
ATOM      1  C   UNL     1      45.748   3.238   7.819  0.00  0.00    +0.000 A 
ATOM      2  C   UNL     1      45.921   4.565   8.236  0.00  0.00    +0.000 A 
ATOM      3  C   UNL     1      45.480   4.983   9.494  0.00  0.00    +0.000 A 
ATOM      4  C   UNL     1      44.858   4.081  10.367  0.00  0.00    +0.000 A 
ATOM      5  C   UNL     1      44.667   2.758   9.943  0.00  0.00    +0.000 A 
ATOM      6  C   UNL     1      45.109   2.341   8.684  0.00  0.00    +0.000 A 
ENDROOT
BRANCH   1   7
ATOM      7  C   UNL     1      46.234   2.791   6.464  0.00  0.00    +0.000 C 
BRANCH   7   8
ATOM      8  N   UNL     1      46.900   3.876   5.751  0.00  0.00    +0.000 NA
ATOM      9  H   UNL     1      46.197   4.507   5.374  0.00  0.00    +0.000 HD
ATOM     10  H   UNL     1      47.394   3.484   4.949  0.00  0.00    +0.000 HD
ENDBRANCH   7   8
ENDBRANCH   1   7
BRANCH   4  11
ATOM     11  C   UNL     1      44.417   4.517  11.740  0.00  0.00    +0.000 C 
BRANCH  11  12
ATOM     12  N   UNL     1      45.516   4.565  12.687  0.00  0.00    +0.000 N 
ATOM     13  C   UNL     1      46.105   3.470  13.261  0.00  0.00    +0.000 A 
ATOM     14  N   UNL     1      47.156   3.797  13.979  0.00  0.00    +0.000 NA
ATOM     15  C   UNL     1      47.255   5.155  13.857  0.00  0.00    +0.000 A 
ATOM     16  N   UNL     1      48.222   5.915  14.417  0.00  0.00    +0.000 NA
ATOM     17  C   UNL     1      48.128   7.231  14.139  0.00  0.00    +0.000 A 
ATOM     18  C   UNL     1      47.148   7.826  13.353  0.00  0.00    +0.000 A 
ATOM     19  C   UNL     1      46.156   7.035  12.776  0.00  0.00    +0.000 A 
ATOM     20  C   UNL     1      46.242   5.671  13.052  0.00  0.00    +0.000 A 
ENDBRANCH  11  12
ENDBRANCH   4  11
TORSDOF 4
ENDMDL
MODEL 4
REMARK VINA RESULT:    -6.403      2.019      5.853
REMARK INTER + INTRA:          -8.225
REMARK INTER:                  -7.898
REMARK INTRA:                  -0.328
REMARK UNBOUND:                -0.512
REMARK  Name = 
REMARK  4 active torsions:
REMARK  status: ('A' for Active; 'I' for Inactive)
REMARK    1  A    between atoms: N_1  and  C_2
REMARK    2  A    between atoms: C_2  and  C_3
REMARK    3  A    between atoms: C_6  and  C_7
REMARK    4  A    between atoms: C_7  and  N_8
REMARK                            x       y       z     vdW  Elec       q    Type
REMARK                         _______ _______ _______ _____ _____    ______ ____
ROOT
ATOM      1  C   UNL     1      47.498   7.471  13.647  0.00  0.00    +0.000 A 
ATOM      2  C   UNL     1      47.207   6.110  13.477  0.00  0.00    +0.000 A 
ATOM      3  C   UNL     1      46.049   5.704  12.809  0.00  0.00    +0.000 A 
ATOM      4  C   UNL     1      45.155   6.650  12.292  0.00  0.00    +0.000 A 
ATOM      5  C   UNL     1      45.436   8.012  12.478  0.00  0.00    +0.000 A 
ATOM      6  C   UNL     1      46.595   8.417  13.146  0.00  0.00    +0.000 A 
ENDROOT
BRANCH   1   7
ATOM      7  C   UNL     1      48.753   7.902  14.361  0.00  0.00    +0.000 C 
BRANCH   7   8
ATOM      8  N   UNL     1      49.877   7.027  14.044  0.00  0.00    +0.000 NA
ATOM      9  H   UNL     1      50.728   7.583  13.998  0.00  0.00    +0.000 HD
ATOM     10  H   UNL     1      49.736   6.639  13.112  0.00  0.00    +0.000 HD
ENDBRANCH   7   8
ENDBRANCH   1   7
BRANCH   4  11
ATOM     11  C   UNL     1      43.926   6.218  11.536  0.00  0.00    +0.000 C 
BRANCH  11  12
ATOM     12  N   UNL     1      43.965   4.814  11.170  0.00  0.00    +0.000 N 
ATOM     13  C   UNL     1      43.235   3.825  11.774  0.00  0.00    +0.000 A 
ATOM     14  N   UNL     1      43.368   2.670  11.161  0.00  0.00    +0.000 NA
ATOM     15  C   UNL     1      44.211   2.925  10.115  0.00  0.00    +0.000 A 
ATOM     16  N   UNL     1      44.602   2.015   9.196  0.00  0.00    +0.000 NA
ATOM     17  C   UNL     1      45.420   2.503   8.241  0.00  0.00    +0.000 A 
ATOM     18  C   UNL     1      45.864   3.816   8.147  0.00  0.00    +0.000 A 
ATOM     19  C   UNL     1      45.455   4.750   9.097  0.00  0.00    +0.000 A 
ATOM     20  C   UNL     1      44.605   4.261  10.089  0.00  0.00    +0.000 A 
ENDBRANCH  11  12
ENDBRANCH   4  11
TORSDOF 4
ENDMDL
MODEL 5
REMARK VINA RESULT:    -6.082      1.702      5.871
REMARK INTER + INTRA:          -7.838
REMARK INTER:                  -7.396
REMARK INTRA:                  -0.442
REMARK UNBOUND:                -0.512
REMARK  Name = 
REMARK  4 active torsions:
REMARK  status: ('A' for Active; 'I' for Inactive)
REMARK    1  A    between atoms: N_1  and  C_2
REMARK    2  A    between atoms: C_2  and  C_3
REMARK    3  A    between atoms: C_6  and  C_7
REMARK    4  A    between atoms: C_7  and  N_8
REMARK                            x       y       z     vdW  Elec       q    Type
REMARK                         _______ _______ _______ _____ _____    ______ ____
ROOT
ATOM      1  C   UNL     1      46.439   5.776  12.848  0.00  0.00    +0.000 A 
ATOM      2  C   UNL     1      46.432   6.449  11.618  0.00  0.00    +0.000 A 
ATOM      3  C   UNL     1      45.806   5.891  10.500  0.00  0.00    +0.000 A 
ATOM      4  C   UNL     1      45.170   4.645  10.587  0.00  0.00    +0.000 A 
ATOM      5  C   UNL     1      45.194   3.963  11.812  0.00  0.00    +0.000 A 
ATOM      6  C   UNL     1      45.819   4.523  12.930  0.00  0.00    +0.000 A 
ENDROOT
BRANCH   1   7
ATOM      7  C   UNL     1      47.108   6.388  14.051  0.00  0.00    +0.000 C 
BRANCH   7   8
ATOM      8  N   UNL     1      48.549   6.156  14.038  0.00  0.00    +0.000 NA
ATOM      9  H   UNL     1      48.987   6.821  13.405  0.00  0.00    +0.000 HD
ATOM     10  H   UNL     1      48.726   5.229  13.651  0.00  0.00    +0.000 HD
ENDBRANCH   7   8
ENDBRANCH   1   7
BRANCH   4  11
ATOM     11  C   UNL     1      44.460   4.058   9.396  0.00  0.00    +0.000 C 
BRANCH  11  12
ATOM     12  N   UNL     1      45.141   2.892   8.863  0.00  0.00    +0.000 N 
ATOM     13  C   UNL     1      44.808   1.593   9.143  0.00  0.00    +0.000 A 
ATOM     14  N   UNL     1      45.507   0.741   8.427  0.00  0.00    +0.000 NA
ATOM     15  C   UNL     1      46.318   1.520   7.649  0.00  0.00    +0.000 A 
ATOM     16  N   UNL     1      47.193   1.053   6.732  0.00  0.00    +0.000 NA
ATOM     17  C   UNL     1      47.868   2.012   6.067  0.00  0.00    +0.000 A 
ATOM     18  C   UNL     1      47.730   3.382   6.256  0.00  0.00    +0.000 A 
ATOM     19  C   UNL     1      46.824   3.856   7.203  0.00  0.00    +0.000 A 
ATOM     20  C   UNL     1      46.114   2.876   7.895  0.00  0.00    +0.000 A 
ENDBRANCH  11  12
ENDBRANCH   4  11
TORSDOF 4
ENDMDL
MODEL 6
REMARK VINA RESULT:    -5.721      2.289      5.378
REMARK INTER + INTRA:          -7.404
REMARK INTER:                  -6.990
REMARK INTRA:                  -0.414
REMARK UNBOUND:                -0.512
REMARK  Name = 
REMARK  4 active torsions:
REMARK  status: ('A' for Active; 'I' for Inactive)
REMARK    1  A    between atoms: N_1  and  C_2
REMARK    2  A    between atoms: C_2  and  C_3
REMARK    3  A    between atoms: C_6  and  C_7
REMARK    4  A    between atoms: C_7  and  N_8
REMARK                            x       y       z     vdW  Elec       q    Type
REMARK                         _______ _______ _______ _____ _____    ______ ____
ROOT
ATOM      1  C   UNL     1      49.070   7.864  12.185  0.00  0.00    +0.000 A 
ATOM      2  C   UNL     1      47.983   8.657  11.792  0.00  0.00    +0.000 A 
ATOM      3  C   UNL     1      46.671   8.216  11.979  0.00  0.00    +0.000 A 
ATOM      4  C   UNL     1      46.415   6.971  12.569  0.00  0.00    +0.000 A 
ATOM      5  C   UNL     1      47.502   6.169  12.945  0.00  0.00    +0.000 A 
ATOM      6  C   UNL     1      48.814   6.612  12.757  0.00  0.00    +0.000 A 
ENDROOT
BRANCH   1   7
ATOM      7  C   UNL     1      50.484   8.349  11.987  0.00  0.00    +0.000 C 
BRANCH   7   8
ATOM      8  N   UNL     1      51.273   7.396  11.214  0.00  0.00    +0.000 NA
ATOM      9  H   UNL     1      50.659   6.666  10.859  0.00  0.00    +0.000 HD
ATOM     10  H   UNL     1      51.934   6.936  11.840  0.00  0.00    +0.000 HD
ENDBRANCH   7   8
ENDBRANCH   1   7
BRANCH   4  11
ATOM     11  C   UNL     1      45.001   6.509  12.810  0.00  0.00    +0.000 C 
BRANCH  11  12
ATOM     12  N   UNL     1      44.774   5.152  12.348  0.00  0.00    +0.000 N 
ATOM     13  C   UNL     1      44.243   4.144  13.108  0.00  0.00    +0.000 A 
ATOM     14  N   UNL     1      44.031   3.056  12.402  0.00  0.00    +0.000 NA
ATOM     15  C   UNL     1      44.434   3.376  11.135  0.00  0.00    +0.000 A 
ATOM     16  N   UNL     1      44.366   2.550  10.068  0.00  0.00    +0.000 NA
ATOM     17  C   UNL     1      44.801   3.094   8.913  0.00  0.00    +0.000 A 
ATOM     18  C   UNL     1      45.291   4.386   8.759  0.00  0.00    +0.000 A 
ATOM     19  C   UNL     1      45.356   5.232   9.864  0.00  0.00    +0.000 A 
ATOM     20  C   UNL     1      44.906   4.685  11.065  0.00  0.00    +0.000 A 
ENDBRANCH  11  12
ENDBRANCH   4  11
TORSDOF 4
ENDMDL
MODEL 7
REMARK VINA RESULT:    -5.442      2.404      4.155
REMARK INTER + INTRA:          -7.068
REMARK INTER:                  -6.610
REMARK INTRA:                  -0.457
REMARK UNBOUND:                -0.512
REMARK  Name = 
REMARK  4 active torsions:
REMARK  status: ('A' for Active; 'I' for Inactive)
REMARK    1  A    between atoms: N_1  and  C_2
REMARK    2  A    between atoms: C_2  and  C_3
REMARK    3  A    between atoms: C_6  and  C_7
REMARK    4  A    between atoms: C_7  and  N_8
REMARK                            x       y       z     vdW  Elec       q    Type
REMARK                         _______ _______ _______ _____ _____    ______ ____
ROOT
ATOM      1  C   UNL     1      44.716   3.323   9.999  0.00  0.00    +0.000 A 
ATOM      2  C   UNL     1      44.381   3.160  11.351  0.00  0.00    +0.000 A 
ATOM      3  C   UNL     1      44.597   4.189  12.271  0.00  0.00    +0.000 A 
ATOM      4  C   UNL     1      45.151   5.409  11.860  0.00  0.00    +0.000 A 
ATOM      5  C   UNL     1      45.504   5.565  10.512  0.00  0.00    +0.000 A 
ATOM      6  C   UNL     1      45.288   4.535   9.592  0.00  0.00    +0.000 A 
ENDROOT
BRANCH   1   7
ATOM      7  C   UNL     1      44.473   2.212   9.011  0.00  0.00    +0.000 C 
BRANCH   7   8
ATOM      8  N   UNL     1      45.672   1.405   8.807  0.00  0.00    +0.000 NA
ATOM      9  H   UNL     1      45.516   0.767   8.031  0.00  0.00    +0.000 HD
ATOM     10  H   UNL     1      45.819   0.825   9.633  0.00  0.00    +0.000 HD
ENDBRANCH   7   8
ENDBRANCH   1   7
BRANCH   4  11
ATOM     11  C   UNL     1      45.348   6.535  12.840  0.00  0.00    +0.000 C 
BRANCH  11  12
ATOM     12  N   UNL     1      46.741   6.718  13.203  0.00  0.00    +0.000 N 
ATOM     13  C   UNL     1      47.483   5.830  13.937  0.00  0.00    +0.000 A 
ATOM     14  N   UNL     1      48.746   6.187  14.008  0.00  0.00    +0.000 NA
ATOM     15  C   UNL     1      48.824   7.345  13.285  0.00  0.00    +0.000 A 
ATOM     16  N   UNL     1      49.958   8.048  13.070  0.00  0.00    +0.000 NA
ATOM     17  C   UNL     1      49.795   9.148  12.307  0.00  0.00    +0.000 A 
ATOM     18  C   UNL     1      48.595   9.582  11.755  0.00  0.00    +0.000 A 
ATOM     19  C   UNL     1      47.431   8.850  11.980  0.00  0.00    +0.000 A 
ATOM     20  C   UNL     1      47.584   7.708  12.765  0.00  0.00    +0.000 A 
ENDBRANCH  11  12
ENDBRANCH   4  11
TORSDOF 4
ENDMDL
MODEL 8
REMARK VINA RESULT:    -5.208      3.772      7.409
REMARK INTER + INTRA:          -6.786
REMARK INTER:                  -6.342
REMARK INTRA:                  -0.444
REMARK UNBOUND:                -0.512
REMARK  Name = 
REMARK  4 active torsions:
REMARK  status: ('A' for Active; 'I' for Inactive)
REMARK    1  A    between atoms: N_1  and  C_2
REMARK    2  A    between atoms: C_2  and  C_3
REMARK    3  A    between atoms: C_6  and  C_7
REMARK    4  A    between atoms: C_7  and  N_8
REMARK                            x       y       z     vdW  Elec       q    Type
REMARK                         _______ _______ _______ _____ _____    ______ ____
ROOT
ATOM      1  C   UNL     1      48.155   4.957  17.623  0.00  0.00    +0.000 A 
ATOM      2  C   UNL     1      47.407   4.046  16.863  0.00  0.00    +0.000 A 
ATOM      3  C   UNL     1      47.237   4.231  15.489  0.00  0.00    +0.000 A 
ATOM      4  C   UNL     1      47.815   5.331  14.840  0.00  0.00    +0.000 A 
ATOM      5  C   UNL     1      48.547   6.252  15.603  0.00  0.00    +0.000 A 
ATOM      6  C   UNL     1      48.716   6.066  16.978  0.00  0.00    +0.000 A 
ENDROOT
BRANCH   1   7
ATOM      7  C   UNL     1      48.340   4.747  19.104  0.00  0.00    +0.000 C 
BRANCH   7   8
ATOM      8  N   UNL     1      48.321   3.330  19.450  0.00  0.00    +0.000 NA
ATOM      9  H   UNL     1      49.026   2.843  18.900  0.00  0.00    +0.000 HD
ATOM     10  H   UNL     1      47.421   2.939  19.174  0.00  0.00    +0.000 HD
ENDBRANCH   7   8
ENDBRANCH   1   7
BRANCH   4  11
ATOM     11  C   UNL     1      47.669   5.512  13.352  0.00  0.00    +0.000 C 
BRANCH  11  12
ATOM     12  N   UNL     1      46.319   5.882  12.968  0.00  0.00    +0.000 N 
ATOM     13  C   UNL     1      45.863   7.168  12.845  0.00  0.00    +0.000 A 
ATOM     14  N   UNL     1      44.642   7.213  12.362  0.00  0.00    +0.000 NA
ATOM     15  C   UNL     1      44.298   5.905  12.157  0.00  0.00    +0.000 A 
ATOM     16  N   UNL     1      43.124   5.485  11.638  0.00  0.00    +0.000 NA
ATOM     17  C   UNL     1      43.019   4.148  11.507  0.00  0.00    +0.000 A 
ATOM     18  C   UNL     1      43.993   3.219  11.855  0.00  0.00    +0.000 A 
ATOM     19  C   UNL     1      45.203   3.660  12.388  0.00  0.00    +0.000 A 
ATOM     20  C   UNL     1      45.328   5.042  12.525  0.00  0.00    +0.000 A 
ENDBRANCH  11  12
ENDBRANCH   4  11
TORSDOF 4
ENDMDL
MODEL 9
REMARK VINA RESULT:    -5.178      3.778      6.128
REMARK INTER + INTRA:          -6.750
REMARK INTER:                  -6.425
REMARK INTRA:                  -0.325
REMARK UNBOUND:                -0.512
REMARK  Name = 
REMARK  4 active torsions:
REMARK  status: ('A' for Active; 'I' for Inactive)
REMARK    1  A    between atoms: N_1  and  C_2
REMARK    2  A    between atoms: C_2  and  C_3
REMARK    3  A    between atoms: C_6  and  C_7
REMARK    4  A    between atoms: C_7  and  N_8
REMARK                            x       y       z     vdW  Elec       q    Type
REMARK                         _______ _______ _______ _____ _____    ______ ____
ROOT
ATOM      1  C   UNL     1      50.476   8.507  12.496  0.00  0.00    +0.000 A 
ATOM      2  C   UNL     1      49.783   7.875  11.454  0.00  0.00    +0.000 A 
ATOM      3  C   UNL     1      48.437   7.529  11.596  0.00  0.00    +0.000 A 
ATOM      4  C   UNL     1      47.751   7.810  12.785  0.00  0.00    +0.000 A 
ATOM      5  C   UNL     1      48.448   8.425  13.835  0.00  0.00    +0.000 A 
ATOM      6  C   UNL     1      49.795   8.771  13.691  0.00  0.00    +0.000 A 
ENDROOT
BRANCH   1   7
ATOM      7  C   UNL     1      51.926   8.885  12.333  0.00  0.00    +0.000 C 
BRANCH   7   8
ATOM      8  N   UNL     1      52.734   7.741  11.924  0.00  0.00    +0.000 NA
ATOM      9  H   UNL     1      52.931   7.164  12.740  0.00  0.00    +0.000 HD
ATOM     10  H   UNL     1      53.635   8.081  11.588  0.00  0.00    +0.000 HD
ENDBRANCH   7   8
ENDBRANCH   1   7
BRANCH   4  11
ATOM     11  C   UNL     1      46.289   7.476  12.928  0.00  0.00    +0.000 C 
BRANCH  11  12
ATOM     12  N   UNL     1      46.050   6.046  12.988  0.00  0.00    +0.000 N 
ATOM     13  C   UNL     1      46.754   5.165  13.767  0.00  0.00    +0.000 A 
ATOM     14  N   UNL     1      46.245   3.955  13.723  0.00  0.00    +0.000 NA
ATOM     15  C   UNL     1      45.165   4.058  12.890  0.00  0.00    +0.000 A 
ATOM     16  N   UNL     1      44.326   3.046  12.580  0.00  0.00    +0.000 NA
ATOM     17  C   UNL     1      43.317   3.392  11.755  0.00  0.00    +0.000 A 
ATOM     18  C   UNL     1      43.097   4.660  11.228  0.00  0.00    +0.000 A 
ATOM     19  C   UNL     1      43.966   5.699  11.555  0.00  0.00    +0.000 A 
ATOM     20  C   UNL     1      45.013   5.358  12.411  0.00  0.00    +0.000 A 
ENDBRANCH  11  12
ENDBRANCH   4  11
TORSDOF 4
ENDMDL
