MODEL 1
REMARK VINA RESULT:    -8.672      0.000      0.000
REMARK INTER + INTRA:         -13.319
REMARK INTER:                 -12.220
REMARK INTRA:                  -1.099
REMARK UNBOUND:                -1.099
REMARK  Name = 
REMARK  8 active torsions:
REMARK  status: ('A' for Active; 'I' for Inactive)
REMARK    1  A    between atoms: C_1  and  O_2
REMARK    2  A    between atoms: O_2  and  C_3
REMARK    3  A    between atoms: C_10  and  C_11
REMARK    4  A    between atoms: N_13  and  C_14
REMARK    5  A    between atoms: C_14  and  C_15
REMARK    6  A    between atoms: N_19  and  C_20
REMARK    7  A    between atoms: C_20  and  C_21
REMARK    8  A    between atoms: C_21  and  C_22
REMARK                            x       y       z     vdW  Elec       q    Type
REMARK                         _______ _______ _______ _____ _____    ______ ____
ROOT
ATOM      1  C   UNL     1      46.781   6.286  12.758  0.00  0.00    +0.000 A 
ATOM      2  C   UNL     1      46.690   5.136  13.544  0.00  0.00    +0.000 A 
ATOM      3  C   UNL     1      45.953   4.027  13.094  0.00  0.00    +0.000 A 
ATOM      4  C   UNL     1      45.399   4.021  11.813  0.00  0.00    +0.000 A 
ATOM      5  N   UNL     1      44.607   2.923  11.414  0.00  0.00    +0.000 N 
ATOM      6  N   UNL     1      45.548   5.096  11.013  0.00  0.00    +0.000 NA
ATOM      7  C   UNL     1      46.219   6.186  11.490  0.00  0.00    +0.000 A 
ATOM      8  H   UNL     1      45.012   2.038  11.701  0.00  0.00    +0.000 HD
ENDROOT
BRANCH   1   9
ATOM      9  C   UNL     1      47.399   7.565  13.271  0.00  0.00    +0.000 C 
BRANCH   9  12
ATOM     10  C   UNL     1      48.850   7.257  15.277  0.00  0.00    +0.000 C 
ATOM     11  O   UNL     1      49.838   6.965  14.591  0.00  0.00    +0.000 OA
ATOM     12  N   UNL     1      47.644   7.563  14.689  0.00  0.00    +0.000 N 
ATOM     13  H   UNL     1      46.886   7.880  15.285  0.00  0.00    +0.000 HD
BRANCH  10  21
ATOM     14  C   UNL     1      48.791   4.811  17.693  0.00  0.00    +0.000 A 
ATOM     15  N   UNL     1      48.883   4.048  18.800  0.00  0.00    +0.000 NA
ATOM     16  C   UNL     1      49.081   4.663  19.968  0.00  0.00    +0.000 A 
ATOM     17  N   UNL     1      49.174   5.978  20.170  0.00  0.00    +0.000 NA
ATOM     18  C   UNL     1      49.081   6.692  19.037  0.00  0.00    +0.000 A 
ATOM     19  S   UNL     1      49.156   8.391  19.099  0.00  0.00    +0.000 S 
ATOM     20  C   UNL     1      48.993   8.513  17.412  0.00  0.00    +0.000 A 
ATOM     21  C   UNL     1      48.911   7.285  16.752  0.00  0.00    +0.000 A 
ATOM     22  C   UNL     1      48.913   6.205  17.746  0.00  0.00    +0.000 A 
BRANCH  14  24
ATOM     23  C   UNL     1      48.029   2.876  16.632  0.00  0.00    +0.000 C 
ATOM     24  O   UNL     1      48.587   4.178  16.487  0.00  0.00    +0.000 OA
ENDBRANCH  14  24
ENDBRANCH  10  21
ENDBRANCH   9  12
ENDBRANCH   1   9
BRANCH   5  25
ATOM     25  C   UNL     1      44.112   2.977  10.024  0.00  0.00    +0.000 C 
BRANCH  25  26
ATOM     26  C   UNL     1      44.600   1.787   9.171  0.00  0.00    +0.000 C 
BRANCH  26  27
ATOM     27  C   UNL     1      45.737   2.160   8.231  0.00  0.00    +0.000 A 
ATOM     28  C   UNL     1      45.967   3.489   7.829  0.00  0.00    +0.000 A 
ATOM     29  C   UNL     1      47.022   3.790   6.952  0.00  0.00    +0.000 A 
ATOM     30  C   UNL     1      47.851   2.782   6.460  0.00  0.00    +0.000 A 
ATOM     31  C   UNL     1      47.631   1.468   6.856  0.00  0.00    +0.000 A 
ATOM     32  C   UNL     1      46.585   1.172   7.731  0.00  0.00    +0.000 A 
ATOM     33  F   UNL     1      46.394  -0.103   8.088  0.00  0.00    +0.000 F 
ENDBRANCH  26  27
ENDBRANCH  25  26
ENDBRANCH   5  25
TORSDOF 7
ENDMDL
MODEL 2
REMARK VINA RESULT:    -8.445      1.173      1.556
REMARK INTER + INTRA:         -13.000
REMARK INTER:                 -12.153
REMARK INTRA:                  -0.847
REMARK UNBOUND:                -1.099
REMARK  Name = 
REMARK  8 active torsions:
REMARK  status: ('A' for Active; 'I' for Inactive)
REMARK    1  A    between atoms: C_1  and  O_2
REMARK    2  A    between atoms: O_2  and  C_3
REMARK    3  A    between atoms: C_10  and  C_11
REMARK    4  A    between atoms: N_13  and  C_14
REMARK    5  A    between atoms: C_14  and  C_15
REMARK    6  A    between atoms: N_19  and  C_20
REMARK    7  A    between atoms: C_20  and  C_21
REMARK    8  A    between atoms: C_21  and  C_22
REMARK                            x       y       z     vdW  Elec       q    Type
REMARK                         _______ _______ _______ _____ _____    ______ ____
ROOT
ATOM      1  C   UNL     1      46.736   7.601  12.827  0.00  0.00    +0.000 A 
ATOM      2  C   UNL     1      45.446   8.097  12.632  0.00  0.00    +0.000 A 
ATOM      3  C   UNL     1      44.532   7.397  11.824  0.00  0.00    +0.000 A 
ATOM      4  C   UNL     1      44.866   6.148  11.301  0.00  0.00    +0.000 A 
ATOM      5  N   UNL     1      43.956   5.500  10.438  0.00  0.00    +0.000 N 
ATOM      6  N   UNL     1      46.083   5.621  11.548  0.00  0.00    +0.000 NA
ATOM      7  C   UNL     1      46.977   6.342  12.288  0.00  0.00    +0.000 A 
ATOM      8  H   UNL     1      43.000   5.574  10.769  0.00  0.00    +0.000 HD
ENDROOT
BRANCH   1   9
ATOM      9  C   UNL     1      47.808   8.400  13.526  0.00  0.00    +0.000 C 
BRANCH   9  12
ATOM     10  C   UNL     1      48.891   7.351  15.514  0.00  0.00    +0.000 C 
ATOM     11  O   UNL     1      49.784   6.835  14.830  0.00  0.00    +0.000 OA
ATOM     12  N   UNL     1      47.911   8.124  14.936  0.00  0.00    +0.000 N 
ATOM     13  H   UNL     1      47.251   8.597  15.544  0.00  0.00    +0.000 HD
BRANCH  10  21
ATOM     14  C   UNL     1      48.616   4.574  17.523  0.00  0.00    +0.000 A 
ATOM     15  N   UNL     1      48.610   3.653  18.507  0.00  0.00    +0.000 NA
ATOM     16  C   UNL     1      48.710   4.084  19.766  0.00  0.00    +0.000 A 
ATOM     17  N   UNL     1      48.790   5.352  20.170  0.00  0.00    +0.000 NA
ATOM     18  C   UNL     1      48.798   6.228  19.153  0.00  0.00    +0.000 A 
ATOM     19  S   UNL     1      48.874   7.897  19.475  0.00  0.00    +0.000 S 
ATOM     20  C   UNL     1      48.856   8.272  17.818  0.00  0.00    +0.000 A 
ATOM     21  C   UNL     1      48.826   7.157  16.976  0.00  0.00    +0.000 A 
ATOM     22  C   UNL     1      48.739   5.942  17.794  0.00  0.00    +0.000 A 
BRANCH  14  24
ATOM     23  C   UNL     1      47.167   4.050  15.768  0.00  0.00    +0.000 C 
ATOM     24  O   UNL     1      48.514   4.130  16.224  0.00  0.00    +0.000 OA
ENDBRANCH  14  24
ENDBRANCH  10  21
ENDBRANCH   9  12
ENDBRANCH   1   9
BRANCH   5  25
ATOM     25  C   UNL     1      44.369   4.158   9.981  0.00  0.00    +0.000 C 
BRANCH  25  26
ATOM     26  C   UNL     1      44.480   4.060   8.445  0.00  0.00    +0.000 C 
BRANCH  26  27
ATOM     27  C   UNL     1      45.578   3.110   7.990  0.00  0.00    +0.000 A 
ATOM     28  C   UNL     1      46.643   3.536   7.174  0.00  0.00    +0.000 A 
ATOM     29  C   UNL     1      47.631   2.625   6.768  0.00  0.00    +0.000 A 
ATOM     30  C   UNL     1      47.572   1.288   7.157  0.00  0.00    +0.000 A 
ATOM     31  C   UNL     1      46.525   0.861   7.966  0.00  0.00    +0.000 A 
ATOM     32  C   UNL     1      45.546   1.768   8.372  0.00  0.00    +0.000 A 
ATOM     33  F   UNL     1      44.547   1.326   9.144  0.00  0.00    +0.000 F 
ENDBRANCH  26  27
ENDBRANCH  25  26
ENDBRANCH   5  25
TORSDOF 7
ENDMDL
MODEL 3
REMARK VINA RESULT:    -7.850      1.744      2.388
REMARK INTER + INTRA:         -12.162
REMARK INTER:                 -11.113
REMARK INTRA:                  -1.049
REMARK UNBOUND:                -1.099
REMARK  Name = 
REMARK  8 active torsions:
REMARK  status: ('A' for Active; 'I' for Inactive)
REMARK    1  A    between atoms: C_1  and  O_2
REMARK    2  A    between atoms: O_2  and  C_3
REMARK    3  A    between atoms: C_10  and  C_11
REMARK    4  A    between atoms: N_13  and  C_14
REMARK    5  A    between atoms: C_14  and  C_15
REMARK    6  A    between atoms: N_19  and  C_20
REMARK    7  A    between atoms: C_20  and  C_21
REMARK    8  A    between atoms: C_21  and  C_22
REMARK                            x       y       z     vdW  Elec       q    Type
REMARK                         _______ _______ _______ _____ _____    ______ ____
ROOT
ATOM      1  C   UNL     1      47.105   7.731  13.316  0.00  0.00    +0.000 A 
ATOM      2  C   UNL     1      45.997   8.408  12.804  0.00  0.00    +0.000 A 
ATOM      3  C   UNL     1      45.179   7.798  11.836  0.00  0.00    +0.000 A 
ATOM      4  C   UNL     1      45.400   6.473  11.460  0.00  0.00    +0.000 A 
ATOM      5  N   UNL     1      44.607   5.909  10.436  0.00  0.00    +0.000 N 
ATOM      6  N   UNL     1      46.421   5.782  12.006  0.00  0.00    +0.000 NA
ATOM      7  C   UNL     1      47.238   6.409  12.903  0.00  0.00    +0.000 A 
ATOM      8  H   UNL     1      43.629   6.162  10.532  0.00  0.00    +0.000 HD
ENDROOT
BRANCH   1   9
ATOM      9  C   UNL     1      48.116   8.404  14.212  0.00  0.00    +0.000 C 
BRANCH   9  12
ATOM     10  C   UNL     1      48.334   8.324  16.696  0.00  0.00    +0.000 C 
ATOM     11  O   UNL     1      48.129   9.539  16.813  0.00  0.00    +0.000 OA
ATOM     12  N   UNL     1      48.332   7.720  15.460  0.00  0.00    +0.000 N 
ATOM     13  H   UNL     1      48.418   6.709  15.419  0.00  0.00    +0.000 HD
BRANCH  10  21
ATOM     14  C   UNL     1      50.688   5.915  17.386  0.00  0.00    +0.000 A 
ATOM     15  N   UNL     1      51.545   5.023  17.921  0.00  0.00    +0.000 NA
ATOM     16  C   UNL     1      51.356   4.660  19.192  0.00  0.00    +0.000 A 
ATOM     17  N   UNL     1      50.379   5.071  20.001  0.00  0.00    +0.000 NA
ATOM     18  C   UNL     1      49.557   5.962  19.423  0.00  0.00    +0.000 A 
ATOM     19  S   UNL     1      48.235   6.584  20.295  0.00  0.00    +0.000 S 
ATOM     20  C   UNL     1      47.760   7.555  18.984  0.00  0.00    +0.000 A 
ATOM     21  C   UNL     1      48.595   7.466  17.869  0.00  0.00    +0.000 A 
ATOM     22  C   UNL     1      49.638   6.467  18.130  0.00  0.00    +0.000 A 
BRANCH  14  24
ATOM     23  C   UNL     1      51.988   7.172  15.909  0.00  0.00    +0.000 C 
ATOM     24  O   UNL     1      50.882   6.290  16.076  0.00  0.00    +0.000 OA
ENDBRANCH  14  24
ENDBRANCH  10  21
ENDBRANCH   9  12
ENDBRANCH   1   9
BRANCH   5  25
ATOM     25  C   UNL     1      44.873   4.487  10.146  0.00  0.00    +0.000 C 
BRANCH  25  26
ATOM     26  C   UNL     1      44.608   4.120   8.671  0.00  0.00    +0.000 C 
BRANCH  26  27
ATOM     27  C   UNL     1      45.681   3.216   8.083  0.00  0.00    +0.000 A 
ATOM     28  C   UNL     1      46.695   3.710   7.241  0.00  0.00    +0.000 A 
ATOM     29  C   UNL     1      47.662   2.839   6.712  0.00  0.00    +0.000 A 
ATOM     30  C   UNL     1      47.631   1.476   7.003  0.00  0.00    +0.000 A 
ATOM     31  C   UNL     1      46.635   0.983   7.838  0.00  0.00    +0.000 A 
ATOM     32  C   UNL     1      45.678   1.849   8.366  0.00  0.00    +0.000 A 
ATOM     33  F   UNL     1      44.727   1.343   9.160  0.00  0.00    +0.000 F 
ENDBRANCH  26  27
ENDBRANCH  25  26
ENDBRANCH   5  25
TORSDOF 7
ENDMDL
MODEL 4
REMARK VINA RESULT:    -7.818      1.552      3.064
REMARK INTER + INTRA:         -12.116
REMARK INTER:                 -11.151
REMARK INTRA:                  -0.965
REMARK UNBOUND:                -1.099
REMARK  Name = 
REMARK  8 active torsions:
REMARK  status: ('A' for Active; 'I' for Inactive)
REMARK    1  A    between atoms: C_1  and  O_2
REMARK    2  A    between atoms: O_2  and  C_3
REMARK    3  A    between atoms: C_10  and  C_11
REMARK    4  A    between atoms: N_13  and  C_14
REMARK    5  A    between atoms: C_14  and  C_15
REMARK    6  A    between atoms: N_19  and  C_20
REMARK    7  A    between atoms: C_20  and  C_21
REMARK    8  A    between atoms: C_21  and  C_22
REMARK                            x       y       z     vdW  Elec       q    Type
REMARK                         _______ _______ _______ _____ _____    ______ ____
ROOT
ATOM      1  C   UNL     1      46.605   4.420  14.036  0.00  0.00    +0.000 A 
ATOM      2  C   UNL     1      46.507   5.724  13.548  0.00  0.00    +0.000 A 
ATOM      3  C   UNL     1      45.921   5.969  12.294  0.00  0.00    +0.000 A 
ATOM      4  C   UNL     1      45.332   4.928  11.576  0.00  0.00    +0.000 A 
ATOM      5  N   UNL     1      44.812   5.191  10.289  0.00  0.00    +0.000 N 
ATOM      6  N   UNL     1      45.349   3.676  12.074  0.00  0.00    +0.000 NA
ATOM      7  C   UNL     1      45.973   3.448  13.268  0.00  0.00    +0.000 A 
ATOM      8  H   UNL     1      44.300   6.066  10.258  0.00  0.00    +0.000 HD
ENDROOT
BRANCH   1   9
ATOM      9  C   UNL     1      47.387   4.084  15.283  0.00  0.00    +0.000 C 
BRANCH   9  12
ATOM     10  C   UNL     1      48.834   5.351  16.872  0.00  0.00    +0.000 C 
ATOM     11  O   UNL     1      49.683   4.451  16.910  0.00  0.00    +0.000 OA
ATOM     12  N   UNL     1      47.705   5.229  16.096  0.00  0.00    +0.000 N 
ATOM     13  H   UNL     1      47.080   6.026  16.028  0.00  0.00    +0.000 HD
BRANCH  10  21
ATOM     14  C   UNL     1      48.751   8.691  16.060  0.00  0.00    +0.000 A 
ATOM     15  N   UNL     1      48.666  10.035  16.013  0.00  0.00    +0.000 NA
ATOM     16  C   UNL     1      48.755  10.708  17.163  0.00  0.00    +0.000 A 
ATOM     17  N   UNL     1      48.948  10.190  18.375  0.00  0.00    +0.000 NA
ATOM     18  C   UNL     1      49.019   8.849  18.369  0.00  0.00    +0.000 A 
ATOM     19  S   UNL     1      49.285   8.009  19.825  0.00  0.00    +0.000 S 
ATOM     20  C   UNL     1      49.233   6.508  19.030  0.00  0.00    +0.000 A 
ATOM     21  C   UNL     1      48.984   6.591  17.659  0.00  0.00    +0.000 A 
ATOM     22  C   UNL     1      48.910   8.005  17.270  0.00  0.00    +0.000 A 
BRANCH  14  24
ATOM     23  C   UNL     1      49.924   7.779  14.259  0.00  0.00    +0.000 C 
ATOM     24  O   UNL     1      48.659   7.996  14.875  0.00  0.00    +0.000 OA
ENDBRANCH  14  24
ENDBRANCH  10  21
ENDBRANCH   9  12
ENDBRANCH   1   9
BRANCH   5  25
ATOM     25  C   UNL     1      44.157   4.045   9.630  0.00  0.00    +0.000 C 
BRANCH  25  26
ATOM     26  C   UNL     1      44.426   3.997   8.111  0.00  0.00    +0.000 C 
BRANCH  26  27
ATOM     27  C   UNL     1      45.592   3.091   7.744  0.00  0.00    +0.000 A 
ATOM     28  C   UNL     1      46.656   3.534   6.937  0.00  0.00    +0.000 A 
ATOM     29  C   UNL     1      47.710   2.663   6.614  0.00  0.00    +0.000 A 
ATOM     30  C   UNL     1      47.715   1.348   7.077  0.00  0.00    +0.000 A 
ATOM     31  C   UNL     1      46.668   0.905   7.877  0.00  0.00    +0.000 A 
ATOM     32  C   UNL     1      45.626   1.773   8.201  0.00  0.00    +0.000 A 
ATOM     33  F   UNL     1      44.629   1.315   8.966  0.00  0.00    +0.000 F 
ENDBRANCH  26  27
ENDBRANCH  25  26
ENDBRANCH   5  25
TORSDOF 7
ENDMDL
MODEL 5
REMARK VINA RESULT:    -7.636      2.196      2.838
REMARK INTER + INTRA:         -11.860
REMARK INTER:                 -10.811
REMARK INTRA:                  -1.048
REMARK UNBOUND:                -1.099
REMARK  Name = 
REMARK  8 active torsions:
REMARK  status: ('A' for Active; 'I' for Inactive)
REMARK    1  A    between atoms: C_1  and  O_2
REMARK    2  A    between atoms: O_2  and  C_3
REMARK    3  A    between atoms: C_10  and  C_11
REMARK    4  A    between atoms: N_13  and  C_14
REMARK    5  A    between atoms: C_14  and  C_15
REMARK    6  A    between atoms: N_19  and  C_20
REMARK    7  A    between atoms: C_20  and  C_21
REMARK    8  A    between atoms: C_21  and  C_22
REMARK                            x       y       z     vdW  Elec       q    Type
REMARK                         _______ _______ _______ _____ _____    ______ ____
ROOT
ATOM      1  C   UNL     1      47.595   7.475  13.794  0.00  0.00    +0.000 A 
ATOM      2  C   UNL     1      46.561   8.224  13.229  0.00  0.00    +0.000 A 
ATOM      3  C   UNL     1      45.657   7.622  12.335  0.00  0.00    +0.000 A 
ATOM      4  C   UNL     1      45.715   6.249  12.092  0.00  0.00    +0.000 A 
ATOM      5  N   UNL     1      44.840   5.684  11.139  0.00  0.00    +0.000 N 
ATOM      6  N   UNL     1      46.661   5.500  12.694  0.00  0.00    +0.000 NA
ATOM      7  C   UNL     1      47.565   6.113  13.515  0.00  0.00    +0.000 A 
ATOM      8  H   UNL     1      43.900   6.058  11.218  0.00  0.00    +0.000 HD
ENDROOT
BRANCH   1   9
ATOM      9  C   UNL     1      48.697   8.111  14.607  0.00  0.00    +0.000 C 
BRANCH   9  12
ATOM     10  C   UNL     1      49.425   6.812  16.609  0.00  0.00    +0.000 C 
ATOM     11  O   UNL     1      48.544   7.307  17.324  0.00  0.00    +0.000 OA
ATOM     12  N   UNL     1      49.541   7.160  15.283  0.00  0.00    +0.000 N 
ATOM     13  H   UNL     1      50.220   6.666  14.714  0.00  0.00    +0.000 HD
BRANCH  10  21
ATOM     14  C   UNL     1      49.475   3.377  16.763  0.00  0.00    +0.000 A 
ATOM     15  N   UNL     1      49.769   2.065  16.854  0.00  0.00    +0.000 NA
ATOM     16  C   UNL     1      50.961   1.725  17.349  0.00  0.00    +0.000 A 
ATOM     17  N   UNL     1      51.904   2.554  17.797  0.00  0.00    +0.000 NA
ATOM     18  C   UNL     1      51.565   3.848  17.680  0.00  0.00    +0.000 A 
ATOM     19  S   UNL     1      52.635   5.055  18.220  0.00  0.00    +0.000 S 
ATOM     20  C   UNL     1      51.568   6.289  17.745  0.00  0.00    +0.000 A 
ATOM     21  C   UNL     1      50.395   5.833  17.140  0.00  0.00    +0.000 A 
ATOM     22  C   UNL     1      50.386   4.365  17.155  0.00  0.00    +0.000 A 
BRANCH  14  24
ATOM     23  C   UNL     1      47.170   3.420  17.133  0.00  0.00    +0.000 C 
ATOM     24  O   UNL     1      48.246   3.729  16.253  0.00  0.00    +0.000 OA
ENDBRANCH  14  24
ENDBRANCH  10  21
ENDBRANCH   9  12
ENDBRANCH   1   9
BRANCH   5  25
ATOM     25  C   UNL     1      44.933   4.219  10.990  0.00  0.00    +0.000 C 
BRANCH  25  26
ATOM     26  C   UNL     1      44.323   3.714   9.666  0.00  0.00    +0.000 C 
BRANCH  26  27
ATOM     27  C   UNL     1      45.346   3.044   8.760  0.00  0.00    +0.000 A 
ATOM     28  C   UNL     1      45.483   1.645   8.696  0.00  0.00    +0.000 A 
ATOM     29  C   UNL     1      46.446   1.066   7.853  0.00  0.00    +0.000 A 
ATOM     30  C   UNL     1      47.284   1.863   7.074  0.00  0.00    +0.000 A 
ATOM     31  C   UNL     1      47.150   3.246   7.130  0.00  0.00    +0.000 A 
ATOM     32  C   UNL     1      46.191   3.819   7.964  0.00  0.00    +0.000 A 
ATOM     33  F   UNL     1      46.091   5.152   8.001  0.00  0.00    +0.000 F 
ENDBRANCH  26  27
ENDBRANCH  25  26
ENDBRANCH   5  25
TORSDOF 7
ENDMDL
MODEL 6
REMARK VINA RESULT:    -7.324      3.440      5.118
REMARK INTER + INTRA:         -11.421
REMARK INTER:                 -10.208
REMARK INTRA:                  -1.212
REMARK UNBOUND:                -1.099
REMARK  Name = 
REMARK  8 active torsions:
REMARK  status: ('A' for Active; 'I' for Inactive)
REMARK    1  A    between atoms: C_1  and  O_2
REMARK    2  A    between atoms: O_2  and  C_3
REMARK    3  A    between atoms: C_10  and  C_11
REMARK    4  A    between atoms: N_13  and  C_14
REMARK    5  A    between atoms: C_14  and  C_15
REMARK    6  A    between atoms: N_19  and  C_20
REMARK    7  A    between atoms: C_20  and  C_21
REMARK    8  A    between atoms: C_21  and  C_22
REMARK                            x       y       z     vdW  Elec       q    Type
REMARK                         _______ _______ _______ _____ _____    ______ ____
ROOT
ATOM      1  C   UNL     1      47.558   6.490  13.791  0.00  0.00    +0.000 A 
ATOM      2  C   UNL     1      47.135   7.553  12.991  0.00  0.00    +0.000 A 
ATOM      3  C   UNL     1      46.337   7.314  11.859  0.00  0.00    +0.000 A 
ATOM      4  C   UNL     1      45.867   6.028  11.586  0.00  0.00    +0.000 A 
ATOM      5  N   UNL     1      45.124   5.805  10.406  0.00  0.00    +0.000 N 
ATOM      6  N   UNL     1      46.203   5.005  12.397  0.00  0.00    +0.000 NA
ATOM      7  C   UNL     1      47.027   5.248  13.460  0.00  0.00    +0.000 A 
ATOM      8  H   UNL     1      44.450   6.544  10.237  0.00  0.00    +0.000 HD
ENDROOT
BRANCH   1   9
ATOM      9  C   UNL     1      48.564   6.670  14.902  0.00  0.00    +0.000 C 
BRANCH   9  12
ATOM     10  C   UNL     1      50.592   8.120  14.800  0.00  0.00    +0.000 C 
ATOM     11  O   UNL     1      50.111   8.948  15.585  0.00  0.00    +0.000 OA
ATOM     12  N   UNL     1      49.888   6.994  14.440  0.00  0.00    +0.000 N 
ATOM     13  H   UNL     1      50.354   6.301  13.863  0.00  0.00    +0.000 HD
BRANCH  10  21
ATOM     14  C   UNL     1      51.706   8.680  11.596  0.00  0.00    +0.000 A 
ATOM     15  N   UNL     1      52.372   8.993  10.467  0.00  0.00    +0.000 NA
ATOM     16  C   UNL     1      53.691   9.181  10.552  0.00  0.00    +0.000 A 
ATOM     17  N   UNL     1      54.444   9.067  11.646  0.00  0.00    +0.000 NA
ATOM     18  C   UNL     1      53.733   8.760  12.743  0.00  0.00    +0.000 A 
ATOM     19  S   UNL     1      54.526   8.551  14.234  0.00  0.00    +0.000 S 
ATOM     20  C   UNL     1      53.060   8.228  15.029  0.00  0.00    +0.000 A 
ATOM     21  C   UNL     1      51.932   8.300  14.208  0.00  0.00    +0.000 A 
ATOM     22  C   UNL     1      52.359   8.569  12.830  0.00  0.00    +0.000 A 
BRANCH  14  24
ATOM     23  C   UNL     1      49.608   9.703  11.562  0.00  0.00    +0.000 C 
ATOM     24  O   UNL     1      50.346   8.486  11.510  0.00  0.00    +0.000 OA
ENDBRANCH  14  24
ENDBRANCH  10  21
ENDBRANCH   9  12
ENDBRANCH   1   9
BRANCH   5  25
ATOM     25  C   UNL     1      44.620   4.429  10.231  0.00  0.00    +0.000 C 
BRANCH  25  26
ATOM     26  C   UNL     1      44.393   4.061   8.750  0.00  0.00    +0.000 C 
BRANCH  26  27
ATOM     27  C   UNL     1      45.509   3.202   8.175  0.00  0.00    +0.000 A 
ATOM     28  C   UNL     1      46.543   3.747   7.392  0.00  0.00    +0.000 A 
ATOM     29  C   UNL     1      47.550   2.917   6.872  0.00  0.00    +0.000 A 
ATOM     30  C   UNL     1      47.540   1.545   7.116  0.00  0.00    +0.000 A 
ATOM     31  C   UNL     1      46.523   1.000   7.892  0.00  0.00    +0.000 A 
ATOM     32  C   UNL     1      45.527   1.826   8.411  0.00  0.00    +0.000 A 
ATOM     33  F   UNL     1      44.558   1.272   9.149  0.00  0.00    +0.000 F 
ENDBRANCH  26  27
ENDBRANCH  25  26
ENDBRANCH   5  25
TORSDOF 7
ENDMDL
MODEL 7
REMARK VINA RESULT:    -7.220      1.917      2.674
REMARK INTER + INTRA:         -11.274
REMARK INTER:                 -10.502
REMARK INTRA:                  -0.772
REMARK UNBOUND:                -1.099
REMARK  Name = 
REMARK  8 active torsions:
REMARK  status: ('A' for Active; 'I' for Inactive)
REMARK    1  A    between atoms: C_1  and  O_2
REMARK    2  A    between atoms: O_2  and  C_3
REMARK    3  A    between atoms: C_10  and  C_11
REMARK    4  A    between atoms: N_13  and  C_14
REMARK    5  A    between atoms: C_14  and  C_15
REMARK    6  A    between atoms: N_19  and  C_20
REMARK    7  A    between atoms: C_20  and  C_21
REMARK    8  A    between atoms: C_21  and  C_22
REMARK                            x       y       z     vdW  Elec       q    Type
REMARK                         _______ _______ _______ _____ _____    ______ ____
ROOT
ATOM      1  C   UNL     1      46.757   4.770  14.151  0.00  0.00    +0.000 A 
ATOM      2  C   UNL     1      46.909   5.984  13.479  0.00  0.00    +0.000 A 
ATOM      3  C   UNL     1      46.402   6.141  12.177  0.00  0.00    +0.000 A 
ATOM      4  C   UNL     1      45.645   5.127  11.588  0.00  0.00    +0.000 A 
ATOM      5  N   UNL     1      45.207   5.285  10.255  0.00  0.00    +0.000 N 
ATOM      6  N   UNL     1      45.423   3.980  12.259  0.00  0.00    +0.000 NA
ATOM      7  C   UNL     1      45.972   3.824  13.501  0.00  0.00    +0.000 A 
ATOM      8  H   UNL     1      44.864   6.223  10.077  0.00  0.00    +0.000 HD
ENDROOT
BRANCH   1   9
ATOM      9  C   UNL     1      47.440   4.488  15.467  0.00  0.00    +0.000 C 
BRANCH   9  12
ATOM     10  C   UNL     1      48.261   5.921  17.337  0.00  0.00    +0.000 C 
ATOM     11  O   UNL     1      47.724   5.211  18.197  0.00  0.00    +0.000 OA
ATOM     12  N   UNL     1      48.162   5.614  16.000  0.00  0.00    +0.000 N 
ATOM     13  H   UNL     1      48.690   6.174  15.338  0.00  0.00    +0.000 HD
BRANCH  10  21
ATOM     14  C   UNL     1      51.181   6.441  19.078  0.00  0.00    +0.000 A 
ATOM     15  N   UNL     1      52.327   6.888  19.627  0.00  0.00    +0.000 NA
ATOM     16  C   UNL     1      52.592   8.194  19.543  0.00  0.00    +0.000 A 
ATOM     17  N   UNL     1      51.820   9.129  18.989  0.00  0.00    +0.000 NA
ATOM     18  C   UNL     1      50.695   8.632  18.452  0.00  0.00    +0.000 A 
ATOM     19  S   UNL     1      49.573   9.679  17.716  0.00  0.00    +0.000 S 
ATOM     20  C   UNL     1      48.544   8.386  17.321  0.00  0.00    +0.000 A 
ATOM     21  C   UNL     1      49.026   7.131  17.699  0.00  0.00    +0.000 A 
ATOM     22  C   UNL     1      50.292   7.302  18.422  0.00  0.00    +0.000 A 
BRANCH  14  24
ATOM     23  C   UNL     1      51.554   4.331  18.149  0.00  0.00    +0.000 C 
ATOM     24  O   UNL     1      50.907   5.094  19.163  0.00  0.00    +0.000 OA
ENDBRANCH  14  24
ENDBRANCH  10  21
ENDBRANCH   9  12
ENDBRANCH   1   9
BRANCH   5  25
ATOM     25  C   UNL     1      44.365   4.189   9.736  0.00  0.00    +0.000 C 
BRANCH  25  26
ATOM     26  C   UNL     1      44.487   4.017   8.207  0.00  0.00    +0.000 C 
BRANCH  26  27
ATOM     27  C   UNL     1      45.641   3.111   7.804  0.00  0.00    +0.000 A 
ATOM     28  C   UNL     1      46.707   3.570   7.008  0.00  0.00    +0.000 A 
ATOM     29  C   UNL     1      47.749   2.700   6.649  0.00  0.00    +0.000 A 
ATOM     30  C   UNL     1      47.743   1.370   7.068  0.00  0.00    +0.000 A 
ATOM     31  C   UNL     1      46.695   0.911   7.858  0.00  0.00    +0.000 A 
ATOM     32  C   UNL     1      45.664   1.778   8.216  0.00  0.00    +0.000 A 
ATOM     33  F   UNL     1      44.665   1.305   8.971  0.00  0.00    +0.000 F 
ENDBRANCH  26  27
ENDBRANCH  25  26
ENDBRANCH   5  25
TORSDOF 7
ENDMDL
MODEL 8
REMARK VINA RESULT:    -7.069      3.657      5.732
REMARK INTER + INTRA:         -11.060
REMARK INTER:                  -9.762
REMARK INTRA:                  -1.298
REMARK UNBOUND:                -1.099
REMARK  Name = 
REMARK  8 active torsions:
REMARK  status: ('A' for Active; 'I' for Inactive)
REMARK    1  A    between atoms: C_1  and  O_2
REMARK    2  A    between atoms: O_2  and  C_3
REMARK    3  A    between atoms: C_10  and  C_11
REMARK    4  A    between atoms: N_13  and  C_14
REMARK    5  A    between atoms: C_14  and  C_15
REMARK    6  A    between atoms: N_19  and  C_20
REMARK    7  A    between atoms: C_20  and  C_21
REMARK    8  A    between atoms: C_21  and  C_22
REMARK                            x       y       z     vdW  Elec       q    Type
REMARK                         _______ _______ _______ _____ _____    ______ ____
ROOT
ATOM      1  C   UNL     1      48.067   4.386  16.623  0.00  0.00    +0.000 A 
ATOM      2  C   UNL     1      48.485   5.708  16.777  0.00  0.00    +0.000 A 
ATOM      3  C   UNL     1      48.466   6.589  15.681  0.00  0.00    +0.000 A 
ATOM      4  C   UNL     1      47.926   6.184  14.460  0.00  0.00    +0.000 A 
ATOM      5  N   UNL     1      47.983   7.066  13.358  0.00  0.00    +0.000 N 
ATOM      6  N   UNL     1      47.446   4.932  14.321  0.00  0.00    +0.000 NA
ATOM      7  C   UNL     1      47.525   4.073  15.381  0.00  0.00    +0.000 A 
ATOM      8  H   UNL     1      47.756   8.018  13.623  0.00  0.00    +0.000 HD
ENDROOT
BRANCH   1   9
ATOM      9  C   UNL     1      48.242   3.354  17.712  0.00  0.00    +0.000 C 
BRANCH   9  12
ATOM     10  C   UNL     1      50.380   2.183  17.181  0.00  0.00    +0.000 C 
ATOM     11  O   UNL     1      49.914   1.674  16.153  0.00  0.00    +0.000 OA
ATOM     12  N   UNL     1      49.616   3.011  17.971  0.00  0.00    +0.000 N 
ATOM     13  H   UNL     1      50.063   3.474  18.755  0.00  0.00    +0.000 HD
BRANCH  10  21
ATOM     14  C   UNL     1      52.899   4.198  18.371  0.00  0.00    +0.000 A 
ATOM     15  N   UNL     1      53.990   4.750  18.938  0.00  0.00    +0.000 NA
ATOM     16  C   UNL     1      54.998   3.940  19.270  0.00  0.00    +0.000 A 
ATOM     17  N   UNL     1      55.059   2.623  19.078  0.00  0.00    +0.000 NA
ATOM     18  C   UNL     1      53.947   2.122  18.517  0.00  0.00    +0.000 A 
ATOM     19  S   UNL     1      53.847   0.458  18.174  0.00  0.00    +0.000 S 
ATOM     20  C   UNL     1      52.275   0.625  17.553  0.00  0.00    +0.000 A 
ATOM     21  C   UNL     1      51.767   1.925  17.614  0.00  0.00    +0.000 A 
ATOM     22  C   UNL     1      52.802   2.819  18.147  0.00  0.00    +0.000 A 
BRANCH  14  24
ATOM     23  C   UNL     1      52.157   5.861  16.911  0.00  0.00    +0.000 C 
ATOM     24  O   UNL     1      51.858   5.031  18.028  0.00  0.00    +0.000 OA
ENDBRANCH  14  24
ENDBRANCH  10  21
ENDBRANCH   9  12
ENDBRANCH   1   9
BRANCH   5  25
ATOM     25  C   UNL     1      47.336   6.575  12.126  0.00  0.00    +0.000 C 
BRANCH  25  26
ATOM     26  C   UNL     1      45.836   6.932  12.057  0.00  0.00    +0.000 C 
BRANCH  26  27
ATOM     27  C   UNL     1      44.945   5.713  11.869  0.00  0.00    +0.000 A 
ATOM     28  C   UNL     1      44.158   5.196  12.915  0.00  0.00    +0.000 A 
ATOM     29  C   UNL     1      43.355   4.063  12.702  0.00  0.00    +0.000 A 
ATOM     30  C   UNL     1      43.330   3.430  11.461  0.00  0.00    +0.000 A 
ATOM     31  C   UNL     1      44.102   3.938  10.423  0.00  0.00    +0.000 A 
ATOM     32  C   UNL     1      44.895   5.065  10.634  0.00  0.00    +0.000 A 
ATOM     33  F   UNL     1      45.633   5.527   9.617  0.00  0.00    +0.000 F 
ENDBRANCH  26  27
ENDBRANCH  25  26
ENDBRANCH   5  25
TORSDOF 7
ENDMDL
MODEL 9
REMARK VINA RESULT:    -7.041      5.290      9.404
REMARK INTER + INTRA:         -11.021
REMARK INTER:                 -10.295
REMARK INTRA:                  -0.726
REMARK UNBOUND:                -1.099
REMARK  Name = 
REMARK  8 active torsions:
REMARK  status: ('A' for Active; 'I' for Inactive)
REMARK    1  A    between atoms: C_1  and  O_2
REMARK    2  A    between atoms: O_2  and  C_3
REMARK    3  A    between atoms: C_10  and  C_11
REMARK    4  A    between atoms: N_13  and  C_14
REMARK    5  A    between atoms: C_14  and  C_15
REMARK    6  A    between atoms: N_19  and  C_20
REMARK    7  A    between atoms: C_20  and  C_21
REMARK    8  A    between atoms: C_21  and  C_22
REMARK                            x       y       z     vdW  Elec       q    Type
REMARK                         _______ _______ _______ _____ _____    ______ ____
ROOT
ATOM      1  C   UNL     1      48.644   3.297  17.086  0.00  0.00    +0.000 A 
ATOM      2  C   UNL     1      49.511   4.190  17.718  0.00  0.00    +0.000 A 
ATOM      3  C   UNL     1      50.839   3.817  17.987  0.00  0.00    +0.000 A 
ATOM      4  C   UNL     1      51.336   2.597  17.528  0.00  0.00    +0.000 A 
ATOM      5  N   UNL     1      52.652   2.219  17.872  0.00  0.00    +0.000 N 
ATOM      6  N   UNL     1      50.530   1.758  16.847  0.00  0.00    +0.000 NA
ATOM      7  C   UNL     1      49.226   2.114  16.644  0.00  0.00    +0.000 A 
ATOM      8  H   UNL     1      53.302   2.994  17.794  0.00  0.00    +0.000 HD
ENDROOT
BRANCH   1   9
ATOM      9  C   UNL     1      47.167   3.575  16.942  0.00  0.00    +0.000 C 
BRANCH   9  12
ATOM     10  C   UNL     1      46.889   4.264  14.561  0.00  0.00    +0.000 C 
ATOM     11  O   UNL     1      47.194   3.142  14.138  0.00  0.00    +0.000 OA
ATOM     12  N   UNL     1      46.853   4.529  15.911  0.00  0.00    +0.000 N 
ATOM     13  H   UNL     1      46.515   5.436  16.214  0.00  0.00    +0.000 HD
BRANCH  10  21
ATOM     14  C   UNL     1      44.184   4.942  12.549  0.00  0.00    +0.000 A 
ATOM     15  N   UNL     1      43.217   5.469  11.772  0.00  0.00    +0.000 NA
ATOM     16  C   UNL     1      43.426   6.680  11.251  0.00  0.00    +0.000 A 
ATOM     17  N   UNL     1      44.517   7.432  11.394  0.00  0.00    +0.000 NA
ATOM     18  C   UNL     1      45.446   6.865  12.181  0.00  0.00    +0.000 A 
ATOM     19  S   UNL     1      46.920   7.669  12.464  0.00  0.00    +0.000 S 
ATOM     20  C   UNL     1      47.473   6.414  13.467  0.00  0.00    +0.000 A 
ATOM     21  C   UNL     1      46.558   5.374  13.645  0.00  0.00    +0.000 A 
ATOM     22  C   UNL     1      45.369   5.636  12.825  0.00  0.00    +0.000 A 
BRANCH  14  24
ATOM     23  C   UNL     1      43.480   2.754  12.136  0.00  0.00    +0.000 C 
ATOM     24  O   UNL     1      43.970   3.693  13.088  0.00  0.00    +0.000 OA
ENDBRANCH  14  24
ENDBRANCH  10  21
ENDBRANCH   9  12
ENDBRANCH   1   9
BRANCH   5  25
ATOM     25  C   UNL     1      53.111   0.941  17.294  0.00  0.00    +0.000 C 
BRANCH  25  26
ATOM     26  C   UNL     1      54.413   0.427  17.942  0.00  0.00    +0.000 C 
BRANCH  26  27
ATOM     27  C   UNL     1      54.549  -1.087  17.880  0.00  0.00    +0.000 A 
ATOM     28  C   UNL     1      54.192  -1.914  18.962  0.00  0.00    +0.000 A 
ATOM     29  C   UNL     1      54.341  -3.307  18.868  0.00  0.00    +0.000 A 
ATOM     30  C   UNL     1      54.849  -3.893  17.709  0.00  0.00    +0.000 A 
ATOM     31  C   UNL     1      55.199  -3.083  16.635  0.00  0.00    +0.000 A 
ATOM     32  C   UNL     1      55.047  -1.700  16.729  0.00  0.00    +0.000 A 
ATOM     33  F   UNL     1      55.400  -0.946  15.682  0.00  0.00    +0.000 F 
ENDBRANCH  26  27
ENDBRANCH  25  26
ENDBRANCH   5  25
TORSDOF 7
ENDMDL
