MODEL 1
REMARK VINA RESULT:    -7.704      0.000      0.000
REMARK INTER + INTRA:         -12.906
REMARK INTER:                 -11.982
REMARK INTRA:                  -0.924
REMARK UNBOUND:                -0.924
REMARK  Name = 
REMARK  13 active torsions:
REMARK  status: ('A' for Active; 'I' for Inactive)
REMARK    1  A    between atoms: C_1  and  C_2
REMARK    2  A    between atoms: C_2  and  C_3
REMARK    3  A    between atoms: C_3  and  C_4
REMARK    4  A    between atoms: C_3  and  C_5
REMARK    5  A    between atoms: C_3  and  N_6
REMARK    6  A    between atoms: N_6  and  C_7
REMARK    7  A    between atoms: C_7  and  C_8
REMARK    8  A    between atoms: C_8  and  C_9
REMARK    9  A    between atoms: C_12  and  C_13
REMARK   10  A    between atoms: C_13  and  O_14
REMARK   11  A    between atoms: O_14  and  C_15
REMARK   12  A    between atoms: C_18  and  C_19
REMARK   13  A    between atoms: C_19  and  O_21
REMARK                            x       y       z     vdW  Elec       q    Type
REMARK                         _______ _______ _______ _____ _____    ______ ____
ROOT
ATOM      1  C   UNL     1      46.829   5.005  13.699  0.00  0.00    +0.000 A 
ATOM      2  C   UNL     1      46.793   3.629  13.588  0.00  0.00    +0.000 A 
ATOM      3  N   UNL     1      45.853   2.951  12.911  0.00  0.00    +0.000 NA
ATOM      4  C   UNL     1      44.885   3.690  12.338  0.00  0.00    +0.000 A 
ATOM      5  N   UNL     1      44.808   5.036  12.400  0.00  0.00    +0.000 NA
ATOM      6  C   UNL     1      45.785   5.661  13.081  0.00  0.00    +0.000 A 
ENDROOT
BRANCH   1   7
ATOM      7  C   UNL     1      47.881   5.760  14.456  0.00  0.00    +0.000 C 
BRANCH   7   8
ATOM      8  C   UNL     1      47.905   5.497  15.969  0.00  0.00    +0.000 C 
BRANCH   8   9
ATOM      9  N   UNL     1      49.025   4.637  16.363  0.00  0.00    +0.000 NA
ATOM     10  H   UNL     1      49.478   4.227  15.544  0.00  0.00    +0.000 HD
BRANCH   9  11
ATOM     11  C   UNL     1      48.696   3.565  17.321  0.00  0.00    +0.000 C 
ATOM     12  C   UNL     1      47.176   3.289  17.342  0.00  0.00    +0.000 C 
ATOM     13  C   UNL     1      49.173   3.943  18.733  0.00  0.00    +0.000 C 
BRANCH  11  15
ATOM     14  C   UNL     1      50.862   2.119  17.277  0.00  0.00    +0.000 C 
ATOM     15  C   UNL     1      49.403   2.260  16.851  0.00  0.00    +0.000 C 
ENDBRANCH  11  15
ENDBRANCH   9  11
ENDBRANCH   8   9
ENDBRANCH   7   8
ENDBRANCH   1   7
BRANCH   4  16
ATOM     16  C   UNL     1      43.805   2.953  11.593  0.00  0.00    +0.000 C 
BRANCH  16  17
ATOM     17  O   UNL     1      43.567   3.599  10.337  0.00  0.00    +0.000 OA
BRANCH  17  18
ATOM     18  C   UNL     1      44.518   3.265   9.404  0.00  0.00    +0.000 A 
ATOM     19  C   UNL     1      45.074   4.294   8.661  0.00  0.00    +0.000 A 
ATOM     20  C   UNL     1      46.063   3.978   7.737  0.00  0.00    +0.000 A 
ATOM     21  C   UNL     1      46.426   2.648   7.617  0.00  0.00    +0.000 A 
ATOM     22  N   UNL     1      45.859   1.651   8.349  0.00  0.00    +0.000 NA
ATOM     23  N   UNL     1      44.894   1.972   9.246  0.00  0.00    +0.000 NA
BRANCH  21  24
ATOM     24  C   UNL     1      47.486   2.215   6.674  0.00  0.00    +0.000 C 
ATOM     25  O   UNL     1      48.240   1.279   6.891  0.00  0.00    +0.000 OA
BRANCH  24  26
ATOM     26  O   UNL     1      47.519   2.966   5.547  0.00  0.00    +0.000 OA
ATOM     27  H   UNL     1      47.117   3.852   5.698  0.00  0.00    +0.000 HD
ENDBRANCH  24  26
ENDBRANCH  21  24
ENDBRANCH  17  18
ENDBRANCH  16  17
ENDBRANCH   4  16
TORSDOF 10
ENDMDL
MODEL 2
REMARK VINA RESULT:    -7.631      2.228      4.014
REMARK INTER + INTRA:         -12.792
REMARK INTER:                 -11.793
REMARK INTRA:                  -1.000
REMARK UNBOUND:                -0.924
REMARK  Name = 
REMARK  13 active torsions:
REMARK  status: ('A' for Active; 'I' for Inactive)
REMARK    1  A    between atoms: C_1  and  C_2
REMARK    2  A    between atoms: C_2  and  C_3
REMARK    3  A    between atoms: C_3  and  C_4
REMARK    4  A    between atoms: C_3  and  C_5
REMARK    5  A    between atoms: C_3  and  N_6
REMARK    6  A    between atoms: N_6  and  C_7
REMARK    7  A    between atoms: C_7  and  C_8
REMARK    8  A    between atoms: C_8  and  C_9
REMARK    9  A    between atoms: C_12  and  C_13
REMARK   10  A    between atoms: C_13  and  O_14
REMARK   11  A    between atoms: O_14  and  C_15
REMARK   12  A    between atoms: C_18  and  C_19
REMARK   13  A    between atoms: C_19  and  O_21
REMARK                            x       y       z     vdW  Elec       q    Type
REMARK                         _______ _______ _______ _____ _____    ______ ____
ROOT
ATOM      1  C   UNL     1      46.666   5.158  13.714  0.00  0.00    +0.000 A 
ATOM      2  C   UNL     1      45.849   6.037  13.031  0.00  0.00    +0.000 A 
ATOM      3  N   UNL     1      44.831   5.662  12.241  0.00  0.00    +0.000 NA
ATOM      4  C   UNL     1      44.638   4.337  12.110  0.00  0.00    +0.000 A 
ATOM      5  N   UNL     1      45.387   3.389  12.711  0.00  0.00    +0.000 NA
ATOM      6  C   UNL     1      46.385   3.825  13.500  0.00  0.00    +0.000 A 
ENDROOT
BRANCH   1   7
ATOM      7  C   UNL     1      47.804   5.581  14.596  0.00  0.00    +0.000 C 
BRANCH   7   8
ATOM      8  C   UNL     1      48.493   6.889  14.183  0.00  0.00    +0.000 C 
BRANCH   8   9
ATOM      9  N   UNL     1      49.409   6.700  13.054  0.00  0.00    +0.000 NA
ATOM     10  H   UNL     1      50.256   6.211  13.347  0.00  0.00    +0.000 HD
BRANCH   9  11
ATOM     11  C   UNL     1      49.785   7.927  12.329  0.00  0.00    +0.000 C 
ATOM     12  C   UNL     1      50.762   7.611  11.175  0.00  0.00    +0.000 C 
ATOM     13  C   UNL     1      50.427   8.942  13.288  0.00  0.00    +0.000 C 
BRANCH  11  15
ATOM     14  C   UNL     1      48.415  10.057  11.716  0.00  0.00    +0.000 C 
ATOM     15  C   UNL     1      48.495   8.532  11.698  0.00  0.00    +0.000 C 
ENDBRANCH  11  15
ENDBRANCH   9  11
ENDBRANCH   8   9
ENDBRANCH   7   8
ENDBRANCH   1   7
BRANCH   4  16
ATOM     16  C   UNL     1      43.518   3.889  11.211  0.00  0.00    +0.000 C 
BRANCH  16  17
ATOM     17  O   UNL     1      43.751   4.374   9.882  0.00  0.00    +0.000 OA
BRANCH  17  18
ATOM     18  C   UNL     1      44.611   3.559   9.187  0.00  0.00    +0.000 A 
ATOM     19  C   UNL     1      45.481   4.162   8.294  0.00  0.00    +0.000 A 
ATOM     20  C   UNL     1      46.382   3.356   7.608  0.00  0.00    +0.000 A 
ATOM     21  C   UNL     1      46.348   1.996   7.861  0.00  0.00    +0.000 A 
ATOM     22  N   UNL     1      45.476   1.423   8.735  0.00  0.00    +0.000 NA
ATOM     23  N   UNL     1      44.601   2.219   9.398  0.00  0.00    +0.000 NA
BRANCH  21  24
ATOM     24  C   UNL     1      47.283   1.058   7.195  0.00  0.00    +0.000 C 
ATOM     25  O   UNL     1      48.008   1.375   6.265  0.00  0.00    +0.000 OA
BRANCH  24  26
ATOM     26  O   UNL     1      47.248  -0.184   7.736  0.00  0.00    +0.000 OA
ATOM     27  H   UNL     1      48.059  -0.365   8.265  0.00  0.00    +0.000 HD
ENDBRANCH  24  26
ENDBRANCH  21  24
ENDBRANCH  17  18
ENDBRANCH  16  17
ENDBRANCH   4  16
TORSDOF 10
ENDMDL
MODEL 3
REMARK VINA RESULT:    -7.470      1.130      1.565
REMARK INTER + INTRA:         -12.543
REMARK INTER:                 -11.760
REMARK INTRA:                  -0.783
REMARK UNBOUND:                -0.924
REMARK  Name = 
REMARK  13 active torsions:
REMARK  status: ('A' for Active; 'I' for Inactive)
REMARK    1  A    between atoms: C_1  and  C_2
REMARK    2  A    between atoms: C_2  and  C_3
REMARK    3  A    between atoms: C_3  and  C_4
REMARK    4  A    between atoms: C_3  and  C_5
REMARK    5  A    between atoms: C_3  and  N_6
REMARK    6  A    between atoms: N_6  and  C_7
REMARK    7  A    between atoms: C_7  and  C_8
REMARK    8  A    between atoms: C_8  and  C_9
REMARK    9  A    between atoms: C_12  and  C_13
REMARK   10  A    between atoms: C_13  and  O_14
REMARK   11  A    between atoms: O_14  and  C_15
REMARK   12  A    between atoms: C_18  and  C_19
REMARK   13  A    between atoms: C_19  and  O_21
REMARK                            x       y       z     vdW  Elec       q    Type
REMARK                         _______ _______ _______ _____ _____    ______ ____
ROOT
ATOM      1  C   UNL     1      46.806   5.394  13.721  0.00  0.00    +0.000 A 
ATOM      2  C   UNL     1      46.033   6.246  12.957  0.00  0.00    +0.000 A 
ATOM      3  N   UNL     1      45.021   5.846  12.171  0.00  0.00    +0.000 NA
ATOM      4  C   UNL     1      44.789   4.521  12.129  0.00  0.00    +0.000 A 
ATOM      5  N   UNL     1      45.494   3.597  12.816  0.00  0.00    +0.000 NA
ATOM      6  C   UNL     1      46.487   4.058  13.596  0.00  0.00    +0.000 A 
ENDROOT
BRANCH   1   7
ATOM      7  C   UNL     1      47.936   5.844  14.598  0.00  0.00    +0.000 C 
BRANCH   7   8
ATOM      8  C   UNL     1      47.863   5.355  16.052  0.00  0.00    +0.000 C 
BRANCH   8   9
ATOM      9  N   UNL     1      49.185   5.016  16.588  0.00  0.00    +0.000 NA
ATOM     10  H   UNL     1      49.889   5.003  15.848  0.00  0.00    +0.000 HD
BRANCH   9  11
ATOM     11  C   UNL     1      49.257   3.753  17.346  0.00  0.00    +0.000 C 
ATOM     12  C   UNL     1      48.450   2.638  16.643  0.00  0.00    +0.000 C 
ATOM     13  C   UNL     1      48.728   3.953  18.775  0.00  0.00    +0.000 C 
BRANCH  11  15
ATOM     14  C   UNL     1      50.966   1.786  17.364  0.00  0.00    +0.000 C 
ATOM     15  C   UNL     1      50.746   3.297  17.387  0.00  0.00    +0.000 C 
ENDBRANCH  11  15
ENDBRANCH   9  11
ENDBRANCH   8   9
ENDBRANCH   7   8
ENDBRANCH   1   7
BRANCH   4  16
ATOM     16  C   UNL     1      43.675   4.044  11.237  0.00  0.00    +0.000 C 
BRANCH  16  17
ATOM     17  O   UNL     1      43.807   4.651   9.946  0.00  0.00    +0.000 OA
BRANCH  17  18
ATOM     18  C   UNL     1      44.748   4.011   9.177  0.00  0.00    +0.000 A 
ATOM     19  C   UNL     1      44.746   2.625   9.185  0.00  0.00    +0.000 A 
ATOM     20  C   UNL     1      45.668   1.961   8.385  0.00  0.00    +0.000 A 
ATOM     21  C   UNL     1      46.536   2.732   7.632  0.00  0.00    +0.000 A 
ATOM     22  N   UNL     1      46.529   4.093   7.648  0.00  0.00    +0.000 NA
ATOM     23  N   UNL     1      45.625   4.729   8.432  0.00  0.00    +0.000 NA
BRANCH  21  24
ATOM     24  C   UNL     1      47.541   2.116   6.732  0.00  0.00    +0.000 C 
ATOM     25  O   UNL     1      47.415   1.006   6.240  0.00  0.00    +0.000 OA
BRANCH  24  26
ATOM     26  O   UNL     1      48.607   2.923   6.513  0.00  0.00    +0.000 OA
ATOM     27  H   UNL     1      48.368   3.870   6.638  0.00  0.00    +0.000 HD
ENDBRANCH  24  26
ENDBRANCH  21  24
ENDBRANCH  17  18
ENDBRANCH  16  17
ENDBRANCH   4  16
TORSDOF 10
ENDMDL
MODEL 4
REMARK VINA RESULT:    -7.328      1.391      2.360
REMARK INTER + INTRA:         -12.322
REMARK INTER:                 -11.565
REMARK INTRA:                  -0.757
REMARK UNBOUND:                -0.924
REMARK  Name = 
REMARK  13 active torsions:
REMARK  status: ('A' for Active; 'I' for Inactive)
REMARK    1  A    between atoms: C_1  and  C_2
REMARK    2  A    between atoms: C_2  and  C_3
REMARK    3  A    between atoms: C_3  and  C_4
REMARK    4  A    between atoms: C_3  and  C_5
REMARK    5  A    between atoms: C_3  and  N_6
REMARK    6  A    between atoms: N_6  and  C_7
REMARK    7  A    between atoms: C_7  and  C_8
REMARK    8  A    between atoms: C_8  and  C_9
REMARK    9  A    between atoms: C_12  and  C_13
REMARK   10  A    between atoms: C_13  and  O_14
REMARK   11  A    between atoms: O_14  and  C_15
REMARK   12  A    between atoms: C_18  and  C_19
REMARK   13  A    between atoms: C_19  and  O_21
REMARK                            x       y       z     vdW  Elec       q    Type
REMARK                         _______ _______ _______ _____ _____    ______ ____
ROOT
ATOM      1  C   UNL     1      46.738   5.373  13.654  0.00  0.00    +0.000 A 
ATOM      2  C   UNL     1      45.901   6.195  12.926  0.00  0.00    +0.000 A 
ATOM      3  N   UNL     1      44.869   5.758  12.187  0.00  0.00    +0.000 NA
ATOM      4  C   UNL     1      44.683   4.426  12.156  0.00  0.00    +0.000 A 
ATOM      5  N   UNL     1      45.451   3.528  12.810  0.00  0.00    +0.000 NA
ATOM      6  C   UNL     1      46.461   4.026  13.544  0.00  0.00    +0.000 A 
ENDROOT
BRANCH   1   7
ATOM      7  C   UNL     1      47.890   5.865  14.479  0.00  0.00    +0.000 C 
BRANCH   7   8
ATOM      8  C   UNL     1      48.052   5.176  15.842  0.00  0.00    +0.000 C 
BRANCH   8   9
ATOM      9  N   UNL     1      48.007   6.132  16.953  0.00  0.00    +0.000 NA
ATOM     10  H   UNL     1      48.624   6.927  16.779  0.00  0.00    +0.000 HD
BRANCH   9  11
ATOM     11  C   UNL     1      48.303   5.572  18.285  0.00  0.00    +0.000 C 
ATOM     12  C   UNL     1      49.599   6.181  18.865  0.00  0.00    +0.000 C 
ATOM     13  C   UNL     1      48.440   4.043  18.205  0.00  0.00    +0.000 C 
BRANCH  11  15
ATOM     14  C   UNL     1      47.547   6.721  20.497  0.00  0.00    +0.000 C 
ATOM     15  C   UNL     1      47.136   5.954  19.242  0.00  0.00    +0.000 C 
ENDBRANCH  11  15
ENDBRANCH   9  11
ENDBRANCH   8   9
ENDBRANCH   7   8
ENDBRANCH   1   7
BRANCH   4  16
ATOM     16  C   UNL     1      43.548   3.907  11.316  0.00  0.00    +0.000 C 
BRANCH  16  17
ATOM     17  O   UNL     1      43.720   4.344   9.962  0.00  0.00    +0.000 OA
BRANCH  17  18
ATOM     18  C   UNL     1      44.571   3.520   9.266  0.00  0.00    +0.000 A 
ATOM     19  C   UNL     1      45.472   4.116   8.399  0.00  0.00    +0.000 A 
ATOM     20  C   UNL     1      46.363   3.300   7.712  0.00  0.00    +0.000 A 
ATOM     21  C   UNL     1      46.289   1.937   7.939  0.00  0.00    +0.000 A 
ATOM     22  N   UNL     1      45.387   1.371   8.787  0.00  0.00    +0.000 NA
ATOM     23  N   UNL     1      44.523   2.177   9.450  0.00  0.00    +0.000 NA
BRANCH  21  24
ATOM     24  C   UNL     1      47.210   0.987   7.271  0.00  0.00    +0.000 C 
ATOM     25  O   UNL     1      47.994   1.312   6.393  0.00  0.00    +0.000 OA
BRANCH  24  26
ATOM     26  O   UNL     1      47.092  -0.276   7.748  0.00  0.00    +0.000 OA
ATOM     27  H   UNL     1      47.971  -0.653   7.980  0.00  0.00    +0.000 HD
ENDBRANCH  24  26
ENDBRANCH  21  24
ENDBRANCH  17  18
ENDBRANCH  16  17
ENDBRANCH   4  16
TORSDOF 10
ENDMDL
MODEL 5
REMARK VINA RESULT:    -7.251      2.616      4.137
REMARK INTER + INTRA:         -12.202
REMARK INTER:                 -11.449
REMARK INTRA:                  -0.753
REMARK UNBOUND:                -0.924
REMARK  Name = 
REMARK  13 active torsions:
REMARK  status: ('A' for Active; 'I' for Inactive)
REMARK    1  A    between atoms: C_1  and  C_2
REMARK    2  A    between atoms: C_2  and  C_3
REMARK    3  A    between atoms: C_3  and  C_4
REMARK    4  A    between atoms: C_3  and  C_5
REMARK    5  A    between atoms: C_3  and  N_6
REMARK    6  A    between atoms: N_6  and  C_7
REMARK    7  A    between atoms: C_7  and  C_8
REMARK    8  A    between atoms: C_8  and  C_9
REMARK    9  A    between atoms: C_12  and  C_13
REMARK   10  A    between atoms: C_13  and  O_14
REMARK   11  A    between atoms: O_14  and  C_15
REMARK   12  A    between atoms: C_18  and  C_19
REMARK   13  A    between atoms: C_19  and  O_21
REMARK                            x       y       z     vdW  Elec       q    Type
REMARK                         _______ _______ _______ _____ _____    ______ ____
ROOT
ATOM      1  C   UNL     1      46.720   5.297  13.415  0.00  0.00    +0.000 A 
ATOM      2  C   UNL     1      45.745   5.884  12.632  0.00  0.00    +0.000 A 
ATOM      3  N   UNL     1      44.812   5.201  11.951  0.00  0.00    +0.000 NA
ATOM      4  C   UNL     1      44.875   3.859  12.039  0.00  0.00    +0.000 A 
ATOM      5  N   UNL     1      45.795   3.180  12.755  0.00  0.00    +0.000 NA
ATOM      6  C   UNL     1      46.696   3.918  13.427  0.00  0.00    +0.000 A 
ENDROOT
BRANCH   1   7
ATOM      7  C   UNL     1      47.761   6.063  14.175  0.00  0.00    +0.000 C 
BRANCH   7   8
ATOM      8  C   UNL     1      48.310   7.303  13.454  0.00  0.00    +0.000 C 
BRANCH   8   9
ATOM      9  N   UNL     1      49.399   6.969  12.532  0.00  0.00    +0.000 NA
ATOM     10  H   UNL     1      49.997   6.238  12.920  0.00  0.00    +0.000 HD
BRANCH   9  11
ATOM     11  C   UNL     1      50.239   8.104  12.103  0.00  0.00    +0.000 C 
ATOM     12  C   UNL     1      51.127   8.605  13.264  0.00  0.00    +0.000 C 
ATOM     13  C   UNL     1      49.361   9.256  11.588  0.00  0.00    +0.000 C 
BRANCH  11  15
ATOM     14  C   UNL     1      51.987   8.698  10.266  0.00  0.00    +0.000 C 
ATOM     15  C   UNL     1      51.185   7.606  10.971  0.00  0.00    +0.000 C 
ENDBRANCH  11  15
ENDBRANCH   9  11
ENDBRANCH   8   9
ENDBRANCH   7   8
ENDBRANCH   1   7
BRANCH   4  16
ATOM     16  C   UNL     1      43.855   3.069  11.265  0.00  0.00    +0.000 C 
BRANCH  16  17
ATOM     17  O   UNL     1      43.647   3.683   9.987  0.00  0.00    +0.000 OA
BRANCH  17  18
ATOM     18  C   UNL     1      44.646   3.362   9.100  0.00  0.00    +0.000 A 
ATOM     19  C   UNL     1      45.094   2.051   9.089  0.00  0.00    +0.000 A 
ATOM     20  C   UNL     1      46.079   1.700   8.174  0.00  0.00    +0.000 A 
ATOM     21  C   UNL     1      46.554   2.691   7.332  0.00  0.00    +0.000 A 
ATOM     22  N   UNL     1      46.108   3.976   7.368  0.00  0.00    +0.000 NA
ATOM     23  N   UNL     1      45.147   4.306   8.265  0.00  0.00    +0.000 NA
BRANCH  21  24
ATOM     24  C   UNL     1      47.589   2.410   6.308  0.00  0.00    +0.000 C 
ATOM     25  O   UNL     1      48.438   1.541   6.429  0.00  0.00    +0.000 OA
BRANCH  24  26
ATOM     26  O   UNL     1      47.483   3.218   5.226  0.00  0.00    +0.000 OA
ATOM     27  H   UNL     1      47.041   4.067   5.457  0.00  0.00    +0.000 HD
ENDBRANCH  24  26
ENDBRANCH  21  24
ENDBRANCH  17  18
ENDBRANCH  16  17
ENDBRANCH   4  16
TORSDOF 10
ENDMDL
MODEL 6
REMARK VINA RESULT:    -7.044      1.915      2.583
REMARK INTER + INTRA:         -11.879
REMARK INTER:                 -11.149
REMARK INTRA:                  -0.730
REMARK UNBOUND:                -0.924
REMARK  Name = 
REMARK  13 active torsions:
REMARK  status: ('A' for Active; 'I' for Inactive)
REMARK    1  A    between atoms: C_1  and  C_2
REMARK    2  A    between atoms: C_2  and  C_3
REMARK    3  A    between atoms: C_3  and  C_4
REMARK    4  A    between atoms: C_3  and  C_5
REMARK    5  A    between atoms: C_3  and  N_6
REMARK    6  A    between atoms: N_6  and  C_7
REMARK    7  A    between atoms: C_7  and  C_8
REMARK    8  A    between atoms: C_8  and  C_9
REMARK    9  A    between atoms: C_12  and  C_13
REMARK   10  A    between atoms: C_13  and  O_14
REMARK   11  A    between atoms: O_14  and  C_15
REMARK   12  A    between atoms: C_18  and  C_19
REMARK   13  A    between atoms: C_19  and  O_21
REMARK                            x       y       z     vdW  Elec       q    Type
REMARK                         _______ _______ _______ _____ _____    ______ ____
ROOT
ATOM      1  C   UNL     1      46.941   6.598  12.761  0.00  0.00    +0.000 A 
ATOM      2  C   UNL     1      46.133   7.015  11.722  0.00  0.00    +0.000 A 
ATOM      3  N   UNL     1      45.108   6.301  11.230  0.00  0.00    +0.000 NA
ATOM      4  C   UNL     1      44.899   5.097  11.792  0.00  0.00    +0.000 A 
ATOM      5  N   UNL     1      45.637   4.580  12.796  0.00  0.00    +0.000 NA
ATOM      6  C   UNL     1      46.642   5.345  13.257  0.00  0.00    +0.000 A 
ENDROOT
BRANCH   1   7
ATOM      7  C   UNL     1      48.085   7.397  13.309  0.00  0.00    +0.000 C 
BRANCH   7   8
ATOM      8  C   UNL     1      48.485   7.054  14.751  0.00  0.00    +0.000 C 
BRANCH   8   9
ATOM      9  N   UNL     1      49.886   6.631  14.850  0.00  0.00    +0.000 NA
ATOM     10  H   UNL     1      49.993   5.650  14.587  0.00  0.00    +0.000 HD
BRANCH   9  11
ATOM     11  C   UNL     1      50.524   6.852  16.161  0.00  0.00    +0.000 C 
ATOM     12  C   UNL     1      49.912   8.078  16.875  0.00  0.00    +0.000 C 
ATOM     13  C   UNL     1      52.039   7.054  15.993  0.00  0.00    +0.000 C 
BRANCH  11  15
ATOM     14  C   UNL     1      51.489   4.848  17.516  0.00  0.00    +0.000 C 
ATOM     15  C   UNL     1      50.248   5.605  17.052  0.00  0.00    +0.000 C 
ENDBRANCH  11  15
ENDBRANCH   9  11
ENDBRANCH   8   9
ENDBRANCH   7   8
ENDBRANCH   1   7
BRANCH   4  16
ATOM     16  C   UNL     1      43.771   4.266  11.242  0.00  0.00    +0.000 C 
BRANCH  16  17
ATOM     17  O   UNL     1      43.700   4.440   9.822  0.00  0.00    +0.000 OA
BRANCH  17  18
ATOM     18  C   UNL     1      44.561   3.597   9.162  0.00  0.00    +0.000 A 
ATOM     19  C   UNL     1      45.462   4.168   8.278  0.00  0.00    +0.000 A 
ATOM     20  C   UNL     1      46.364   3.334   7.629  0.00  0.00    +0.000 A 
ATOM     21  C   UNL     1      46.300   1.979   7.907  0.00  0.00    +0.000 A 
ATOM     22  N   UNL     1      45.398   1.438   8.771  0.00  0.00    +0.000 NA
ATOM     23  N   UNL     1      44.523   2.262   9.398  0.00  0.00    +0.000 NA
BRANCH  21  24
ATOM     24  C   UNL     1      47.234   1.013   7.281  0.00  0.00    +0.000 C 
ATOM     25  O   UNL     1      48.071   1.326   6.449  0.00  0.00    +0.000 OA
BRANCH  24  26
ATOM     26  O   UNL     1      47.059  -0.250   7.739  0.00  0.00    +0.000 OA
ATOM     27  H   UNL     1      47.811  -0.830   7.479  0.00  0.00    +0.000 HD
ENDBRANCH  24  26
ENDBRANCH  21  24
ENDBRANCH  17  18
ENDBRANCH  16  17
ENDBRANCH   4  16
TORSDOF 10
ENDMDL
MODEL 7
REMARK VINA RESULT:    -6.956      2.169      3.158
REMARK INTER + INTRA:         -11.743
REMARK INTER:                 -10.935
REMARK INTRA:                  -0.807
REMARK UNBOUND:                -0.924
REMARK  Name = 
REMARK  13 active torsions:
REMARK  status: ('A' for Active; 'I' for Inactive)
REMARK    1  A    between atoms: C_1  and  C_2
REMARK    2  A    between atoms: C_2  and  C_3
REMARK    3  A    between atoms: C_3  and  C_4
REMARK    4  A    between atoms: C_3  and  C_5
REMARK    5  A    between atoms: C_3  and  N_6
REMARK    6  A    between atoms: N_6  and  C_7
REMARK    7  A    between atoms: C_7  and  C_8
REMARK    8  A    between atoms: C_8  and  C_9
REMARK    9  A    between atoms: C_12  and  C_13
REMARK   10  A    between atoms: C_13  and  O_14
REMARK   11  A    between atoms: O_14  and  C_15
REMARK   12  A    between atoms: C_18  and  C_19
REMARK   13  A    between atoms: C_19  and  O_21
REMARK                            x       y       z     vdW  Elec       q    Type
REMARK                         _______ _______ _______ _____ _____    ______ ____
ROOT
ATOM      1  C   UNL     1      46.472   6.844  12.922  0.00  0.00    +0.000 A 
ATOM      2  C   UNL     1      45.751   7.343  11.856  0.00  0.00    +0.000 A 
ATOM      3  N   UNL     1      44.788   6.664  11.213  0.00  0.00    +0.000 NA
ATOM      4  C   UNL     1      44.554   5.412  11.645  0.00  0.00    +0.000 A 
ATOM      5  N   UNL     1      45.212   4.816  12.662  0.00  0.00    +0.000 NA
ATOM      6  C   UNL     1      46.156   5.549  13.276  0.00  0.00    +0.000 A 
ENDROOT
BRANCH   1   7
ATOM      7  C   UNL     1      47.548   7.605  13.639  0.00  0.00    +0.000 C 
BRANCH   7   8
ATOM      8  C   UNL     1      48.485   6.747  14.500  0.00  0.00    +0.000 C 
BRANCH   8   9
ATOM      9  N   UNL     1      48.196   6.879  15.931  0.00  0.00    +0.000 NA
ATOM     10  H   UNL     1      47.439   7.545  16.093  0.00  0.00    +0.000 HD
BRANCH   9  11
ATOM     11  C   UNL     1      49.347   7.240  16.781  0.00  0.00    +0.000 C 
ATOM     12  C   UNL     1      50.106   8.453  16.199  0.00  0.00    +0.000 C 
ATOM     13  C   UNL     1      50.307   6.046  16.919  0.00  0.00    +0.000 C 
BRANCH  11  15
ATOM     14  C   UNL     1      47.849   8.843  18.184  0.00  0.00    +0.000 C 
ATOM     15  C   UNL     1      48.805   7.653  18.181  0.00  0.00    +0.000 C 
ENDBRANCH  11  15
ENDBRANCH   9  11
ENDBRANCH   8   9
ENDBRANCH   7   8
ENDBRANCH   1   7
BRANCH   4  16
ATOM     16  C   UNL     1      43.496   4.620  10.926  0.00  0.00    +0.000 C 
BRANCH  16  17
ATOM     17  O   UNL     1      43.664   4.777   9.511  0.00  0.00    +0.000 OA
BRANCH  17  18
ATOM     18  C   UNL     1      44.556   3.865   9.001  0.00  0.00    +0.000 A 
ATOM     19  C   UNL     1      44.418   2.545   9.397  0.00  0.00    +0.000 A 
ATOM     20  C   UNL     1      45.290   1.603   8.864  0.00  0.00    +0.000 A 
ATOM     21  C   UNL     1      46.246   2.050   7.969  0.00  0.00    +0.000 A 
ATOM     22  N   UNL     1      46.372   3.355   7.602  0.00  0.00    +0.000 NA
ATOM     23  N   UNL     1      45.516   4.264   8.130  0.00  0.00    +0.000 NA
BRANCH  21  24
ATOM     24  C   UNL     1      47.207   1.119   7.330  0.00  0.00    +0.000 C 
ATOM     25  O   UNL     1      48.081   1.478   6.556  0.00  0.00    +0.000 OA
BRANCH  24  26
ATOM     26  O   UNL     1      47.012  -0.168   7.705  0.00  0.00    +0.000 OA
ATOM     27  H   UNL     1      47.429  -0.352   8.577  0.00  0.00    +0.000 HD
ENDBRANCH  24  26
ENDBRANCH  21  24
ENDBRANCH  17  18
ENDBRANCH  16  17
ENDBRANCH   4  16
TORSDOF 10
ENDMDL
MODEL 8
REMARK VINA RESULT:    -6.481      1.733      2.305
REMARK INTER + INTRA:         -11.004
REMARK INTER:                 -10.358
REMARK INTRA:                  -0.646
REMARK UNBOUND:                -0.924
REMARK  Name = 
REMARK  13 active torsions:
REMARK  status: ('A' for Active; 'I' for Inactive)
REMARK    1  A    between atoms: C_1  and  C_2
REMARK    2  A    between atoms: C_2  and  C_3
REMARK    3  A    between atoms: C_3  and  C_4
REMARK    4  A    between atoms: C_3  and  C_5
REMARK    5  A    between atoms: C_3  and  N_6
REMARK    6  A    between atoms: N_6  and  C_7
REMARK    7  A    between atoms: C_7  and  C_8
REMARK    8  A    between atoms: C_8  and  C_9
REMARK    9  A    between atoms: C_12  and  C_13
REMARK   10  A    between atoms: C_13  and  O_14
REMARK   11  A    between atoms: O_14  and  C_15
REMARK   12  A    between atoms: C_18  and  C_19
REMARK   13  A    between atoms: C_19  and  O_21
REMARK                            x       y       z     vdW  Elec       q    Type
REMARK                         _______ _______ _______ _____ _____    ______ ____
ROOT
ATOM      1  C   UNL     1      46.806   4.845  14.213  0.00  0.00    +0.000 A 
ATOM      2  C   UNL     1      45.895   3.998  13.614  0.00  0.00    +0.000 A 
ATOM      3  N   UNL     1      45.247   4.274  12.471  0.00  0.00    +0.000 NA
ATOM      4  C   UNL     1      45.507   5.471  11.914  0.00  0.00    +0.000 A 
ATOM      5  N   UNL     1      46.360   6.384  12.423  0.00  0.00    +0.000 NA
ATOM      6  C   UNL     1      46.990   6.048  13.562  0.00  0.00    +0.000 A 
ENDROOT
BRANCH   1   7
ATOM      7  C   UNL     1      47.528   4.535  15.490  0.00  0.00    +0.000 C 
BRANCH   7   8
ATOM      8  C   UNL     1      48.371   5.687  16.055  0.00  0.00    +0.000 C 
BRANCH   8   9
ATOM      9  N   UNL     1      48.099   5.926  17.476  0.00  0.00    +0.000 NA
ATOM     10  H   UNL     1      47.865   6.905  17.645  0.00  0.00    +0.000 HD
BRANCH   9  11
ATOM     11  C   UNL     1      49.169   5.517  18.405  0.00  0.00    +0.000 C 
ATOM     12  C   UNL     1      50.441   5.099  17.634  0.00  0.00    +0.000 C 
ATOM     13  C   UNL     1      48.694   4.353  19.291  0.00  0.00    +0.000 C 
BRANCH  11  15
ATOM     14  C   UNL     1      51.032   6.944  19.534  0.00  0.00    +0.000 C 
ATOM     15  C   UNL     1      49.538   6.744  19.289  0.00  0.00    +0.000 C 
ENDBRANCH  11  15
ENDBRANCH   9  11
ENDBRANCH   8   9
ENDBRANCH   7   8
ENDBRANCH   1   7
BRANCH   4  16
ATOM     16  C   UNL     1      44.775   5.815  10.645  0.00  0.00    +0.000 C 
BRANCH  16  17
ATOM     17  O   UNL     1      44.227   4.620  10.073  0.00  0.00    +0.000 OA
BRANCH  17  18
ATOM     18  C   UNL     1      45.082   4.056   9.158  0.00  0.00    +0.000 A 
ATOM     19  C   UNL     1      45.157   2.673   9.122  0.00  0.00    +0.000 A 
ATOM     20  C   UNL     1      45.990   2.084   8.178  0.00  0.00    +0.000 A 
ATOM     21  C   UNL     1      46.696   2.923   7.334  0.00  0.00    +0.000 A 
ATOM     22  N   UNL     1      46.616   4.280   7.394  0.00  0.00    +0.000 NA
ATOM     23  N   UNL     1      45.801   4.843   8.320  0.00  0.00    +0.000 NA
BRANCH  21  24
ATOM     24  C   UNL     1      47.593   2.389   6.281  0.00  0.00    +0.000 C 
ATOM     25  O   UNL     1      48.369   1.463   6.461  0.00  0.00    +0.000 OA
BRANCH  24  26
ATOM     26  O   UNL     1      47.452   3.037   5.099  0.00  0.00    +0.000 OA
ATOM     27  H   UNL     1      47.692   3.987   5.183  0.00  0.00    +0.000 HD
ENDBRANCH  24  26
ENDBRANCH  21  24
ENDBRANCH  17  18
ENDBRANCH  16  17
ENDBRANCH   4  16
TORSDOF 10
ENDMDL
MODEL 9
REMARK VINA RESULT:    -6.400      4.313      8.602
REMARK INTER + INTRA:         -10.878
REMARK INTER:                  -9.995
REMARK INTRA:                  -0.883
REMARK UNBOUND:                -0.924
REMARK  Name = 
REMARK  13 active torsions:
REMARK  status: ('A' for Active; 'I' for Inactive)
REMARK    1  A    between atoms: C_1  and  C_2
REMARK    2  A    between atoms: C_2  and  C_3
REMARK    3  A    between atoms: C_3  and  C_4
REMARK    4  A    between atoms: C_3  and  C_5
REMARK    5  A    between atoms: C_3  and  N_6
REMARK    6  A    between atoms: N_6  and  C_7
REMARK    7  A    between atoms: C_7  and  C_8
REMARK    8  A    between atoms: C_8  and  C_9
REMARK    9  A    between atoms: C_12  and  C_13
REMARK   10  A    between atoms: C_13  and  O_14
REMARK   11  A    between atoms: O_14  and  C_15
REMARK   12  A    between atoms: C_18  and  C_19
REMARK   13  A    between atoms: C_19  and  O_21
REMARK                            x       y       z     vdW  Elec       q    Type
REMARK                         _______ _______ _______ _____ _____    ______ ____
ROOT
ATOM      1  C   UNL     1      47.065   6.010  13.034  0.00  0.00    +0.000 A 
ATOM      2  C   UNL     1      48.049   6.348  13.941  0.00  0.00    +0.000 A 
ATOM      3  N   UNL     1      48.221   5.745  15.128  0.00  0.00    +0.000 NA
ATOM      4  C   UNL     1      47.345   4.770  15.431  0.00  0.00    +0.000 A 
ATOM      5  N   UNL     1      46.334   4.371  14.631  0.00  0.00    +0.000 NA
ATOM      6  C   UNL     1      46.219   5.003  13.450  0.00  0.00    +0.000 A 
ENDROOT
BRANCH   1   7
ATOM      7  C   UNL     1      46.875   6.685  11.709  0.00  0.00    +0.000 C 
BRANCH   7   8
ATOM      8  C   UNL     1      45.546   6.375  11.007  0.00  0.00    +0.000 C 
BRANCH   8   9
ATOM      9  N   UNL     1      45.725   5.496   9.847  0.00  0.00    +0.000 NA
ATOM     10  H   UNL     1      45.660   6.022   8.974  0.00  0.00    +0.000 HD
BRANCH   9  11
ATOM     11  C   UNL     1      44.815   4.336   9.783  0.00  0.00    +0.000 C 
ATOM     12  C   UNL     1      45.382   3.143  10.583  0.00  0.00    +0.000 C 
ATOM     13  C   UNL     1      44.583   3.917   8.322  0.00  0.00    +0.000 C 
BRANCH  11  15
ATOM     14  C   UNL     1      43.064   3.923  11.666  0.00  0.00    +0.000 C 
ATOM     15  C   UNL     1      43.464   4.743  10.442  0.00  0.00    +0.000 C 
ENDBRANCH  11  15
ENDBRANCH   9  11
ENDBRANCH   8   9
ENDBRANCH   7   8
ENDBRANCH   1   7
BRANCH   4  16
ATOM     16  C   UNL     1      47.501   4.094  16.766  0.00  0.00    +0.000 C 
BRANCH  16  17
ATOM     17  O   UNL     1      47.987   2.760  16.571  0.00  0.00    +0.000 OA
BRANCH  17  18
ATOM     18  C   UNL     1      49.307   2.641  16.932  0.00  0.00    +0.000 A 
ATOM     19  C   UNL     1      49.867   3.680  17.657  0.00  0.00    +0.000 A 
ATOM     20  C   UNL     1      51.191   3.561  18.061  0.00  0.00    +0.000 A 
ATOM     21  C   UNL     1      51.868   2.407  17.707  0.00  0.00    +0.000 A 
ATOM     22  N   UNL     1      51.302   1.403  16.984  0.00  0.00    +0.000 NA
ATOM     23  N   UNL     1      50.009   1.531  16.595  0.00  0.00    +0.000 NA
BRANCH  21  24
ATOM     24  C   UNL     1      53.277   2.178  18.110  0.00  0.00    +0.000 C 
ATOM     25  O   UNL     1      54.190   2.029  17.314  0.00  0.00    +0.000 OA
BRANCH  24  26
ATOM     26  O   UNL     1      53.437   2.161  19.455  0.00  0.00    +0.000 OA
ATOM     27  H   UNL     1      54.147   2.782  19.737  0.00  0.00    +0.000 HD
ENDBRANCH  24  26
ENDBRANCH  21  24
ENDBRANCH  17  18
ENDBRANCH  16  17
ENDBRANCH   4  16
TORSDOF 10
ENDMDL
