MODEL 1
REMARK VINA RESULT:    -9.731      0.000      0.000
REMARK INTER + INTRA:         -12.935
REMARK INTER:                 -12.006
REMARK INTRA:                  -0.929
REMARK UNBOUND:                -0.929
REMARK  Name = 
REMARK  4 active torsions:
REMARK  status: ('A' for Active; 'I' for Inactive)
REMARK    1  A    between atoms: C_2  and  C_4
REMARK    2  A    between atoms: N_8  and  C_9
REMARK    3  A    between atoms: C_9  and  C_10
REMARK    4  A    between atoms: C_14  and  C_15
REMARK                            x       y       z     vdW  Elec       q    Type
REMARK                         _______ _______ _______ _____ _____    ______ ____
ROOT
ATOM      1  C   UNL     1      43.912   4.874  11.489  0.00  0.00    +0.000 C 
ATOM      2  C   UNL     1      42.663   5.044  12.348  0.00  0.00    +0.000 C 
ATOM      3  C   UNL     1      42.944   6.017  11.253  0.00  0.00    +0.000 C 
ENDROOT
BRANCH   1   8
ATOM      4  C   UNL     1      46.475   2.727   7.512  0.00  0.00    +0.000 A 
ATOM      5  C   UNL     1      46.078   4.049   7.674  0.00  0.00    +0.000 A 
ATOM      6  C   UNL     1      45.254   4.389   8.748  0.00  0.00    +0.000 A 
ATOM      7  C   UNL     1      44.833   3.403   9.633  0.00  0.00    +0.000 A 
ATOM      8  N   UNL     1      43.924   3.647  10.669  0.00  0.00    +0.000 N 
ATOM      9  N   UNL     1      45.206   2.114   9.484  0.00  0.00    +0.000 NA
ATOM     10  C   UNL     1      46.011   1.800   8.433  0.00  0.00    +0.000 A 
ATOM     11  H   UNL     1      43.867   2.771  11.186  0.00  0.00    +0.000 HD
BRANCH   4  13
ATOM     12  N   UNL     1      47.199   2.935   5.203  0.00  0.00    +0.000 N 
ATOM     13  C   UNL     1      47.321   2.268   6.391  0.00  0.00    +0.000 C 
ATOM     14  O   UNL     1      48.116   1.349   6.522  0.00  0.00    +0.000 OA
ATOM     15  H   UNL     1      47.842   2.666   4.467  0.00  0.00    +0.000 HD
ATOM     16  H   UNL     1      46.741   3.830   5.120  0.00  0.00    +0.000 HD
ENDBRANCH   4  13
ENDBRANCH   1   8
BRANCH   1  17
ATOM     17  C   UNL     1      45.268   5.193  12.114  0.00  0.00    +0.000 A 
ATOM     18  C   UNL     1      46.060   6.254  11.643  0.00  0.00    +0.000 A 
ATOM     19  C   UNL     1      47.267   6.588  12.254  0.00  0.00    +0.000 A 
ATOM     20  C   UNL     1      47.688   5.891  13.385  0.00  0.00    +0.000 A 
ATOM     21  C   UNL     1      46.916   4.848  13.925  0.00  0.00    +0.000 A 
ATOM     22  C   UNL     1      45.737   4.491  13.243  0.00  0.00    +0.000 A 
BRANCH  21  23
ATOM     23  C   UNL     1      47.277   4.205  15.204  0.00  0.00    +0.000 A 
ATOM     24  C   UNL     1      46.888   4.753  16.432  0.00  0.00    +0.000 A 
ATOM     25  C   UNL     1      47.204   4.086  17.611  0.00  0.00    +0.000 A 
ATOM     26  C   UNL     1      47.898   2.890  17.542  0.00  0.00    +0.000 A 
ATOM     27  C   UNL     1      48.245   2.412  16.292  0.00  0.00    +0.000 A 
ATOM     28  F   UNL     1      48.905   1.246  16.222  0.00  0.00    +0.000 F 
ATOM     29  N   UNL     1      47.949   3.031  15.129  0.00  0.00    +0.000 NA
ENDBRANCH  21  23
ENDBRANCH   1  17
TORSDOF 4
ENDMDL
MODEL 2
REMARK VINA RESULT:    -9.352      2.494      3.924
REMARK INTER + INTRA:         -12.468
REMARK INTER:                 -11.304
REMARK INTRA:                  -1.164
REMARK UNBOUND:                -0.929
REMARK  Name = 
REMARK  4 active torsions:
REMARK  status: ('A' for Active; 'I' for Inactive)
REMARK    1  A    between atoms: C_2  and  C_4
REMARK    2  A    between atoms: N_8  and  C_9
REMARK    3  A    between atoms: C_9  and  C_10
REMARK    4  A    between atoms: C_14  and  C_15
REMARK                            x       y       z     vdW  Elec       q    Type
REMARK                         _______ _______ _______ _____ _____    ______ ____
ROOT
ATOM      1  C   UNL     1      43.849   4.909  11.376  0.00  0.00    +0.000 C 
ATOM      2  C   UNL     1      42.528   5.145  12.102  0.00  0.00    +0.000 C 
ATOM      3  C   UNL     1      42.991   6.123  11.076  0.00  0.00    +0.000 C 
ENDROOT
BRANCH   1   8
ATOM      4  C   UNL     1      46.584   2.769   7.513  0.00  0.00    +0.000 A 
ATOM      5  C   UNL     1      46.229   4.101   7.687  0.00  0.00    +0.000 A 
ATOM      6  C   UNL     1      45.350   4.445   8.716  0.00  0.00    +0.000 A 
ATOM      7  C   UNL     1      44.833   3.453   9.541  0.00  0.00    +0.000 A 
ATOM      8  N   UNL     1      43.868   3.705  10.523  0.00  0.00    +0.000 N 
ATOM      9  N   UNL     1      45.165   2.154   9.378  0.00  0.00    +0.000 NA
ATOM     10  C   UNL     1      46.024   1.837   8.374  0.00  0.00    +0.000 A 
ATOM     11  H   UNL     1      43.742   2.819  11.009  0.00  0.00    +0.000 HD
BRANCH   4  13
ATOM     12  N   UNL     1      47.392   2.943   5.229  0.00  0.00    +0.000 N 
ATOM     13  C   UNL     1      47.484   2.306   6.437  0.00  0.00    +0.000 C 
ATOM     14  O   UNL     1      48.296   1.411   6.619  0.00  0.00    +0.000 OA
ATOM     15  H   UNL     1      48.069   2.674   4.525  0.00  0.00    +0.000 HD
ATOM     16  H   UNL     1      46.916   3.824   5.107  0.00  0.00    +0.000 HD
ENDBRANCH   4  13
ENDBRANCH   1   8
BRANCH   1  17
ATOM     17  C   UNL     1      45.147   5.116  12.152  0.00  0.00    +0.000 A 
ATOM     18  C   UNL     1      45.624   4.150  13.054  0.00  0.00    +0.000 A 
ATOM     19  C   UNL     1      46.841   4.307  13.713  0.00  0.00    +0.000 A 
ATOM     20  C   UNL     1      47.634   5.422  13.448  0.00  0.00    +0.000 A 
ATOM     21  C   UNL     1      47.227   6.400  12.525  0.00  0.00    +0.000 A 
ATOM     22  C   UNL     1      45.961   6.245  11.928  0.00  0.00    +0.000 A 
BRANCH  21  23
ATOM     23  C   UNL     1      48.124   7.504  12.127  0.00  0.00    +0.000 A 
ATOM     24  C   UNL     1      47.675   8.828  12.078  0.00  0.00    +0.000 A 
ATOM     25  C   UNL     1      48.568   9.843  11.749  0.00  0.00    +0.000 A 
ATOM     26  C   UNL     1      49.885   9.518  11.477  0.00  0.00    +0.000 A 
ATOM     27  C   UNL     1      50.254   8.187  11.548  0.00  0.00    +0.000 A 
ATOM     28  F   UNL     1      51.533   7.871  11.299  0.00  0.00    +0.000 F 
ATOM     29  N   UNL     1      49.415   7.179  11.870  0.00  0.00    +0.000 NA
ENDBRANCH  21  23
ENDBRANCH   1  17
TORSDOF 4
ENDMDL
MODEL 3
REMARK VINA RESULT:    -7.491      3.855      7.194
REMARK INTER + INTRA:         -10.172
REMARK INTER:                  -9.085
REMARK INTRA:                  -1.086
REMARK UNBOUND:                -0.929
REMARK  Name = 
REMARK  4 active torsions:
REMARK  status: ('A' for Active; 'I' for Inactive)
REMARK    1  A    between atoms: C_2  and  C_4
REMARK    2  A    between atoms: N_8  and  C_9
REMARK    3  A    between atoms: C_9  and  C_10
REMARK    4  A    between atoms: C_14  and  C_15
REMARK                            x       y       z     vdW  Elec       q    Type
REMARK                         _______ _______ _______ _____ _____    ______ ____
ROOT
ATOM      1  C   UNL     1      46.100   5.003  13.269  0.00  0.00    +0.000 C 
ATOM      2  C   UNL     1      45.953   4.077  14.473  0.00  0.00    +0.000 C 
ATOM      3  C   UNL     1      47.193   4.021  13.646  0.00  0.00    +0.000 C 
ENDROOT
BRANCH   1   8
ATOM      4  C   UNL     1      48.241   9.440  11.620  0.00  0.00    +0.000 A 
ATOM      5  C   UNL     1      48.813   8.176  11.688  0.00  0.00    +0.000 A 
ATOM      6  C   UNL     1      48.116   7.143  12.316  0.00  0.00    +0.000 A 
ATOM      7  C   UNL     1      46.867   7.393  12.873  0.00  0.00    +0.000 A 
ATOM      8  N   UNL     1      46.156   6.438  13.609  0.00  0.00    +0.000 N 
ATOM      9  N   UNL     1      46.302   8.618  12.819  0.00  0.00    +0.000 NA
ATOM     10  C   UNL     1      46.994   9.613  12.202  0.00  0.00    +0.000 A 
ATOM     11  H   UNL     1      45.260   6.875  13.820  0.00  0.00    +0.000 HD
BRANCH   4  13
ATOM     12  N   UNL     1      50.266  10.707  11.183  0.00  0.00    +0.000 N 
ATOM     13  C   UNL     1      48.914  10.600  11.001  0.00  0.00    +0.000 C 
ATOM     14  O   UNL     1      48.299  11.419  10.333  0.00  0.00    +0.000 OA
ATOM     15  H   UNL     1      50.729  11.460  10.687  0.00  0.00    +0.000 HD
ATOM     16  H   UNL     1      50.838   9.946  11.517  0.00  0.00    +0.000 HD
ENDBRANCH   4  13
ENDBRANCH   1   8
BRANCH   1  17
ATOM     17  C   UNL     1      45.263   4.711  12.026  0.00  0.00    +0.000 A 
ATOM     18  C   UNL     1      44.003   5.303  11.836  0.00  0.00    +0.000 A 
ATOM     19  C   UNL     1      43.267   5.090  10.672  0.00  0.00    +0.000 A 
ATOM     20  C   UNL     1      43.801   4.311   9.647  0.00  0.00    +0.000 A 
ATOM     21  C   UNL     1      45.074   3.728   9.765  0.00  0.00    +0.000 A 
ATOM     22  C   UNL     1      45.762   3.907  10.981  0.00  0.00    +0.000 A 
BRANCH  21  23
ATOM     23  C   UNL     1      45.709   3.028   8.630  0.00  0.00    +0.000 A 
ATOM     24  C   UNL     1      46.144   3.722   7.495  0.00  0.00    +0.000 A 
ATOM     25  C   UNL     1      46.785   3.030   6.473  0.00  0.00    +0.000 A 
ATOM     26  C   UNL     1      46.979   1.666   6.602  0.00  0.00    +0.000 A 
ATOM     27  C   UNL     1      46.523   1.052   7.754  0.00  0.00    +0.000 A 
ATOM     28  F   UNL     1      46.723  -0.267   7.888  0.00  0.00    +0.000 F 
ATOM     29  N   UNL     1      45.903   1.694   8.767  0.00  0.00    +0.000 NA
ENDBRANCH  21  23
ENDBRANCH   1  17
TORSDOF 4
ENDMDL
MODEL 4
REMARK VINA RESULT:    -7.305      4.101      8.306
REMARK INTER + INTRA:          -9.943
REMARK INTER:                  -8.883
REMARK INTRA:                  -1.060
REMARK UNBOUND:                -0.929
REMARK  Name = 
REMARK  4 active torsions:
REMARK  status: ('A' for Active; 'I' for Inactive)
REMARK    1  A    between atoms: C_2  and  C_4
REMARK    2  A    between atoms: N_8  and  C_9
REMARK    3  A    between atoms: C_9  and  C_10
REMARK    4  A    between atoms: C_14  and  C_15
REMARK                            x       y       z     vdW  Elec       q    Type
REMARK                         _______ _______ _______ _____ _____    ______ ____
ROOT
ATOM      1  C   UNL     1      49.010   7.965  12.667  0.00  0.00    +0.000 C 
ATOM      2  C   UNL     1      49.985   8.193  11.516  0.00  0.00    +0.000 C 
ATOM      3  C   UNL     1      49.657   9.318  12.439  0.00  0.00    +0.000 C 
ENDROOT
BRANCH   1   8
ATOM      4  C   UNL     1      48.396   6.819  17.697  0.00  0.00    +0.000 A 
ATOM      5  C   UNL     1      48.494   8.070  17.100  0.00  0.00    +0.000 A 
ATOM      6  C   UNL     1      48.819   8.157  15.745  0.00  0.00    +0.000 A 
ATOM      7  C   UNL     1      49.052   6.997  15.016  0.00  0.00    +0.000 A 
ATOM      8  N   UNL     1      49.485   7.007  13.685  0.00  0.00    +0.000 N 
ATOM      9  N   UNL     1      48.967   5.775  15.585  0.00  0.00    +0.000 NA
ATOM     10  C   UNL     1      48.647   5.708  16.905  0.00  0.00    +0.000 A 
ATOM     11  H   UNL     1      49.495   6.030  13.399  0.00  0.00    +0.000 HD
BRANCH   4  13
ATOM     12  N   UNL     1      47.153   5.678  19.444  0.00  0.00    +0.000 N 
ATOM     13  C   UNL     1      48.086   6.628  19.129  0.00  0.00    +0.000 C 
ATOM     14  O   UNL     1      48.653   7.271  20.000  0.00  0.00    +0.000 OA
ATOM     15  H   UNL     1      47.008   5.500  20.431  0.00  0.00    +0.000 HD
ATOM     16  H   UNL     1      46.842   4.975  18.790  0.00  0.00    +0.000 HD
ENDBRANCH   4  13
ENDBRANCH   1   8
BRANCH   1  17
ATOM     17  C   UNL     1      47.527   7.808  12.339  0.00  0.00    +0.000 A 
ATOM     18  C   UNL     1      46.622   8.867  12.520  0.00  0.00    +0.000 A 
ATOM     19  C   UNL     1      45.281   8.747  12.159  0.00  0.00    +0.000 A 
ATOM     20  C   UNL     1      44.825   7.572  11.564  0.00  0.00    +0.000 A 
ATOM     21  C   UNL     1      45.695   6.496  11.322  0.00  0.00    +0.000 A 
ATOM     22  C   UNL     1      47.027   6.624  11.760  0.00  0.00    +0.000 A 
BRANCH  21  23
ATOM     23  C   UNL     1      45.259   5.309  10.559  0.00  0.00    +0.000 A 
ATOM     24  C   UNL     1      45.662   5.102   9.235  0.00  0.00    +0.000 A 
ATOM     25  C   UNL     1      45.270   3.944   8.573  0.00  0.00    +0.000 A 
ATOM     26  C   UNL     1      44.488   3.019   9.241  0.00  0.00    +0.000 A 
ATOM     27  C   UNL     1      44.132   3.292  10.548  0.00  0.00    +0.000 A 
ATOM     28  F   UNL     1      43.386   2.390  11.203  0.00  0.00    +0.000 F 
ATOM     29  N   UNL     1      44.499   4.403  11.222  0.00  0.00    +0.000 NA
ENDBRANCH  21  23
ENDBRANCH   1  17
TORSDOF 4
ENDMDL
MODEL 5
REMARK VINA RESULT:    -7.277      3.627      7.728
REMARK INTER + INTRA:          -9.908
REMARK INTER:                  -9.848
REMARK INTRA:                  -0.059
REMARK UNBOUND:                -0.929
REMARK  Name = 
REMARK  4 active torsions:
REMARK  status: ('A' for Active; 'I' for Inactive)
REMARK    1  A    between atoms: C_2  and  C_4
REMARK    2  A    between atoms: N_8  and  C_9
REMARK    3  A    between atoms: C_9  and  C_10
REMARK    4  A    between atoms: C_14  and  C_15
REMARK                            x       y       z     vdW  Elec       q    Type
REMARK                         _______ _______ _______ _____ _____    ______ ____
ROOT
ATOM      1  C   UNL     1      48.600   7.814  12.751  0.00  0.00    +0.000 C 
ATOM      2  C   UNL     1      49.757   7.172  11.991  0.00  0.00    +0.000 C 
ATOM      3  C   UNL     1      49.538   8.644  11.896  0.00  0.00    +0.000 C 
ENDROOT
BRANCH   1   8
ATOM      4  C   UNL     1      48.019   4.406  16.629  0.00  0.00    +0.000 A 
ATOM      5  C   UNL     1      47.223   4.581  15.503  0.00  0.00    +0.000 A 
ATOM      6  C   UNL     1      47.462   5.666  14.658  0.00  0.00    +0.000 A 
ATOM      7  C   UNL     1      48.482   6.561  14.958  0.00  0.00    +0.000 A 
ATOM      8  N   UNL     1      48.714   7.727  14.220  0.00  0.00    +0.000 N 
ATOM      9  N   UNL     1      49.258   6.407  16.052  0.00  0.00    +0.000 NA
ATOM     10  C   UNL     1      49.013   5.343  16.863  0.00  0.00    +0.000 A 
ATOM     11  H   UNL     1      49.557   8.135  14.621  0.00  0.00    +0.000 HD
BRANCH   4  13
ATOM     12  N   UNL     1      48.834   3.068  18.485  0.00  0.00    +0.000 N 
ATOM     13  C   UNL     1      47.822   3.306  17.595  0.00  0.00    +0.000 C 
ATOM     14  O   UNL     1      46.792   2.649  17.619  0.00  0.00    +0.000 OA
ATOM     15  H   UNL     1      48.655   2.367  19.194  0.00  0.00    +0.000 HD
ATOM     16  H   UNL     1      49.583   3.723  18.653  0.00  0.00    +0.000 HD
ENDBRANCH   4  13
ENDBRANCH   1   8
BRANCH   1  17
ATOM     17  C   UNL     1      47.180   7.575  12.243  0.00  0.00    +0.000 A 
ATOM     18  C   UNL     1      46.199   8.578  12.313  0.00  0.00    +0.000 A 
ATOM     19  C   UNL     1      44.922   8.385  11.790  0.00  0.00    +0.000 A 
ATOM     20  C   UNL     1      44.612   7.191  11.141  0.00  0.00    +0.000 A 
ATOM     21  C   UNL     1      45.566   6.169  11.005  0.00  0.00    +0.000 A 
ATOM     22  C   UNL     1      46.825   6.369  11.605  0.00  0.00    +0.000 A 
BRANCH  21  23
ATOM     23  C   UNL     1      45.296   4.965  10.193  0.00  0.00    +0.000 A 
ATOM     24  C   UNL     1      44.547   3.897  10.697  0.00  0.00    +0.000 A 
ATOM     25  C   UNL     1      44.272   2.806   9.878  0.00  0.00    +0.000 A 
ATOM     26  C   UNL     1      44.747   2.804   8.579  0.00  0.00    +0.000 A 
ATOM     27  C   UNL     1      45.478   3.898   8.152  0.00  0.00    +0.000 A 
ATOM     28  F   UNL     1      45.927   3.904   6.889  0.00  0.00    +0.000 F 
ATOM     29  N   UNL     1      45.757   4.974   8.918  0.00  0.00    +0.000 NA
ENDBRANCH  21  23
ENDBRANCH   1  17
TORSDOF 4
ENDMDL
MODEL 6
REMARK VINA RESULT:    -6.911      2.984      4.575
REMARK INTER + INTRA:          -9.457
REMARK INTER:                  -8.983
REMARK INTRA:                  -0.474
REMARK UNBOUND:                -0.929
REMARK  Name = 
REMARK  4 active torsions:
REMARK  status: ('A' for Active; 'I' for Inactive)
REMARK    1  A    between atoms: C_2  and  C_4
REMARK    2  A    between atoms: N_8  and  C_9
REMARK    3  A    between atoms: C_9  and  C_10
REMARK    4  A    between atoms: C_14  and  C_15
REMARK                            x       y       z     vdW  Elec       q    Type
REMARK                         _______ _______ _______ _____ _____    ______ ____
ROOT
ATOM      1  C   UNL     1      47.249   8.454  13.224  0.00  0.00    +0.000 C 
ATOM      2  C   UNL     1      47.395   9.833  12.588  0.00  0.00    +0.000 C 
ATOM      3  C   UNL     1      48.078   8.660  11.971  0.00  0.00    +0.000 C 
ENDROOT
BRANCH   1   8
ATOM      4  C   UNL     1      44.581   4.329  11.533  0.00  0.00    +0.000 A 
ATOM      5  C   UNL     1      45.601   5.023  10.892  0.00  0.00    +0.000 A 
ATOM      6  C   UNL     1      46.079   6.208  11.454  0.00  0.00    +0.000 A 
ATOM      7  C   UNL     1      45.523   6.684  12.635  0.00  0.00    +0.000 A 
ATOM      8  N   UNL     1      45.875   7.915  13.201  0.00  0.00    +0.000 N 
ATOM      9  N   UNL     1      44.527   6.024  13.264  0.00  0.00    +0.000 NA
ATOM     10  C   UNL     1      44.076   4.870  12.705  0.00  0.00    +0.000 A 
ATOM     11  H   UNL     1      45.370   7.958  14.084  0.00  0.00    +0.000 HD
BRANCH   4  13
ATOM     12  N   UNL     1      44.675   2.449   9.998  0.00  0.00    +0.000 N 
ATOM     13  C   UNL     1      43.993   3.083  11.000  0.00  0.00    +0.000 C 
ATOM     14  O   UNL     1      42.955   2.620  11.451  0.00  0.00    +0.000 OA
ATOM     15  H   UNL     1      44.306   1.555   9.697  0.00  0.00    +0.000 HD
ATOM     16  H   UNL     1      45.634   2.662   9.765  0.00  0.00    +0.000 HD
ENDBRANCH   4  13
ENDBRANCH   1   8
BRANCH   1  17
ATOM     17  C   UNL     1      47.979   8.182  14.538  0.00  0.00    +0.000 A 
ATOM     18  C   UNL     1      48.285   9.220  15.434  0.00  0.00    +0.000 A 
ATOM     19  C   UNL     1      48.891   8.965  16.662  0.00  0.00    +0.000 A 
ATOM     20  C   UNL     1      49.165   7.652  17.041  0.00  0.00    +0.000 A 
ATOM     21  C   UNL     1      48.844   6.572  16.203  0.00  0.00    +0.000 A 
ATOM     22  C   UNL     1      48.295   6.868  14.940  0.00  0.00    +0.000 A 
BRANCH  21  23
ATOM     23  C   UNL     1      48.992   5.174  16.656  0.00  0.00    +0.000 A 
ATOM     24  C   UNL     1      47.911   4.286  16.652  0.00  0.00    +0.000 A 
ATOM     25  C   UNL     1      48.108   2.964  17.037  0.00  0.00    +0.000 A 
ATOM     26  C   UNL     1      49.375   2.556  17.417  0.00  0.00    +0.000 A 
ATOM     27  C   UNL     1      50.393   3.491  17.393  0.00  0.00    +0.000 A 
ATOM     28  F   UNL     1      51.624   3.095  17.747  0.00  0.00    +0.000 F 
ATOM     29  N   UNL     1      50.237   4.779  17.019  0.00  0.00    +0.000 NA
ENDBRANCH  21  23
ENDBRANCH   1  17
TORSDOF 4
ENDMDL
MODEL 7
REMARK VINA RESULT:    -6.791      3.680      5.438
REMARK INTER + INTRA:          -9.309
REMARK INTER:                  -8.159
REMARK INTRA:                  -1.150
REMARK UNBOUND:                -0.929
REMARK  Name = 
REMARK  4 active torsions:
REMARK  status: ('A' for Active; 'I' for Inactive)
REMARK    1  A    between atoms: C_2  and  C_4
REMARK    2  A    between atoms: N_8  and  C_9
REMARK    3  A    between atoms: C_9  and  C_10
REMARK    4  A    between atoms: C_14  and  C_15
REMARK                            x       y       z     vdW  Elec       q    Type
REMARK                         _______ _______ _______ _____ _____    ______ ____
ROOT
ATOM      1  C   UNL     1      49.170   8.500  12.777  0.00  0.00    +0.000 C 
ATOM      2  C   UNL     1      50.380   9.285  12.279  0.00  0.00    +0.000 C 
ATOM      3  C   UNL     1      50.314   7.812  12.056  0.00  0.00    +0.000 C 
ENDROOT
BRANCH   1   8
ATOM      4  C   UNL     1      44.571   6.427  11.536  0.00  0.00    +0.000 A 
ATOM      5  C   UNL     1      45.831   5.845  11.463  0.00  0.00    +0.000 A 
ATOM      6  C   UNL     1      46.961   6.631  11.693  0.00  0.00    +0.000 A 
ATOM      7  C   UNL     1      46.814   7.983  11.978  0.00  0.00    +0.000 A 
ATOM      8  N   UNL     1      47.900   8.856  12.115  0.00  0.00    +0.000 N 
ATOM      9  N   UNL     1      45.596   8.563  12.046  0.00  0.00    +0.000 NA
ATOM     10  C   UNL     1      44.506   7.782  11.822  0.00  0.00    +0.000 A 
ATOM     11  H   UNL     1      47.494   9.747  12.393  0.00  0.00    +0.000 HD
BRANCH   4  13
ATOM     12  N   UNL     1      42.157   6.244  11.730  0.00  0.00    +0.000 N 
ATOM     13  C   UNL     1      43.321   5.682  11.281  0.00  0.00    +0.000 C 
ATOM     14  O   UNL     1      43.317   4.622  10.673  0.00  0.00    +0.000 OA
ATOM     15  H   UNL     1      41.299   5.767  11.479  0.00  0.00    +0.000 HD
ATOM     16  H   UNL     1      42.088   7.209  12.019  0.00  0.00    +0.000 HD
ENDBRANCH   4  13
ENDBRANCH   1   8
BRANCH   1  17
ATOM     17  C   UNL     1      49.023   8.273  14.280  0.00  0.00    +0.000 A 
ATOM     18  C   UNL     1      48.687   9.325  15.149  0.00  0.00    +0.000 A 
ATOM     19  C   UNL     1      48.487   9.107  16.511  0.00  0.00    +0.000 A 
ATOM     20  C   UNL     1      48.576   7.816  17.027  0.00  0.00    +0.000 A 
ATOM     21  C   UNL     1      48.869   6.720  16.197  0.00  0.00    +0.000 A 
ATOM     22  C   UNL     1      49.132   6.984  14.839  0.00  0.00    +0.000 A 
BRANCH  21  23
ATOM     23  C   UNL     1      48.818   5.334  16.705  0.00  0.00    +0.000 A 
ATOM     24  C   UNL     1      47.611   4.631  16.789  0.00  0.00    +0.000 A 
ATOM     25  C   UNL     1      47.617   3.310  17.223  0.00  0.00    +0.000 A 
ATOM     26  C   UNL     1      48.821   2.718  17.562  0.00  0.00    +0.000 A 
ATOM     27  C   UNL     1      49.971   3.477  17.451  0.00  0.00    +0.000 A 
ATOM     28  F   UNL     1      51.141   2.901  17.765  0.00  0.00    +0.000 F 
ATOM     29  N   UNL     1      50.002   4.759  17.028  0.00  0.00    +0.000 NA
ENDBRANCH  21  23
ENDBRANCH   1  17
TORSDOF 4
ENDMDL
