MODEL 1
REMARK VINA RESULT:    -7.218      0.000      0.000
REMARK INTER + INTRA:         -10.143
REMARK INTER:                  -9.328
REMARK INTRA:                  -0.815
REMARK UNBOUND:                -0.815
REMARK  Name = 
REMARK  5 active torsions:
REMARK  status: ('A' for Active; 'I' for Inactive)
REMARK    1  A    between atoms: C_2  and  C_5
REMARK    2  A    between atoms: C_9  and  O_10
REMARK    3  A    between atoms: O_10  and  C_11
REMARK    4  A    between atoms: C_11  and  C_12
REMARK    5  A    between atoms: C_16  and  N_17
REMARK                            x       y       z     vdW  Elec       q    Type
REMARK                         _______ _______ _______ _____ _____    ______ ____
ROOT
ATOM      1  C   UNL     1      43.441   5.185  10.951  0.00  0.00    +0.000 C 
ENDROOT
BRANCH   1   2
ATOM      2  C   UNL     1      44.496   6.067  11.569  0.00  0.00    +0.000 A 
ATOM      3  C   UNL     1      44.396   7.460  11.502  0.00  0.00    +0.000 A 
ATOM      4  C   UNL     1      45.324   8.253  12.167  0.00  0.00    +0.000 A 
ATOM      5  C   UNL     1      46.343   7.664  12.919  0.00  0.00    +0.000 A 
ATOM      6  C   UNL     1      46.470   6.268  13.019  0.00  0.00    +0.000 A 
ATOM      7  C   UNL     1      45.550   5.496  12.299  0.00  0.00    +0.000 A 
BRANCH   6   8
ATOM      8  N   UNL     1      47.449   5.700  13.807  0.00  0.00    +0.000 N 
ATOM      9  C   UNL     1      47.324   4.359  14.389  0.00  0.00    +0.000 C 
ATOM     10  C   UNL     1      47.404   4.432  15.919  0.00  0.00    +0.000 C 
ATOM     11  O   UNL     1      48.602   5.099  16.352  0.00  0.00    +0.000 OA
ATOM     12  C   UNL     1      48.633   6.442  15.841  0.00  0.00    +0.000 C 
ATOM     13  C   UNL     1      48.598   6.477  14.302  0.00  0.00    +0.000 C 
ENDBRANCH   6   8
ENDBRANCH   1   2
BRANCH   1  14
ATOM     14  O   UNL     1      43.580   5.104   9.527  0.00  0.00    +0.000 OA
BRANCH  14  19
ATOM     15  C   UNL     1      45.871   3.002   7.769  0.00  0.00    +0.000 A 
ATOM     16  N   UNL     1      45.782   1.824   8.429  0.00  0.00    +0.000 NA
ATOM     17  C   UNL     1      44.931   1.770   9.472  0.00  0.00    +0.000 A 
ATOM     18  C   UNL     1      44.164   2.837   9.886  0.00  0.00    +0.000 A 
ATOM     19  C   UNL     1      44.316   3.991   9.157  0.00  0.00    +0.000 A 
ATOM     20  N   UNL     1      45.148   4.093   8.107  0.00  0.00    +0.000 NA
BRANCH  15  22
ATOM     21  F   UNL     1      48.141   2.876   6.894  0.00  0.00    +0.000 F 
ATOM     22  C   UNL     1      46.838   3.145   6.590  0.00  0.00    +0.000 C 
ATOM     23  F   UNL     1      46.842   4.407   6.062  0.00  0.00    +0.000 F 
ATOM     24  F   UNL     1      46.528   2.317   5.547  0.00  0.00    +0.000 F 
ENDBRANCH  15  22
ENDBRANCH  14  19
ENDBRANCH   1  14
TORSDOF 5
ENDMDL
MODEL 2
REMARK VINA RESULT:    -7.128      1.257      2.073
REMARK INTER + INTRA:         -10.027
REMARK INTER:                  -9.289
REMARK INTRA:                  -0.738
REMARK UNBOUND:                -0.815
REMARK  Name = 
REMARK  5 active torsions:
REMARK  status: ('A' for Active; 'I' for Inactive)
REMARK    1  A    between atoms: C_2  and  C_5
REMARK    2  A    between atoms: C_9  and  O_10
REMARK    3  A    between atoms: O_10  and  C_11
REMARK    4  A    between atoms: C_11  and  C_12
REMARK    5  A    between atoms: C_16  and  N_17
REMARK                            x       y       z     vdW  Elec       q    Type
REMARK                         _______ _______ _______ _____ _____    ______ ____
ROOT
ATOM      1  C   UNL     1      45.089   5.749  11.413  0.00  0.00    +0.000 C 
ENDROOT
BRANCH   1   2
ATOM      2  C   UNL     1      46.360   6.007  12.182  0.00  0.00    +0.000 A 
ATOM      3  C   UNL     1      47.340   6.868  11.679  0.00  0.00    +0.000 A 
ATOM      4  C   UNL     1      48.455   7.172  12.452  0.00  0.00    +0.000 A 
ATOM      5  C   UNL     1      48.589   6.637  13.736  0.00  0.00    +0.000 A 
ATOM      6  C   UNL     1      47.620   5.777  14.279  0.00  0.00    +0.000 A 
ATOM      7  C   UNL     1      46.533   5.452  13.460  0.00  0.00    +0.000 A 
BRANCH   6   8
ATOM      8  N   UNL     1      47.739   5.299  15.567  0.00  0.00    +0.000 N 
ATOM      9  C   UNL     1      48.643   5.894  16.558  0.00  0.00    +0.000 C 
ATOM     10  C   UNL     1      49.662   4.854  17.043  0.00  0.00    +0.000 C 
ATOM     11  O   UNL     1      49.010   3.675  17.546  0.00  0.00    +0.000 OA
ATOM     12  C   UNL     1      48.215   3.069  16.513  0.00  0.00    +0.000 C 
ATOM     13  C   UNL     1      47.129   4.024  15.983  0.00  0.00    +0.000 C 
ENDBRANCH   6   8
ENDBRANCH   1   2
BRANCH   1  14
ATOM     14  O   UNL     1      45.307   5.777   9.996  0.00  0.00    +0.000 OA
BRANCH  14  19
ATOM     15  C   UNL     1      46.022   2.994   7.875  0.00  0.00    +0.000 A 
ATOM     16  N   UNL     1      45.277   1.997   8.407  0.00  0.00    +0.000 NA
ATOM     17  C   UNL     1      44.537   2.300   9.491  0.00  0.00    +0.000 A 
ATOM     18  C   UNL     1      44.505   3.550  10.068  0.00  0.00    +0.000 A 
ATOM     19  C   UNL     1      45.288   4.500   9.460  0.00  0.00    +0.000 A 
ATOM     20  N   UNL     1      46.040   4.249   8.375  0.00  0.00    +0.000 NA
BRANCH  15  22
ATOM     21  F   UNL     1      46.800   1.452   6.157  0.00  0.00    +0.000 F 
ATOM     22  C   UNL     1      46.909   2.718   6.658  0.00  0.00    +0.000 C 
ATOM     23  F   UNL     1      48.240   2.888   6.925  0.00  0.00    +0.000 F 
ATOM     24  F   UNL     1      46.642   3.551   5.606  0.00  0.00    +0.000 F 
ENDBRANCH  15  22
ENDBRANCH  14  19
ENDBRANCH   1  14
TORSDOF 5
ENDMDL
MODEL 3
REMARK VINA RESULT:    -7.111      2.101      3.251
REMARK INTER + INTRA:         -10.004
REMARK INTER:                  -9.755
REMARK INTRA:                  -0.249
REMARK UNBOUND:                -0.815
REMARK  Name = 
REMARK  5 active torsions:
REMARK  status: ('A' for Active; 'I' for Inactive)
REMARK    1  A    between atoms: C_2  and  C_5
REMARK    2  A    between atoms: C_9  and  O_10
REMARK    3  A    between atoms: O_10  and  C_11
REMARK    4  A    between atoms: C_11  and  C_12
REMARK    5  A    between atoms: C_16  and  N_17
REMARK                            x       y       z     vdW  Elec       q    Type
REMARK                         _______ _______ _______ _____ _____    ______ ____
ROOT
ATOM      1  C   UNL     1      43.519   3.719  11.508  0.00  0.00    +0.000 C 
ENDROOT
BRANCH   1   2
ATOM      2  C   UNL     1      44.709   4.176  12.313  0.00  0.00    +0.000 A 
ATOM      3  C   UNL     1      45.636   3.254  12.810  0.00  0.00    +0.000 A 
ATOM      4  C   UNL     1      46.779   3.704  13.459  0.00  0.00    +0.000 A 
ATOM      5  C   UNL     1      47.016   5.074  13.600  0.00  0.00    +0.000 A 
ATOM      6  C   UNL     1      46.114   6.030  13.105  0.00  0.00    +0.000 A 
ATOM      7  C   UNL     1      44.949   5.547  12.498  0.00  0.00    +0.000 A 
BRANCH   6   8
ATOM      8  N   UNL     1      46.385   7.379  13.203  0.00  0.00    +0.000 N 
ATOM      9  C   UNL     1      45.408   8.416  12.855  0.00  0.00    +0.000 C 
ATOM     10  C   UNL     1      45.954   9.310  11.734  0.00  0.00    +0.000 C 
ATOM     11  O   UNL     1      47.232   9.868  12.083  0.00  0.00    +0.000 OA
ATOM     12  C   UNL     1      48.185   8.817  12.316  0.00  0.00    +0.000 C 
ATOM     13  C   UNL     1      47.746   7.882  13.459  0.00  0.00    +0.000 C 
ENDBRANCH   6   8
ENDBRANCH   1   2
BRANCH   1  14
ATOM     14  O   UNL     1      43.837   2.595  10.676  0.00  0.00    +0.000 OA
BRANCH  14  19
ATOM     15  C   UNL     1      46.170   2.386   7.980  0.00  0.00    +0.000 A 
ATOM     16  N   UNL     1      46.265   3.666   7.551  0.00  0.00    +0.000 NA
ATOM     17  C   UNL     1      45.523   4.585   8.199  0.00  0.00    +0.000 A 
ATOM     18  C   UNL     1      44.691   4.286   9.255  0.00  0.00    +0.000 A 
ATOM     19  C   UNL     1      44.660   2.964   9.626  0.00  0.00    +0.000 A 
ATOM     20  N   UNL     1      45.385   2.012   9.014  0.00  0.00    +0.000 NA
BRANCH  15  22
ATOM     21  F   UNL     1      48.320   1.421   7.365  0.00  0.00    +0.000 F 
ATOM     22  C   UNL     1      46.965   1.284   7.275  0.00  0.00    +0.000 C 
ATOM     23  F   UNL     1      46.696   1.214   5.936  0.00  0.00    +0.000 F 
ATOM     24  F   UNL     1      46.691   0.036   7.765  0.00  0.00    +0.000 F 
ENDBRANCH  15  22
ENDBRANCH  14  19
ENDBRANCH   1  14
TORSDOF 5
ENDMDL
MODEL 4
REMARK VINA RESULT:    -6.965      4.097      7.622
REMARK INTER + INTRA:          -9.815
REMARK INTER:                  -9.157
REMARK INTRA:                  -0.658
REMARK UNBOUND:                -0.815
REMARK  Name = 
REMARK  5 active torsions:
REMARK  status: ('A' for Active; 'I' for Inactive)
REMARK    1  A    between atoms: C_2  and  C_5
REMARK    2  A    between atoms: C_9  and  O_10
REMARK    3  A    between atoms: O_10  and  C_11
REMARK    4  A    between atoms: C_11  and  C_12
REMARK    5  A    between atoms: C_16  and  N_17
REMARK                            x       y       z     vdW  Elec       q    Type
REMARK                         _______ _______ _______ _____ _____    ______ ____
ROOT
ATOM      1  C   UNL     1      45.695   6.254  12.745  0.00  0.00    +0.000 C 
ENDROOT
BRANCH   1   2
ATOM      2  C   UNL     1      45.008   5.003  12.260  0.00  0.00    +0.000 A 
ATOM      3  C   UNL     1      44.038   4.368  13.041  0.00  0.00    +0.000 A 
ATOM      4  C   UNL     1      43.344   3.277  12.530  0.00  0.00    +0.000 A 
ATOM      5  C   UNL     1      43.598   2.826  11.232  0.00  0.00    +0.000 A 
ATOM      6  C   UNL     1      44.558   3.444  10.414  0.00  0.00    +0.000 A 
ATOM      7  C   UNL     1      45.274   4.509  10.972  0.00  0.00    +0.000 A 
BRANCH   6   8
ATOM      8  N   UNL     1      44.761   3.022   9.117  0.00  0.00    +0.000 N 
ATOM      9  C   UNL     1      44.980   1.615   8.762  0.00  0.00    +0.000 C 
ATOM     10  C   UNL     1      46.339   1.443   8.073  0.00  0.00    +0.000 C 
ATOM     11  O   UNL     1      46.465   2.313   6.934  0.00  0.00    +0.000 OA
ATOM     12  C   UNL     1      46.345   3.686   7.344  0.00  0.00    +0.000 C 
ATOM     13  C   UNL     1      44.989   3.973   8.015  0.00  0.00    +0.000 C 
ENDBRANCH   6   8
ENDBRANCH   1   2
BRANCH   1  14
ATOM     14  O   UNL     1      47.113   6.198  12.543  0.00  0.00    +0.000 OA
BRANCH  14  19
ATOM     15  C   UNL     1      48.200   5.229  15.804  0.00  0.00    +0.000 A 
ATOM     16  N   UNL     1      49.128   6.164  16.114  0.00  0.00    +0.000 NA
ATOM     17  C   UNL     1      49.367   7.117  15.192  0.00  0.00    +0.000 A 
ATOM     18  C   UNL     1      48.721   7.181  13.977  0.00  0.00    +0.000 A 
ATOM     19  C   UNL     1      47.792   6.195  13.750  0.00  0.00    +0.000 A 
ATOM     20  N   UNL     1      47.516   5.226  14.639  0.00  0.00    +0.000 NA
BRANCH  15  22
ATOM     21  F   UNL     1      48.958   3.719  17.559  0.00  0.00    +0.000 F 
ATOM     22  C   UNL     1      47.894   4.100  16.793  0.00  0.00    +0.000 C 
ATOM     23  F   UNL     1      47.467   2.958  16.173  0.00  0.00    +0.000 F 
ATOM     24  F   UNL     1      46.904   4.423  17.679  0.00  0.00    +0.000 F 
ENDBRANCH  15  22
ENDBRANCH  14  19
ENDBRANCH   1  14
TORSDOF 5
ENDMDL
MODEL 5
REMARK VINA RESULT:    -6.835      3.833      7.419
REMARK INTER + INTRA:          -9.648
REMARK INTER:                  -8.867
REMARK INTRA:                  -0.781
REMARK UNBOUND:                -0.815
REMARK  Name = 
REMARK  5 active torsions:
REMARK  status: ('A' for Active; 'I' for Inactive)
REMARK    1  A    between atoms: C_2  and  C_5
REMARK    2  A    between atoms: C_9  and  O_10
REMARK    3  A    between atoms: O_10  and  C_11
REMARK    4  A    between atoms: C_11  and  C_12
REMARK    5  A    between atoms: C_16  and  N_17
REMARK                            x       y       z     vdW  Elec       q    Type
REMARK                         _______ _______ _______ _____ _____    ______ ____
ROOT
ATOM      1  C   UNL     1      48.387   6.574  13.193  0.00  0.00    +0.000 C 
ENDROOT
BRANCH   1   2
ATOM      2  C   UNL     1      47.006   6.880  12.671  0.00  0.00    +0.000 A 
ATOM      3  C   UNL     1      46.534   8.195  12.619  0.00  0.00    +0.000 A 
ATOM      4  C   UNL     1      45.300   8.464  12.038  0.00  0.00    +0.000 A 
ATOM      5  C   UNL     1      44.540   7.429  11.487  0.00  0.00    +0.000 A 
ATOM      6  C   UNL     1      44.986   6.097  11.511  0.00  0.00    +0.000 A 
ATOM      7  C   UNL     1      46.209   5.851  12.145  0.00  0.00    +0.000 A 
BRANCH   6   8
ATOM      8  N   UNL     1      44.250   5.093  10.917  0.00  0.00    +0.000 N 
ATOM      9  C   UNL     1      43.095   4.462  11.566  0.00  0.00    +0.000 C 
ATOM     10  C   UNL     1      43.332   2.955  11.728  0.00  0.00    +0.000 C 
ATOM     11  O   UNL     1      43.651   2.334  10.470  0.00  0.00    +0.000 OA
ATOM     12  C   UNL     1      44.846   2.915   9.921  0.00  0.00    +0.000 C 
ATOM     13  C   UNL     1      44.696   4.429   9.681  0.00  0.00    +0.000 C 
ENDBRANCH   6   8
ENDBRANCH   1   2
BRANCH   1  14
ATOM     14  O   UNL     1      48.736   7.412  14.303  0.00  0.00    +0.000 OA
BRANCH  14  19
ATOM     15  C   UNL     1      48.308   4.740  16.635  0.00  0.00    +0.000 A 
ATOM     16  N   UNL     1      48.579   5.321  17.827  0.00  0.00    +0.000 NA
ATOM     17  C   UNL     1      48.904   6.628  17.810  0.00  0.00    +0.000 A 
ATOM     18  C   UNL     1      48.972   7.383  16.660  0.00  0.00    +0.000 A 
ATOM     19  C   UNL     1      48.678   6.713  15.497  0.00  0.00    +0.000 A 
ATOM     20  N   UNL     1      48.344   5.411  15.463  0.00  0.00    +0.000 NA
BRANCH  15  22
ATOM     21  F   UNL     1      48.947   2.420  17.011  0.00  0.00    +0.000 F 
ATOM     22  C   UNL     1      47.956   3.252  16.574  0.00  0.00    +0.000 C 
ATOM     23  F   UNL     1      47.663   2.830  15.306  0.00  0.00    +0.000 F 
ATOM     24  F   UNL     1      46.857   2.935  17.324  0.00  0.00    +0.000 F 
ENDBRANCH  15  22
ENDBRANCH  14  19
ENDBRANCH   1  14
TORSDOF 5
ENDMDL
MODEL 6
REMARK VINA RESULT:    -6.792      2.016      3.222
REMARK INTER + INTRA:          -9.593
REMARK INTER:                  -8.857
REMARK INTRA:                  -0.735
REMARK UNBOUND:                -0.815
REMARK  Name = 
REMARK  5 active torsions:
REMARK  status: ('A' for Active; 'I' for Inactive)
REMARK    1  A    between atoms: C_2  and  C_5
REMARK    2  A    between atoms: C_9  and  O_10
REMARK    3  A    between atoms: O_10  and  C_11
REMARK    4  A    between atoms: C_11  and  C_12
REMARK    5  A    between atoms: C_16  and  N_17
REMARK                            x       y       z     vdW  Elec       q    Type
REMARK                         _______ _______ _______ _____ _____    ______ ____
ROOT
ATOM      1  C   UNL     1      46.531   6.622  11.748  0.00  0.00    +0.000 C 
ENDROOT
BRANCH   1   2
ATOM      2  C   UNL     1      47.606   6.724  12.801  0.00  0.00    +0.000 A 
ATOM      3  C   UNL     1      48.643   7.654  12.680  0.00  0.00    +0.000 A 
ATOM      4  C   UNL     1      49.563   7.802  13.712  0.00  0.00    +0.000 A 
ATOM      5  C   UNL     1      49.443   7.040  14.877  0.00  0.00    +0.000 A 
ATOM      6  C   UNL     1      48.409   6.103  15.039  0.00  0.00    +0.000 A 
ATOM      7  C   UNL     1      47.526   5.942  13.965  0.00  0.00    +0.000 A 
BRANCH   6   8
ATOM      8  N   UNL     1      48.271   5.396  16.215  0.00  0.00    +0.000 N 
ATOM      9  C   UNL     1      49.148   5.599  17.374  0.00  0.00    +0.000 C 
ATOM     10  C   UNL     1      49.871   4.294  17.731  0.00  0.00    +0.000 C 
ATOM     11  O   UNL     1      48.941   3.217  17.940  0.00  0.00    +0.000 OA
ATOM     12  C   UNL     1      48.173   2.987  16.746  0.00  0.00    +0.000 C 
ATOM     13  C   UNL     1      47.373   4.234  16.324  0.00  0.00    +0.000 C 
ENDBRANCH   6   8
ENDBRANCH   1   2
BRANCH   1  14
ATOM     14  O   UNL     1      45.279   6.199  12.303  0.00  0.00    +0.000 OA
BRANCH  14  19
ATOM     15  C   UNL     1      44.802   3.689   9.808  0.00  0.00    +0.000 A 
ATOM     16  N   UNL     1      43.856   2.887  10.350  0.00  0.00    +0.000 NA
ATOM     17  C   UNL     1      43.395   3.224  11.570  0.00  0.00    +0.000 A 
ATOM     18  C   UNL     1      43.833   4.324  12.274  0.00  0.00    +0.000 A 
ATOM     19  C   UNL     1      44.790   5.083  11.646  0.00  0.00    +0.000 A 
ATOM     20  N   UNL     1      45.278   4.791  10.429  0.00  0.00    +0.000 NA
BRANCH  15  22
ATOM     21  F   UNL     1      44.466   3.229   7.440  0.00  0.00    +0.000 F 
ATOM     22  C   UNL     1      45.392   3.353   8.436  0.00  0.00    +0.000 C 
ATOM     23  F   UNL     1      46.086   2.175   8.434  0.00  0.00    +0.000 F 
ATOM     24  F   UNL     1      46.279   4.296   7.994  0.00  0.00    +0.000 F 
ENDBRANCH  15  22
ENDBRANCH  14  19
ENDBRANCH   1  14
TORSDOF 5
ENDMDL
MODEL 7
REMARK VINA RESULT:    -6.385      1.974      2.873
REMARK INTER + INTRA:          -9.066
REMARK INTER:                  -8.374
REMARK INTRA:                  -0.692
REMARK UNBOUND:                -0.815
REMARK  Name = 
REMARK  5 active torsions:
REMARK  status: ('A' for Active; 'I' for Inactive)
REMARK    1  A    between atoms: C_2  and  C_5
REMARK    2  A    between atoms: C_9  and  O_10
REMARK    3  A    between atoms: O_10  and  C_11
REMARK    4  A    between atoms: C_11  and  C_12
REMARK    5  A    between atoms: C_16  and  N_17
REMARK                            x       y       z     vdW  Elec       q    Type
REMARK                         _______ _______ _______ _____ _____    ______ ____
ROOT
ATOM      1  C   UNL     1      45.471   6.316  12.857  0.00  0.00    +0.000 C 
ENDROOT
BRANCH   1   2
ATOM      2  C   UNL     1      46.933   6.683  12.870  0.00  0.00    +0.000 A 
ATOM      3  C   UNL     1      47.537   7.263  11.751  0.00  0.00    +0.000 A 
ATOM      4  C   UNL     1      48.859   7.688  11.821  0.00  0.00    +0.000 A 
ATOM      5  C   UNL     1      49.578   7.557  13.012  0.00  0.00    +0.000 A 
ATOM      6  C   UNL     1      49.002   6.989  14.160  0.00  0.00    +0.000 A 
ATOM      7  C   UNL     1      47.686   6.527  14.045  0.00  0.00    +0.000 A 
BRANCH   6   8
ATOM      8  N   UNL     1      49.707   6.914  15.344  0.00  0.00    +0.000 N 
ATOM      9  C   UNL     1      49.187   6.239  16.538  0.00  0.00    +0.000 C 
ATOM     10  C   UNL     1      49.090   7.225  17.709  0.00  0.00    +0.000 C 
ATOM     11  O   UNL     1      50.351   7.871  17.959  0.00  0.00    +0.000 OA
ATOM     12  C   UNL     1      50.771   8.603  16.795  0.00  0.00    +0.000 C 
ATOM     13  C   UNL     1      50.939   7.690  15.566  0.00  0.00    +0.000 C 
ENDBRANCH   6   8
ENDBRANCH   1   2
BRANCH   1  14
ATOM     14  O   UNL     1      44.895   6.464  11.552  0.00  0.00    +0.000 OA
BRANCH  14  19
ATOM     15  C   UNL     1      45.149   3.756   9.237  0.00  0.00    +0.000 A 
ATOM     16  N   UNL     1      44.328   2.818   9.763  0.00  0.00    +0.000 NA
ATOM     17  C   UNL     1      43.696   3.134  10.911  0.00  0.00    +0.000 A 
ATOM     18  C   UNL     1      43.845   4.341  11.557  0.00  0.00    +0.000 A 
ATOM     19  C   UNL     1      44.694   5.233  10.950  0.00  0.00    +0.000 A 
ATOM     20  N   UNL     1      45.344   4.967   9.804  0.00  0.00    +0.000 NA
BRANCH  15  22
ATOM     21  F   UNL     1      45.139   3.350   6.835  0.00  0.00    +0.000 F 
ATOM     22  C   UNL     1      45.921   3.458   7.949  0.00  0.00    +0.000 C 
ATOM     23  F   UNL     1      46.624   2.286   8.013  0.00  0.00    +0.000 F 
ATOM     24  F   UNL     1      46.848   4.419   7.651  0.00  0.00    +0.000 F 
ENDBRANCH  15  22
ENDBRANCH  14  19
ENDBRANCH   1  14
TORSDOF 5
ENDMDL
MODEL 8
REMARK VINA RESULT:    -6.352      3.844      6.249
REMARK INTER + INTRA:          -9.024
REMARK INTER:                  -8.392
REMARK INTRA:                  -0.632
REMARK UNBOUND:                -0.815
REMARK  Name = 
REMARK  5 active torsions:
REMARK  status: ('A' for Active; 'I' for Inactive)
REMARK    1  A    between atoms: C_2  and  C_5
REMARK    2  A    between atoms: C_9  and  O_10
REMARK    3  A    between atoms: O_10  and  C_11
REMARK    4  A    between atoms: C_11  and  C_12
REMARK    5  A    between atoms: C_16  and  N_17
REMARK                            x       y       z     vdW  Elec       q    Type
REMARK                         _______ _______ _______ _____ _____    ______ ____
ROOT
ATOM      1  C   UNL     1      47.345   3.588  15.855  0.00  0.00    +0.000 C 
ENDROOT
BRANCH   1   2
ATOM      2  C   UNL     1      48.631   3.446  16.629  0.00  0.00    +0.000 A 
ATOM      3  C   UNL     1      49.321   2.230  16.657  0.00  0.00    +0.000 A 
ATOM      4  C   UNL     1      50.557   2.151  17.289  0.00  0.00    +0.000 A 
ATOM      5  C   UNL     1      51.120   3.286  17.879  0.00  0.00    +0.000 A 
ATOM      6  C   UNL     1      50.462   4.526  17.862  0.00  0.00    +0.000 A 
ATOM      7  C   UNL     1      49.199   4.564  17.260  0.00  0.00    +0.000 A 
BRANCH   6   8
ATOM      8  N   UNL     1      51.053   5.650  18.401  0.00  0.00    +0.000 N 
ATOM      9  C   UNL     1      51.122   5.898  19.845  0.00  0.00    +0.000 C 
ATOM     10  C   UNL     1      50.411   7.211  20.196  0.00  0.00    +0.000 C 
ATOM     11  O   UNL     1      50.933   8.313  19.432  0.00  0.00    +0.000 OA
ATOM     12  C   UNL     1      50.753   8.071  18.027  0.00  0.00    +0.000 C 
ATOM     13  C   UNL     1      51.469   6.788  17.564  0.00  0.00    +0.000 C 
ENDBRANCH   6   8
ENDBRANCH   1   2
BRANCH   1  14
ATOM     14  O   UNL     1      47.478   3.114  14.508  0.00  0.00    +0.000 OA
BRANCH  14  19
ATOM     15  C   UNL     1      44.917   3.983  12.174  0.00  0.00    +0.000 A 
ATOM     16  N   UNL     1      45.144   5.296  11.938  0.00  0.00    +0.000 NA
ATOM     17  C   UNL     1      46.178   5.864  12.587  0.00  0.00    +0.000 A 
ATOM     18  C   UNL     1      46.998   5.183  13.460  0.00  0.00    +0.000 A 
ATOM     19  C   UNL     1      46.697   3.855  13.636  0.00  0.00    +0.000 A 
ATOM     20  N   UNL     1      45.679   3.242  13.009  0.00  0.00    +0.000 NA
BRANCH  15  22
ATOM     21  F   UNL     1      44.040   2.739  10.272  0.00  0.00    +0.000 F 
ATOM     22  C   UNL     1      43.743   3.276  11.492  0.00  0.00    +0.000 C 
ATOM     23  F   UNL     1      42.681   4.109  11.272  0.00  0.00    +0.000 F 
ATOM     24  F   UNL     1      43.243   2.241  12.233  0.00  0.00    +0.000 F 
ENDBRANCH  15  22
ENDBRANCH  14  19
ENDBRANCH   1  14
TORSDOF 5
ENDMDL
MODEL 9
REMARK VINA RESULT:    -6.305      2.621      3.870
REMARK INTER + INTRA:          -8.963
REMARK INTER:                  -8.278
REMARK INTRA:                  -0.685
REMARK UNBOUND:                -0.815
REMARK  Name = 
REMARK  5 active torsions:
REMARK  status: ('A' for Active; 'I' for Inactive)
REMARK    1  A    between atoms: C_2  and  C_5
REMARK    2  A    between atoms: C_9  and  O_10
REMARK    3  A    between atoms: O_10  and  C_11
REMARK    4  A    between atoms: C_11  and  C_12
REMARK    5  A    between atoms: C_16  and  N_17
REMARK                            x       y       z     vdW  Elec       q    Type
REMARK                         _______ _______ _______ _____ _____    ______ ____
ROOT
ATOM      1  C   UNL     1      46.670   3.875  13.579  0.00  0.00    +0.000 C 
ENDROOT
BRANCH   1   2
ATOM      2  C   UNL     1      47.469   5.003  14.182  0.00  0.00    +0.000 A 
ATOM      3  C   UNL     1      47.717   6.174  13.459  0.00  0.00    +0.000 A 
ATOM      4  C   UNL     1      48.364   7.240  14.072  0.00  0.00    +0.000 A 
ATOM      5  C   UNL     1      48.749   7.155  15.412  0.00  0.00    +0.000 A 
ATOM      6  C   UNL     1      48.508   5.999  16.174  0.00  0.00    +0.000 A 
ATOM      7  C   UNL     1      47.898   4.925  15.517  0.00  0.00    +0.000 A 
BRANCH   6   8
ATOM      8  N   UNL     1      48.846   5.948  17.510  0.00  0.00    +0.000 N 
ATOM      9  C   UNL     1      49.559   4.814  18.108  0.00  0.00    +0.000 C 
ATOM     10  C   UNL     1      48.719   4.185  19.227  0.00  0.00    +0.000 C 
ATOM     11  O   UNL     1      48.337   5.162  20.211  0.00  0.00    +0.000 OA
ATOM     12  C   UNL     1      47.554   6.202  19.599  0.00  0.00    +0.000 C 
ATOM     13  C   UNL     1      48.329   6.926  18.482  0.00  0.00    +0.000 C 
ENDBRANCH   6   8
ENDBRANCH   1   2
BRANCH   1  14
ATOM     14  O   UNL     1      45.259   4.077  13.736  0.00  0.00    +0.000 OA
BRANCH  14  19
ATOM     15  C   UNL     1      44.350   3.754  10.297  0.00  0.00    +0.000 A 
ATOM     16  N   UNL     1      43.441   4.741  10.122  0.00  0.00    +0.000 NA
ATOM     17  C   UNL     1      43.153   5.505  11.193  0.00  0.00    +0.000 A 
ATOM     18  C   UNL     1      43.732   5.331  12.431  0.00  0.00    +0.000 A 
ATOM     19  C   UNL     1      44.646   4.310  12.516  0.00  0.00    +0.000 A 
ATOM     20  N   UNL     1      44.970   3.523  11.476  0.00  0.00    +0.000 NA
BRANCH  15  22
ATOM     21  F   UNL     1      46.047   2.625   8.963  0.00  0.00    +0.000 F 
ATOM     22  C   UNL     1      44.707   2.829   9.131  0.00  0.00    +0.000 C 
ATOM     23  F   UNL     1      44.260   3.300   7.927  0.00  0.00    +0.000 F 
ATOM     24  F   UNL     1      44.161   1.581   9.256  0.00  0.00    +0.000 F 
ENDBRANCH  15  22
ENDBRANCH  14  19
ENDBRANCH   1  14
TORSDOF 5
ENDMDL
