MODEL 1
REMARK VINA RESULT:    -6.941      0.000      0.000
REMARK INTER + INTRA:         -10.237
REMARK INTER:                  -9.578
REMARK INTRA:                  -0.659
REMARK UNBOUND:                -0.659
REMARK  Name = 
REMARK  7 active torsions:
REMARK  status: ('A' for Active; 'I' for Inactive)
REMARK    1  A    between atoms: O_1  and  C_2
REMARK    2  A    between atoms: C_2  and  C_3
REMARK    3  A    between atoms: C_3  and  N_4
REMARK    4  A    between atoms: N_4  and  C_5
REMARK    5  A    between atoms: C_5  and  C_6
REMARK    6  A    between atoms: C_9  and  C_10
REMARK    7  A    between atoms: C_10  and  N_11
REMARK                            x       y       z     vdW  Elec       q    Type
REMARK                         _______ _______ _______ _____ _____    ______ ____
ROOT
ATOM      1  C   UNL     1      45.176   3.353   9.097  0.00  0.00    +0.000 A 
ATOM      2  C   UNL     1      44.639   2.909  10.313  0.00  0.00    +0.000 A 
ATOM      3  C   UNL     1      44.558   3.766  11.413  0.00  0.00    +0.000 A 
ATOM      4  C   UNL     1      45.018   5.086  11.322  0.00  0.00    +0.000 A 
ATOM      5  C   UNL     1      45.560   5.530  10.108  0.00  0.00    +0.000 A 
ATOM      6  C   UNL     1      45.635   4.673   9.008  0.00  0.00    +0.000 A 
ENDROOT
BRANCH   1   7
ATOM      7  C   UNL     1      45.335   2.407   7.929  0.00  0.00    +0.000 C 
BRANCH   7   8
ATOM      8  N   UNL     1      46.057   1.187   8.291  0.00  0.00    +0.000 NA
ATOM      9  H   UNL     1      46.522   1.343   9.187  0.00  0.00    +0.000 HD
BRANCH   8  10
ATOM     10  C   UNL     1      47.121   0.869   7.325  0.00  0.00    +0.000 C 
BRANCH  10  11
ATOM     11  C   UNL     1      47.873   2.098   6.790  0.00  0.00    +0.000 C 
BRANCH  11  12
ATOM     12  O   UNL     1      48.598   1.749   5.613  0.00  0.00    +0.000 OA
ATOM     13  H   UNL     1      49.492   1.490   5.899  0.00  0.00    +0.000 HD
ENDBRANCH  11  12
ENDBRANCH  10  11
ENDBRANCH   8  10
ENDBRANCH   7   8
ENDBRANCH   1   7
BRANCH   4  14
ATOM     14  C   UNL     1      44.934   6.012  12.506  0.00  0.00    +0.000 C 
BRANCH  14  15
ATOM     15  N   UNL     1      46.174   6.057  13.260  0.00  0.00    +0.000 N 
ATOM     16  C   UNL     1      46.553   5.138  14.202  0.00  0.00    +0.000 A 
ATOM     17  N   UNL     1      47.786   5.334  14.612  0.00  0.00    +0.000 NA
ATOM     18  C   UNL     1      48.221   6.423  13.909  0.00  0.00    +0.000 A 
ATOM     19  N   UNL     1      49.459   6.959  13.993  0.00  0.00    +0.000 NA
ATOM     20  C   UNL     1      49.662   8.024  13.190  0.00  0.00    +0.000 A 
ATOM     21  C   UNL     1      48.722   8.585  12.332  0.00  0.00    +0.000 A 
ATOM     22  C   UNL     1      47.448   8.026  12.249  0.00  0.00    +0.000 A 
ATOM     23  C   UNL     1      47.228   6.913  13.062  0.00  0.00    +0.000 A 
ENDBRANCH  14  15
ENDBRANCH   4  14
TORSDOF 7
ENDMDL
MODEL 2
REMARK VINA RESULT:    -6.266      3.181      6.984
REMARK INTER + INTRA:          -9.306
REMARK INTER:                  -8.773
REMARK INTRA:                  -0.533
REMARK UNBOUND:                -0.659
REMARK  Name = 
REMARK  7 active torsions:
REMARK  status: ('A' for Active; 'I' for Inactive)
REMARK    1  A    between atoms: O_1  and  C_2
REMARK    2  A    between atoms: C_2  and  C_3
REMARK    3  A    between atoms: C_3  and  N_4
REMARK    4  A    between atoms: N_4  and  C_5
REMARK    5  A    between atoms: C_5  and  C_6
REMARK    6  A    between atoms: C_9  and  C_10
REMARK    7  A    between atoms: C_10  and  N_11
REMARK                            x       y       z     vdW  Elec       q    Type
REMARK                         _______ _______ _______ _____ _____    ______ ____
ROOT
ATOM      1  C   UNL     1      47.683   7.432  13.643  0.00  0.00    +0.000 A 
ATOM      2  C   UNL     1      47.471   6.103  13.248  0.00  0.00    +0.000 A 
ATOM      3  C   UNL     1      46.327   5.746  12.532  0.00  0.00    +0.000 A 
ATOM      4  C   UNL     1      45.365   6.708  12.199  0.00  0.00    +0.000 A 
ATOM      5  C   UNL     1      45.572   8.035  12.598  0.00  0.00    +0.000 A 
ATOM      6  C   UNL     1      46.720   8.393  13.310  0.00  0.00    +0.000 A 
ENDROOT
BRANCH   1   7
ATOM      7  C   UNL     1      48.881   7.809  14.483  0.00  0.00    +0.000 C 
BRANCH   7   8
ATOM      8  N   UNL     1      49.558   6.642  15.050  0.00  0.00    +0.000 NA
ATOM      9  H   UNL     1      49.232   5.810  14.553  0.00  0.00    +0.000 HD
BRANCH   8  10
ATOM     10  C   UNL     1      49.212   6.437  16.466  0.00  0.00    +0.000 C 
BRANCH  10  11
ATOM     11  C   UNL     1      48.585   5.067  16.769  0.00  0.00    +0.000 C 
BRANCH  11  12
ATOM     12  O   UNL     1      47.175   5.203  16.933  0.00  0.00    +0.000 OA
ATOM     13  H   UNL     1      46.759   4.544  16.349  0.00  0.00    +0.000 HD
ENDBRANCH  11  12
ENDBRANCH  10  11
ENDBRANCH   8  10
ENDBRANCH   7   8
ENDBRANCH   1   7
BRANCH   4  14
ATOM     14  C   UNL     1      44.129   6.326  11.429  0.00  0.00    +0.000 C 
BRANCH  14  15
ATOM     15  N   UNL     1      44.104   4.913  11.094  0.00  0.00    +0.000 N 
ATOM     16  C   UNL     1      43.346   3.969  11.735  0.00  0.00    +0.000 A 
ATOM     17  N   UNL     1      43.396   2.804  11.127  0.00  0.00    +0.000 NA
ATOM     18  C   UNL     1      44.218   3.003  10.053  0.00  0.00    +0.000 A 
ATOM     19  N   UNL     1      44.527   2.068   9.126  0.00  0.00    +0.000 NA
ATOM     20  C   UNL     1      45.348   2.503   8.147  0.00  0.00    +0.000 A 
ATOM     21  C   UNL     1      45.879   3.783   8.042  0.00  0.00    +0.000 A 
ATOM     22  C   UNL     1      45.556   4.742   9.000  0.00  0.00    +0.000 A 
ATOM     23  C   UNL     1      44.694   4.313  10.010  0.00  0.00    +0.000 A 
ENDBRANCH  14  15
ENDBRANCH   4  14
TORSDOF 7
ENDMDL
MODEL 3
REMARK VINA RESULT:    -6.120      2.407      6.445
REMARK INTER + INTRA:          -9.104
REMARK INTER:                  -8.545
REMARK INTRA:                  -0.560
REMARK UNBOUND:                -0.659
REMARK  Name = 
REMARK  7 active torsions:
REMARK  status: ('A' for Active; 'I' for Inactive)
REMARK    1  A    between atoms: O_1  and  C_2
REMARK    2  A    between atoms: C_2  and  C_3
REMARK    3  A    between atoms: C_3  and  N_4
REMARK    4  A    between atoms: N_4  and  C_5
REMARK    5  A    between atoms: C_5  and  C_6
REMARK    6  A    between atoms: C_9  and  C_10
REMARK    7  A    between atoms: C_10  and  N_11
REMARK                            x       y       z     vdW  Elec       q    Type
REMARK                         _______ _______ _______ _____ _____    ______ ____
ROOT
ATOM      1  C   UNL     1      47.612   7.230  13.809  0.00  0.00    +0.000 A 
ATOM      2  C   UNL     1      47.255   5.880  13.690  0.00  0.00    +0.000 A 
ATOM      3  C   UNL     1      46.078   5.508  13.036  0.00  0.00    +0.000 A 
ATOM      4  C   UNL     1      45.229   6.480  12.491  0.00  0.00    +0.000 A 
ATOM      5  C   UNL     1      45.583   7.831  12.614  0.00  0.00    +0.000 A 
ATOM      6  C   UNL     1      46.763   8.200  13.264  0.00  0.00    +0.000 A 
ENDROOT
BRANCH   1   7
ATOM      7  C   UNL     1      48.845   7.640  14.582  0.00  0.00    +0.000 C 
BRANCH   7   8
ATOM      8  N   UNL     1      50.081   7.174  13.953  0.00  0.00    +0.000 NA
ATOM      9  H   UNL     1      50.765   6.988  14.691  0.00  0.00    +0.000 HD
BRANCH   8  10
ATOM     10  C   UNL     1      50.681   8.202  13.087  0.00  0.00    +0.000 C 
BRANCH  10  11
ATOM     11  C   UNL     1      50.370   8.024  11.592  0.00  0.00    +0.000 C 
BRANCH  11  12
ATOM     12  O   UNL     1      51.337   7.164  10.994  0.00  0.00    +0.000 OA
ATOM     13  H   UNL     1      51.864   6.785  11.719  0.00  0.00    +0.000 HD
ENDBRANCH  11  12
ENDBRANCH  10  11
ENDBRANCH   8  10
ENDBRANCH   7   8
ENDBRANCH   1   7
BRANCH   4  14
ATOM     14  C   UNL     1      43.959   6.084  11.786  0.00  0.00    +0.000 C 
BRANCH  14  15
ATOM     15  N   UNL     1      43.998   4.713  11.310  0.00  0.00    +0.000 N 
ATOM     16  C   UNL     1      43.283   3.676  11.848  0.00  0.00    +0.000 A 
ATOM     17  N   UNL     1      43.387   2.582  11.126  0.00  0.00    +0.000 NA
ATOM     18  C   UNL     1      44.200   2.925  10.082  0.00  0.00    +0.000 A 
ATOM     19  N   UNL     1      44.551   2.104   9.068  0.00  0.00    +0.000 NA
ATOM     20  C   UNL     1      45.354   2.671   8.142  0.00  0.00    +0.000 A 
ATOM     21  C   UNL     1      45.826   3.978   8.170  0.00  0.00    +0.000 A 
ATOM     22  C   UNL     1      45.459   4.820   9.218  0.00  0.00    +0.000 A 
ATOM     23  C   UNL     1      44.616   4.252  10.175  0.00  0.00    +0.000 A 
ENDBRANCH  14  15
ENDBRANCH   4  14
TORSDOF 7
ENDMDL
MODEL 4
REMARK VINA RESULT:    -5.964      1.548      2.196
REMARK INTER + INTRA:          -8.890
REMARK INTER:                  -8.676
REMARK INTRA:                  -0.213
REMARK UNBOUND:                -0.659
REMARK  Name = 
REMARK  7 active torsions:
REMARK  status: ('A' for Active; 'I' for Inactive)
REMARK    1  A    between atoms: O_1  and  C_2
REMARK    2  A    between atoms: C_2  and  C_3
REMARK    3  A    between atoms: C_3  and  N_4
REMARK    4  A    between atoms: N_4  and  C_5
REMARK    5  A    between atoms: C_5  and  C_6
REMARK    6  A    between atoms: C_9  and  C_10
REMARK    7  A    between atoms: C_10  and  N_11
REMARK                            x       y       z     vdW  Elec       q    Type
REMARK                         _______ _______ _______ _____ _____    ______ ____
ROOT
ATOM      1  C   UNL     1      45.919   3.942   7.557  0.00  0.00    +0.000 A 
ATOM      2  C   UNL     1      46.547   4.962   8.284  0.00  0.00    +0.000 A 
ATOM      3  C   UNL     1      46.029   5.387   9.510  0.00  0.00    +0.000 A 
ATOM      4  C   UNL     1      44.867   4.805  10.032  0.00  0.00    +0.000 A 
ATOM      5  C   UNL     1      44.235   3.789   9.303  0.00  0.00    +0.000 A 
ATOM      6  C   UNL     1      44.757   3.361   8.080  0.00  0.00    +0.000 A 
ENDROOT
BRANCH   1   7
ATOM      7  C   UNL     1      46.432   3.533   6.195  0.00  0.00    +0.000 C 
BRANCH   7   8
ATOM      8  N   UNL     1      46.600   2.084   6.072  0.00  0.00    +0.000 NA
ATOM      9  H   UNL     1      45.673   1.655   6.051  0.00  0.00    +0.000 HD
BRANCH   8  10
ATOM     10  C   UNL     1      47.293   1.509   7.236  0.00  0.00    +0.000 C 
BRANCH  10  11
ATOM     11  C   UNL     1      46.475   0.455   7.999  0.00  0.00    +0.000 C 
BRANCH  11  12
ATOM     12  O   UNL     1      46.861  -0.853   7.585  0.00  0.00    +0.000 OA
ATOM     13  H   UNL     1      47.832  -0.891   7.639  0.00  0.00    +0.000 HD
ENDBRANCH  11  12
ENDBRANCH  10  11
ENDBRANCH   8  10
ENDBRANCH   7   8
ENDBRANCH   1   7
BRANCH   4  14
ATOM     14  C   UNL     1      44.305   5.262  11.352  0.00  0.00    +0.000 C 
BRANCH  14  15
ATOM     15  N   UNL     1      45.213   5.005  12.456  0.00  0.00    +0.000 N 
ATOM     16  C   UNL     1      45.392   3.786  13.056  0.00  0.00    +0.000 A 
ATOM     17  N   UNL     1      46.383   3.805  13.919  0.00  0.00    +0.000 NA
ATOM     18  C   UNL     1      46.862   5.085  13.876  0.00  0.00    +0.000 A 
ATOM     19  N   UNL     1      47.916   5.545  14.588  0.00  0.00    +0.000 NA
ATOM     20  C   UNL     1      48.213   6.843  14.368  0.00  0.00    +0.000 A 
ATOM     21  C   UNL     1      47.534   7.697  13.507  0.00  0.00    +0.000 A 
ATOM     22  C   UNL     1      46.451   7.215  12.775  0.00  0.00    +0.000 A 
ATOM     23  C   UNL     1      46.140   5.870  12.979  0.00  0.00    +0.000 A 
ENDBRANCH  14  15
ENDBRANCH   4  14
TORSDOF 7
ENDMDL
MODEL 5
REMARK VINA RESULT:    -5.915      3.177      7.050
REMARK INTER + INTRA:          -8.822
REMARK INTER:                  -8.246
REMARK INTRA:                  -0.576
REMARK UNBOUND:                -0.659
REMARK  Name = 
REMARK  7 active torsions:
REMARK  status: ('A' for Active; 'I' for Inactive)
REMARK    1  A    between atoms: O_1  and  C_2
REMARK    2  A    between atoms: C_2  and  C_3
REMARK    3  A    between atoms: C_3  and  N_4
REMARK    4  A    between atoms: N_4  and  C_5
REMARK    5  A    between atoms: C_5  and  C_6
REMARK    6  A    between atoms: C_9  and  C_10
REMARK    7  A    between atoms: C_10  and  N_11
REMARK                            x       y       z     vdW  Elec       q    Type
REMARK                         _______ _______ _______ _____ _____    ______ ____
ROOT
ATOM      1  C   UNL     1      48.040   7.142  13.333  0.00  0.00    +0.000 A 
ATOM      2  C   UNL     1      47.291   7.973  12.490  0.00  0.00    +0.000 A 
ATOM      3  C   UNL     1      46.013   7.598  12.069  0.00  0.00    +0.000 A 
ATOM      4  C   UNL     1      45.458   6.379  12.479  0.00  0.00    +0.000 A 
ATOM      5  C   UNL     1      46.209   5.544  13.318  0.00  0.00    +0.000 A 
ATOM      6  C   UNL     1      47.484   5.923  13.742  0.00  0.00    +0.000 A 
ENDROOT
BRANCH   1   7
ATOM      7  C   UNL     1      49.452   7.509  13.728  0.00  0.00    +0.000 C 
BRANCH   7   8
ATOM      8  N   UNL     1      49.933   6.735  14.873  0.00  0.00    +0.000 NA
ATOM      9  H   UNL     1      49.159   6.623  15.531  0.00  0.00    +0.000 HD
BRANCH   8  10
ATOM     10  C   UNL     1      50.998   7.438  15.606  0.00  0.00    +0.000 C 
BRANCH  10  11
ATOM     11  C   UNL     1      52.052   6.509  16.229  0.00  0.00    +0.000 C 
BRANCH  11  12
ATOM     12  O   UNL     1      53.273   6.599  15.497  0.00  0.00    +0.000 OA
ATOM     13  H   UNL     1      53.342   5.786  14.964  0.00  0.00    +0.000 HD
ENDBRANCH  11  12
ENDBRANCH  10  11
ENDBRANCH   8  10
ENDBRANCH   7   8
ENDBRANCH   1   7
BRANCH   4  14
ATOM     14  C   UNL     1      44.081   5.971  12.027  0.00  0.00    +0.000 C 
BRANCH  14  15
ATOM     15  N   UNL     1      44.066   4.643  11.439  0.00  0.00    +0.000 N 
ATOM     16  C   UNL     1      43.334   3.585  11.911  0.00  0.00    +0.000 A 
ATOM     17  N   UNL     1      43.385   2.552  11.099  0.00  0.00    +0.000 NA
ATOM     18  C   UNL     1      44.181   2.958  10.064  0.00  0.00    +0.000 A 
ATOM     19  N   UNL     1      44.480   2.213   8.976  0.00  0.00    +0.000 NA
ATOM     20  C   UNL     1      45.274   2.832   8.078  0.00  0.00    +0.000 A 
ATOM     21  C   UNL     1      45.787   4.119   8.198  0.00  0.00    +0.000 A 
ATOM     22  C   UNL     1      45.473   4.881   9.322  0.00  0.00    +0.000 A 
ATOM     23  C   UNL     1      44.639   4.260  10.253  0.00  0.00    +0.000 A 
ENDBRANCH  14  15
ENDBRANCH   4  14
TORSDOF 7
ENDMDL
MODEL 6
REMARK VINA RESULT:    -5.911      1.622      2.329
REMARK INTER + INTRA:          -8.816
REMARK INTER:                  -8.266
REMARK INTRA:                  -0.550
REMARK UNBOUND:                -0.659
REMARK  Name = 
REMARK  7 active torsions:
REMARK  status: ('A' for Active; 'I' for Inactive)
REMARK    1  A    between atoms: O_1  and  C_2
REMARK    2  A    between atoms: C_2  and  C_3
REMARK    3  A    between atoms: C_3  and  N_4
REMARK    4  A    between atoms: N_4  and  C_5
REMARK    5  A    between atoms: C_5  and  C_6
REMARK    6  A    between atoms: C_9  and  C_10
REMARK    7  A    between atoms: C_10  and  N_11
REMARK                            x       y       z     vdW  Elec       q    Type
REMARK                         _______ _______ _______ _____ _____    ______ ____
ROOT
ATOM      1  C   UNL     1      44.941   3.337   9.820  0.00  0.00    +0.000 A 
ATOM      2  C   UNL     1      44.978   4.705   9.519  0.00  0.00    +0.000 A 
ATOM      3  C   UNL     1      45.011   5.659  10.538  0.00  0.00    +0.000 A 
ATOM      4  C   UNL     1      45.002   5.266  11.883  0.00  0.00    +0.000 A 
ATOM      5  C   UNL     1      44.959   3.898  12.185  0.00  0.00    +0.000 A 
ATOM      6  C   UNL     1      44.931   2.945  11.165  0.00  0.00    +0.000 A 
ENDROOT
BRANCH   1   7
ATOM      7  C   UNL     1      44.828   2.305   8.722  0.00  0.00    +0.000 C 
BRANCH   7   8
ATOM      8  N   UNL     1      46.029   1.478   8.604  0.00  0.00    +0.000 NA
ATOM      9  H   UNL     1      46.624   1.659   9.416  0.00  0.00    +0.000 HD
BRANCH   8  10
ATOM     10  C   UNL     1      46.830   1.833   7.421  0.00  0.00    +0.000 C 
BRANCH  10  11
ATOM     11  C   UNL     1      46.291   3.039   6.636  0.00  0.00    +0.000 C 
BRANCH  11  12
ATOM     12  O   UNL     1      47.109   4.182   6.879  0.00  0.00    +0.000 OA
ATOM     13  H   UNL     1      46.572   4.808   7.397  0.00  0.00    +0.000 HD
ENDBRANCH  11  12
ENDBRANCH  10  11
ENDBRANCH   8  10
ENDBRANCH   7   8
ENDBRANCH   1   7
BRANCH   4  14
ATOM     14  C   UNL     1      45.036   6.292  12.984  0.00  0.00    +0.000 C 
BRANCH  14  15
ATOM     15  N   UNL     1      45.795   7.473  12.614  0.00  0.00    +0.000 N 
ATOM     16  C   UNL     1      45.268   8.728  12.464  0.00  0.00    +0.000 A 
ATOM     17  N   UNL     1      46.203   9.635  12.281  0.00  0.00    +0.000 NA
ATOM     18  C   UNL     1      47.378   8.937  12.313  0.00  0.00    +0.000 A 
ATOM     19  N   UNL     1      48.610   9.484  12.197  0.00  0.00    +0.000 NA
ATOM     20  C   UNL     1      49.623   8.597  12.274  0.00  0.00    +0.000 A 
ATOM     21  C   UNL     1      49.489   7.224  12.445  0.00  0.00    +0.000 A 
ATOM     22  C   UNL     1      48.218   6.667  12.565  0.00  0.00    +0.000 A 
ATOM     23  C   UNL     1      47.159   7.574  12.504  0.00  0.00    +0.000 A 
ENDBRANCH  14  15
ENDBRANCH   4  14
TORSDOF 7
ENDMDL
MODEL 7
REMARK VINA RESULT:    -5.528      2.649      6.088
REMARK INTER + INTRA:          -8.288
REMARK INTER:                  -7.737
REMARK INTRA:                  -0.551
REMARK UNBOUND:                -0.659
REMARK  Name = 
REMARK  7 active torsions:
REMARK  status: ('A' for Active; 'I' for Inactive)
REMARK    1  A    between atoms: O_1  and  C_2
REMARK    2  A    between atoms: C_2  and  C_3
REMARK    3  A    between atoms: C_3  and  N_4
REMARK    4  A    between atoms: N_4  and  C_5
REMARK    5  A    between atoms: C_5  and  C_6
REMARK    6  A    between atoms: C_9  and  C_10
REMARK    7  A    between atoms: C_10  and  N_11
REMARK                            x       y       z     vdW  Elec       q    Type
REMARK                         _______ _______ _______ _____ _____    ______ ____
ROOT
ATOM      1  C   UNL     1      49.261   7.967  12.187  0.00  0.00    +0.000 A 
ATOM      2  C   UNL     1      48.982   6.698  12.713  0.00  0.00    +0.000 A 
ATOM      3  C   UNL     1      47.664   6.275  12.895  0.00  0.00    +0.000 A 
ATOM      4  C   UNL     1      46.594   7.116  12.562  0.00  0.00    +0.000 A 
ATOM      5  C   UNL     1      46.872   8.388  12.041  0.00  0.00    +0.000 A 
ATOM      6  C   UNL     1      48.191   8.806  11.854  0.00  0.00    +0.000 A 
ENDROOT
BRANCH   1   7
ATOM      7  C   UNL     1      50.685   8.456  12.060  0.00  0.00    +0.000 C 
BRANCH   7   8
ATOM      8  N   UNL     1      51.582   7.438  11.512  0.00  0.00    +0.000 NA
ATOM      9  H   UNL     1      52.343   7.290  12.177  0.00  0.00    +0.000 HD
BRANCH   8  10
ATOM     10  C   UNL     1      52.212   7.875  10.256  0.00  0.00    +0.000 C 
BRANCH  10  11
ATOM     11  C   UNL     1      53.244   6.886   9.691  0.00  0.00    +0.000 C 
BRANCH  11  12
ATOM     12  O   UNL     1      53.177   5.654  10.406  0.00  0.00    +0.000 OA
ATOM     13  H   UNL     1      52.959   4.963   9.755  0.00  0.00    +0.000 HD
ENDBRANCH  11  12
ENDBRANCH  10  11
ENDBRANCH   8  10
ENDBRANCH   7   8
ENDBRANCH   1   7
BRANCH   4  14
ATOM     14  C   UNL     1      45.171   6.665  12.759  0.00  0.00    +0.000 C 
BRANCH  14  15
ATOM     15  N   UNL     1      44.970   5.285  12.356  0.00  0.00    +0.000 N 
ATOM     16  C   UNL     1      44.504   4.289  13.173  0.00  0.00    +0.000 A 
ATOM     17  N   UNL     1      44.270   3.178  12.510  0.00  0.00    +0.000 NA
ATOM     18  C   UNL     1      44.599   3.467  11.215  0.00  0.00    +0.000 A 
ATOM     19  N   UNL     1      44.481   2.611  10.175  0.00  0.00    +0.000 NA
ATOM     20  C   UNL     1      44.855   3.126   8.984  0.00  0.00    +0.000 A 
ATOM     21  C   UNL     1      45.339   4.412   8.772  0.00  0.00    +0.000 A 
ATOM     22  C   UNL     1      45.456   5.288   9.849  0.00  0.00    +0.000 A 
ATOM     23  C   UNL     1      45.058   4.776  11.085  0.00  0.00    +0.000 A 
ENDBRANCH  14  15
ENDBRANCH   4  14
TORSDOF 7
ENDMDL
MODEL 8
REMARK VINA RESULT:    -5.320      2.049      3.142
REMARK INTER + INTRA:          -8.000
REMARK INTER:                  -7.286
REMARK INTRA:                  -0.714
REMARK UNBOUND:                -0.659
REMARK  Name = 
REMARK  7 active torsions:
REMARK  status: ('A' for Active; 'I' for Inactive)
REMARK    1  A    between atoms: O_1  and  C_2
REMARK    2  A    between atoms: C_2  and  C_3
REMARK    3  A    between atoms: C_3  and  N_4
REMARK    4  A    between atoms: N_4  and  C_5
REMARK    5  A    between atoms: C_5  and  C_6
REMARK    6  A    between atoms: C_9  and  C_10
REMARK    7  A    between atoms: C_10  and  N_11
REMARK                            x       y       z     vdW  Elec       q    Type
REMARK                         _______ _______ _______ _____ _____    ______ ____
ROOT
ATOM      1  C   UNL     1      44.593   4.356  11.644  0.00  0.00    +0.000 A 
ATOM      2  C   UNL     1      45.577   4.287  12.640  0.00  0.00    +0.000 A 
ATOM      3  C   UNL     1      46.143   5.451  13.165  0.00  0.00    +0.000 A 
ATOM      4  C   UNL     1      45.741   6.710  12.701  0.00  0.00    +0.000 A 
ATOM      5  C   UNL     1      44.762   6.780  11.701  0.00  0.00    +0.000 A 
ATOM      6  C   UNL     1      44.193   5.615  11.181  0.00  0.00    +0.000 A 
ENDROOT
BRANCH   1   7
ATOM      7  C   UNL     1      44.034   3.098  11.020  0.00  0.00    +0.000 C 
BRANCH   7   8
ATOM      8  N   UNL     1      44.971   2.470  10.088  0.00  0.00    +0.000 NA
ATOM      9  H   UNL     1      45.901   2.858  10.259  0.00  0.00    +0.000 HD
BRANCH   8  10
ATOM     10  C   UNL     1      44.647   2.781   8.686  0.00  0.00    +0.000 C 
BRANCH  10  11
ATOM     11  C   UNL     1      45.752   3.545   7.940  0.00  0.00    +0.000 C 
BRANCH  11  12
ATOM     12  O   UNL     1      45.682   4.933   8.258  0.00  0.00    +0.000 OA
ATOM     13  H   UNL     1      45.943   5.420   7.456  0.00  0.00    +0.000 HD
ENDBRANCH  11  12
ENDBRANCH  10  11
ENDBRANCH   8  10
ENDBRANCH   7   8
ENDBRANCH   1   7
BRANCH   4  14
ATOM     14  C   UNL     1      46.350   7.967  13.264  0.00  0.00    +0.000 C 
BRANCH  14  15
ATOM     15  N   UNL     1      47.775   8.055  12.998  0.00  0.00    +0.000 N 
ATOM     16  C   UNL     1      48.329   8.549  11.847  0.00  0.00    +0.000 A 
ATOM     17  N   UNL     1      49.636   8.658  11.938  0.00  0.00    +0.000 NA
ATOM     18  C   UNL     1      49.938   8.216  13.196  0.00  0.00    +0.000 A 
ATOM     19  N   UNL     1      51.179   8.185  13.731  0.00  0.00    +0.000 NA
ATOM     20  C   UNL     1      51.229   7.721  14.998  0.00  0.00    +0.000 A 
ATOM     21  C   UNL     1      50.141   7.286  15.746  0.00  0.00    +0.000 A 
ATOM     22  C   UNL     1      48.865   7.322  15.188  0.00  0.00    +0.000 A 
ATOM     23  C   UNL     1      48.794   7.814  13.884  0.00  0.00    +0.000 A 
ENDBRANCH  14  15
ENDBRANCH   4  14
TORSDOF 7
ENDMDL
MODEL 9
REMARK VINA RESULT:    -5.262      2.934      4.665
REMARK INTER + INTRA:          -7.920
REMARK INTER:                  -7.152
REMARK INTRA:                  -0.768
REMARK UNBOUND:                -0.659
REMARK  Name = 
REMARK  7 active torsions:
REMARK  status: ('A' for Active; 'I' for Inactive)
REMARK    1  A    between atoms: O_1  and  C_2
REMARK    2  A    between atoms: C_2  and  C_3
REMARK    3  A    between atoms: C_3  and  N_4
REMARK    4  A    between atoms: N_4  and  C_5
REMARK    5  A    between atoms: C_5  and  C_6
REMARK    6  A    between atoms: C_9  and  C_10
REMARK    7  A    between atoms: C_10  and  N_11
REMARK                            x       y       z     vdW  Elec       q    Type
REMARK                         _______ _______ _______ _____ _____    ______ ____
ROOT
ATOM      1  C   UNL     1      44.761   5.865  12.468  0.00  0.00    +0.000 A 
ATOM      2  C   UNL     1      45.489   4.881  13.151  0.00  0.00    +0.000 A 
ATOM      3  C   UNL     1      46.776   5.147  13.626  0.00  0.00    +0.000 A 
ATOM      4  C   UNL     1      47.365   6.402  13.422  0.00  0.00    +0.000 A 
ATOM      5  C   UNL     1      46.639   7.384  12.733  0.00  0.00    +0.000 A 
ATOM      6  C   UNL     1      45.351   7.118  12.264  0.00  0.00    +0.000 A 
ENDROOT
BRANCH   1   7
ATOM      7  C   UNL     1      43.400   5.557  11.887  0.00  0.00    +0.000 C 
BRANCH   7   8
ATOM      8  N   UNL     1      43.410   5.522  10.424  0.00  0.00    +0.000 NA
ATOM      9  H   UNL     1      42.453   5.664  10.094  0.00  0.00    +0.000 HD
BRANCH   8  10
ATOM     10  C   UNL     1      43.833   4.211   9.906  0.00  0.00    +0.000 C 
BRANCH  10  11
ATOM     11  C   UNL     1      45.104   4.256   9.042  0.00  0.00    +0.000 C 
BRANCH  11  12
ATOM     12  O   UNL     1      45.588   5.594   8.959  0.00  0.00    +0.000 OA
ATOM     13  H   UNL     1      46.420   5.562   8.453  0.00  0.00    +0.000 HD
ENDBRANCH  11  12
ENDBRANCH  10  11
ENDBRANCH   8  10
ENDBRANCH   7   8
ENDBRANCH   1   7
BRANCH   4  14
ATOM     14  C   UNL     1      48.752   6.692  13.930  0.00  0.00    +0.000 C 
BRANCH  14  15
ATOM     15  N   UNL     1      48.747   7.172  15.300  0.00  0.00    +0.000 N 
ATOM     16  C   UNL     1      48.645   8.487  15.670  0.00  0.00    +0.000 A 
ATOM     17  N   UNL     1      48.508   8.623  16.970  0.00  0.00    +0.000 NA
ATOM     18  C   UNL     1      48.524   7.346  17.460  0.00  0.00    +0.000 A 
ATOM     19  N   UNL     1      48.378   7.011  18.762  0.00  0.00    +0.000 NA
ATOM     20  C   UNL     1      48.413   5.684  19.003  0.00  0.00    +0.000 A 
ATOM     21  C   UNL     1      48.591   4.689  18.049  0.00  0.00    +0.000 A 
ATOM     22  C   UNL     1      48.740   5.042  16.709  0.00  0.00    +0.000 A 
ATOM     23  C   UNL     1      48.689   6.411  16.440  0.00  0.00    +0.000 A 
ENDBRANCH  14  15
ENDBRANCH   4  14
TORSDOF 7
ENDMDL
