MODEL 1
REMARK VINA RESULT:    -7.522      0.000      0.000
REMARK INTER + INTRA:         -11.085
REMARK INTER:                  -9.941
REMARK INTRA:                  -1.144
REMARK UNBOUND:                -1.144
REMARK  Name = 
REMARK  6 active torsions:
REMARK  status: ('A' for Active; 'I' for Inactive)
REMARK    1  A    between atoms: C_2  and  C_20
REMARK    2  A    between atoms: N_3  and  C_4
REMARK    3  A    between atoms: C_4  and  C_5
REMARK    4  A    between atoms: C_8  and  C_9
REMARK    5  A    between atoms: C_9  and  O_10
REMARK    6  A    between atoms: C_9  and  C_11
REMARK                            x       y       z     vdW  Elec       q    Type
REMARK                         _______ _______ _______ _____ _____    ______ ____
ROOT
ATOM      1  C   UNL     1      47.144   4.774  15.223  0.00  0.00    +0.000 C 
ENDROOT
BRANCH   1   2
ATOM      2  C   UNL     1      46.489   4.592  13.880  0.00  0.00    +0.000 A 
ATOM      3  C   UNL     1      46.163   5.702  13.095  0.00  0.00    +0.000 A 
ATOM      4  C   UNL     1      45.547   5.538  11.851  0.00  0.00    +0.000 A 
ATOM      5  C   UNL     1      45.218   4.258  11.366  0.00  0.00    +0.000 A 
ATOM      6  C   UNL     1      45.563   3.151  12.155  0.00  0.00    +0.000 A 
ATOM      7  C   UNL     1      46.168   3.315  13.405  0.00  0.00    +0.000 A 
BRANCH   5   8
ATOM      8  C   UNL     1      44.570   4.127   9.993  0.00  0.00    +0.000 C 
BRANCH   8   9
ATOM      9  C   UNL     1      45.530   4.252   8.769  0.00  0.00    +0.000 C 
ATOM     10  O   UNL     1      45.979   5.328   8.368  0.00  0.00    +0.000 OA
ATOM     11  N   UNL     1      45.890   3.078   8.129  0.00  0.00    +0.000 N 
ATOM     12  C   UNL     1      45.515   1.719   8.471  0.00  0.00    +0.000 C 
ATOM     13  C   UNL     1      46.645   0.893   7.877  0.00  0.00    +0.000 C 
ATOM     14  C   UNL     1      47.023   1.654   6.611  0.00  0.00    +0.000 C 
ATOM     15  C   UNL     1      46.700   3.110   6.926  0.00  0.00    +0.000 C 
ENDBRANCH   8   9
BRANCH   8  16
ATOM     16  O   UNL     1      43.501   5.072   9.916  0.00  0.00    +0.000 OA
ATOM     17  H   UNL     1      42.814   4.662   9.361  0.00  0.00    +0.000 HD
ENDBRANCH   8  16
ENDBRANCH   5   8
ENDBRANCH   1   2
BRANCH   1  20
ATOM     18  O   UNL     1      49.579   5.246  16.588  0.00  0.00    +0.000 OA
ATOM     19  C   UNL     1      49.074   6.151  15.924  0.00  0.00    +0.000 C 
ATOM     20  N   UNL     1      47.870   6.014  15.290  0.00  0.00    +0.000 N 
ATOM     21  H   UNL     1      47.582   6.722  14.624  0.00  0.00    +0.000 HD
BRANCH  19  22
ATOM     22  C   UNL     1      49.712   7.468  15.810  0.00  0.00    +0.000 A 
ATOM     23  C   UNL     1      50.024   8.191  16.955  0.00  0.00    +0.000 A 
ATOM     24  S   UNL     1      50.757   9.698  16.632  0.00  0.00    +0.000 S 
ATOM     25  C   UNL     1      50.725   9.417  14.954  0.00  0.00    +0.000 A 
ATOM     26  N   UNL     1      51.248  10.322  14.081  0.00  0.00    +0.000 NA
ATOM     27  C   UNL     1      51.196   9.961  12.843  0.00  0.00    +0.000 A 
ATOM     28  N   UNL     1      50.654   8.785  12.394  0.00  0.00    +0.000 N 
ATOM     29  C   UNL     1      50.029   7.891  13.229  0.00  0.00    +0.000 A 
ATOM     30  O   UNL     1      49.400   6.939  12.775  0.00  0.00    +0.000 OA
ATOM     31  C   UNL     1      50.124   8.211  14.641  0.00  0.00    +0.000 A 
ATOM     32  H   UNL     1      50.600   8.582  11.408  0.00  0.00    +0.000 HD
ENDBRANCH  19  22
ENDBRANCH   1  20
TORSDOF 6
ENDMDL
MODEL 2
REMARK VINA RESULT:    -7.512      2.445      4.200
REMARK INTER + INTRA:         -11.071
REMARK INTER:                 -10.710
REMARK INTRA:                  -0.361
REMARK UNBOUND:                -1.144
REMARK  Name = 
REMARK  6 active torsions:
REMARK  status: ('A' for Active; 'I' for Inactive)
REMARK    1  A    between atoms: C_2  and  C_20
REMARK    2  A    between atoms: N_3  and  C_4
REMARK    3  A    between atoms: C_4  and  C_5
REMARK    4  A    between atoms: C_8  and  C_9
REMARK    5  A    between atoms: C_9  and  O_10
REMARK    6  A    between atoms: C_9  and  C_11
REMARK                            x       y       z     vdW  Elec       q    Type
REMARK                         _______ _______ _______ _____ _____    ______ ____
ROOT
ATOM      1  C   UNL     1      48.268   7.365  13.869  0.00  0.00    +0.000 C 
ENDROOT
BRANCH   1   2
ATOM      2  C   UNL     1      47.056   6.721  13.253  0.00  0.00    +0.000 A 
ATOM      3  C   UNL     1      46.220   7.454  12.404  0.00  0.00    +0.000 A 
ATOM      4  C   UNL     1      45.088   6.862  11.837  0.00  0.00    +0.000 A 
ATOM      5  C   UNL     1      44.746   5.526  12.120  0.00  0.00    +0.000 A 
ATOM      6  C   UNL     1      45.600   4.796  12.960  0.00  0.00    +0.000 A 
ATOM      7  C   UNL     1      46.726   5.391  13.539  0.00  0.00    +0.000 A 
BRANCH   5   8
ATOM      8  C   UNL     1      43.516   4.917  11.458  0.00  0.00    +0.000 C 
BRANCH   8   9
ATOM      9  C   UNL     1      43.702   3.490  10.854  0.00  0.00    +0.000 C 
ATOM     10  O   UNL     1      43.084   2.500  11.254  0.00  0.00    +0.000 OA
ATOM     11  N   UNL     1      44.602   3.359   9.810  0.00  0.00    +0.000 N 
ATOM     12  C   UNL     1      45.384   4.397   9.167  0.00  0.00    +0.000 C 
ATOM     13  C   UNL     1      45.651   3.818   7.786  0.00  0.00    +0.000 C 
ATOM     14  C   UNL     1      45.791   2.321   8.042  0.00  0.00    +0.000 C 
ATOM     15  C   UNL     1      44.907   2.055   9.255  0.00  0.00    +0.000 C 
ENDBRANCH   8   9
BRANCH   8  16
ATOM     16  O   UNL     1      43.039   5.839  10.477  0.00  0.00    +0.000 OA
ATOM     17  H   UNL     1      43.785   6.009   9.876  0.00  0.00    +0.000 HD
ENDBRANCH   8  16
ENDBRANCH   5   8
ENDBRANCH   1   2
BRANCH   1  20
ATOM     18  O   UNL     1      50.436   6.571  15.508  0.00  0.00    +0.000 OA
ATOM     19  C   UNL     1      49.371   6.897  16.032  0.00  0.00    +0.000 C 
ATOM     20  N   UNL     1      48.265   7.231  15.301  0.00  0.00    +0.000 N 
ATOM     21  H   UNL     1      47.471   7.651  15.774  0.00  0.00    +0.000 HD
BRANCH  19  22
ATOM     22  C   UNL     1      49.200   6.897  17.490  0.00  0.00    +0.000 A 
ATOM     23  C   UNL     1      49.162   8.100  18.185  0.00  0.00    +0.000 A 
ATOM     24  S   UNL     1      48.961   7.909  19.869  0.00  0.00    +0.000 S 
ATOM     25  C   UNL     1      48.871   6.216  19.723  0.00  0.00    +0.000 A 
ATOM     26  N   UNL     1      48.661   5.428  20.813  0.00  0.00    +0.000 NA
ATOM     27  C   UNL     1      48.571   4.167  20.551  0.00  0.00    +0.000 A 
ATOM     28  N   UNL     1      48.688   3.619  19.301  0.00  0.00    +0.000 N 
ATOM     29  C   UNL     1      48.998   4.365  18.190  0.00  0.00    +0.000 A 
ATOM     30  O   UNL     1      49.271   3.823  17.123  0.00  0.00    +0.000 OA
ATOM     31  C   UNL     1      49.037   5.798  18.414  0.00  0.00    +0.000 A 
ATOM     32  H   UNL     1      48.656   2.620  19.168  0.00  0.00    +0.000 HD
ENDBRANCH  19  22
ENDBRANCH   1  20
TORSDOF 6
ENDMDL
MODEL 3
REMARK VINA RESULT:    -7.299      4.063      8.601
REMARK INTER + INTRA:         -10.790
REMARK INTER:                  -9.813
REMARK INTRA:                  -0.977
REMARK UNBOUND:                -1.144
REMARK  Name = 
REMARK  6 active torsions:
REMARK  status: ('A' for Active; 'I' for Inactive)
REMARK    1  A    between atoms: C_2  and  C_20
REMARK    2  A    between atoms: N_3  and  C_4
REMARK    3  A    between atoms: C_4  and  C_5
REMARK    4  A    between atoms: C_8  and  C_9
REMARK    5  A    between atoms: C_9  and  O_10
REMARK    6  A    between atoms: C_9  and  C_11
REMARK                            x       y       z     vdW  Elec       q    Type
REMARK                         _______ _______ _______ _____ _____    ______ ____
ROOT
ATOM      1  C   UNL     1      48.119   7.692  14.457  0.00  0.00    +0.000 C 
ENDROOT
BRANCH   1   2
ATOM      2  C   UNL     1      48.679   6.649  15.386  0.00  0.00    +0.000 A 
ATOM      3  C   UNL     1      47.906   5.545  15.759  0.00  0.00    +0.000 A 
ATOM      4  C   UNL     1      48.419   4.578  16.629  0.00  0.00    +0.000 A 
ATOM      5  C   UNL     1      49.713   4.699  17.170  0.00  0.00    +0.000 A 
ATOM      6  C   UNL     1      50.485   5.802  16.777  0.00  0.00    +0.000 A 
ATOM      7  C   UNL     1      49.968   6.777  15.917  0.00  0.00    +0.000 A 
BRANCH   5   8
ATOM      8  C   UNL     1      50.238   3.608  18.093  0.00  0.00    +0.000 C 
BRANCH   8   9
ATOM      9  C   UNL     1      50.901   2.380  17.393  0.00  0.00    +0.000 C 
ATOM     10  O   UNL     1      50.326   1.691  16.547  0.00  0.00    +0.000 OA
ATOM     11  N   UNL     1      52.205   2.080  17.749  0.00  0.00    +0.000 N 
ATOM     12  C   UNL     1      53.066   2.788  18.678  0.00  0.00    +0.000 C 
ATOM     13  C   UNL     1      54.462   2.425  18.196  0.00  0.00    +0.000 C 
ATOM     14  C   UNL     1      54.310   0.992  17.695  0.00  0.00    +0.000 C 
ATOM     15  C   UNL     1      52.864   0.902  17.221  0.00  0.00    +0.000 C 
ENDBRANCH   8   9
BRANCH   8  16
ATOM     16  O   UNL     1      49.171   3.204  18.953  0.00  0.00    +0.000 OA
ATOM     17  H   UNL     1      49.556   2.575  19.589  0.00  0.00    +0.000 HD
ENDBRANCH   8  16
ENDBRANCH   5   8
ENDBRANCH   1   2
BRANCH   1  20
ATOM     18  O   UNL     1      47.825   6.739  11.808  0.00  0.00    +0.000 OA
ATOM     19  C   UNL     1      46.851   6.740  12.561  0.00  0.00    +0.000 C 
ATOM     20  N   UNL     1      46.905   7.242  13.831  0.00  0.00    +0.000 N 
ATOM     21  H   UNL     1      46.131   7.067  14.463  0.00  0.00    +0.000 HD
BRANCH  19  22
ATOM     22  C   UNL     1      45.540   6.245  12.123  0.00  0.00    +0.000 A 
ATOM     23  C   UNL     1      44.627   7.115  11.541  0.00  0.00    +0.000 A 
ATOM     24  S   UNL     1      43.159   6.367  11.098  0.00  0.00    +0.000 S 
ATOM     25  C   UNL     1      43.709   4.846  11.624  0.00  0.00    +0.000 A 
ATOM     26  N   UNL     1      42.934   3.734  11.492  0.00  0.00    +0.000 NA
ATOM     27  C   UNL     1      43.493   2.643  11.893  0.00  0.00    +0.000 A 
ATOM     28  N   UNL     1      44.751   2.560  12.429  0.00  0.00    +0.000 N 
ATOM     29  C   UNL     1      45.527   3.668  12.672  0.00  0.00    +0.000 A 
ATOM     30  O   UNL     1      46.569   3.578  13.314  0.00  0.00    +0.000 OA
ATOM     31  C   UNL     1      44.978   4.914  12.172  0.00  0.00    +0.000 A 
ATOM     32  H   UNL     1      45.114   1.683  12.769  0.00  0.00    +0.000 HD
ENDBRANCH  19  22
ENDBRANCH   1  20
TORSDOF 6
ENDMDL
MODEL 4
REMARK VINA RESULT:    -7.266      2.010      2.962
REMARK INTER + INTRA:         -10.746
REMARK INTER:                  -9.753
REMARK INTRA:                  -0.993
REMARK UNBOUND:                -1.144
REMARK  Name = 
REMARK  6 active torsions:
REMARK  status: ('A' for Active; 'I' for Inactive)
REMARK    1  A    between atoms: C_2  and  C_20
REMARK    2  A    between atoms: N_3  and  C_4
REMARK    3  A    between atoms: C_4  and  C_5
REMARK    4  A    between atoms: C_8  and  C_9
REMARK    5  A    between atoms: C_9  and  O_10
REMARK    6  A    between atoms: C_9  and  C_11
REMARK                            x       y       z     vdW  Elec       q    Type
REMARK                         _______ _______ _______ _____ _____    ______ ____
ROOT
ATOM      1  C   UNL     1      47.574   4.764  15.320  0.00  0.00    +0.000 C 
ENDROOT
BRANCH   1   2
ATOM      2  C   UNL     1      46.820   4.636  14.024  0.00  0.00    +0.000 A 
ATOM      3  C   UNL     1      46.503   5.774  13.275  0.00  0.00    +0.000 A 
ATOM      4  C   UNL     1      45.794   5.661  12.075  0.00  0.00    +0.000 A 
ATOM      5  C   UNL     1      45.364   4.408  11.600  0.00  0.00    +0.000 A 
ATOM      6  C   UNL     1      45.701   3.272  12.350  0.00  0.00    +0.000 A 
ATOM      7  C   UNL     1      46.398   3.385  13.558  0.00  0.00    +0.000 A 
BRANCH   5   8
ATOM      8  C   UNL     1      44.618   4.332  10.273  0.00  0.00    +0.000 C 
BRANCH   8   9
ATOM      9  C   UNL     1      45.491   4.477   8.988  0.00  0.00    +0.000 C 
ATOM     10  O   UNL     1      45.916   5.559   8.576  0.00  0.00    +0.000 OA
ATOM     11  N   UNL     1      45.801   3.315   8.303  0.00  0.00    +0.000 N 
ATOM     12  C   UNL     1      45.445   1.951   8.645  0.00  0.00    +0.000 C 
ATOM     13  C   UNL     1      46.528   1.132   7.959  0.00  0.00    +0.000 C 
ATOM     14  C   UNL     1      46.820   1.915   6.684  0.00  0.00    +0.000 C 
ATOM     15  C   UNL     1      46.526   3.366   7.048  0.00  0.00    +0.000 C 
ENDBRANCH   8   9
BRANCH   8  16
ATOM     16  O   UNL     1      43.567   5.299  10.301  0.00  0.00    +0.000 OA
ATOM     17  H   UNL     1      42.824   4.882  10.773  0.00  0.00    +0.000 HD
ENDBRANCH   8  16
ENDBRANCH   5   8
ENDBRANCH   1   2
BRANCH   1  20
ATOM     18  O   UNL     1      49.986   6.188  15.734  0.00  0.00    +0.000 OA
ATOM     19  C   UNL     1      48.910   6.776  15.843  0.00  0.00    +0.000 C 
ATOM     20  N   UNL     1      47.707   6.139  15.718  0.00  0.00    +0.000 N 
ATOM     21  H   UNL     1      46.861   6.694  15.650  0.00  0.00    +0.000 HD
BRANCH  19  22
ATOM     22  C   UNL     1      48.847   8.206  16.170  0.00  0.00    +0.000 A 
ATOM     23  C   UNL     1      49.353   9.146  15.280  0.00  0.00    +0.000 A 
ATOM     24  S   UNL     1      49.197  10.755  15.826  0.00  0.00    +0.000 S 
ATOM     25  C   UNL     1      48.406  10.257  17.247  0.00  0.00    +0.000 A 
ATOM     26  N   UNL     1      47.957  11.166  18.157  0.00  0.00    +0.000 NA
ATOM     27  C   UNL     1      47.338  10.651  19.165  0.00  0.00    +0.000 A 
ATOM     28  N   UNL     1      47.139   9.309  19.357  0.00  0.00    +0.000 N 
ATOM     29  C   UNL     1      47.659   8.354  18.517  0.00  0.00    +0.000 A 
ATOM     30  O   UNL     1      47.616   7.164  18.814  0.00  0.00    +0.000 OA
ATOM     31  C   UNL     1      48.301   8.879  17.327  0.00  0.00    +0.000 A 
ATOM     32  H   UNL     1      46.688   8.966  20.191  0.00  0.00    +0.000 HD
ENDBRANCH  19  22
ENDBRANCH   1  20
TORSDOF 6
ENDMDL
MODEL 5
REMARK VINA RESULT:    -7.120      4.936      9.088
REMARK INTER + INTRA:         -10.553
REMARK INTER:                  -9.656
REMARK INTRA:                  -0.897
REMARK UNBOUND:                -1.144
REMARK  Name = 
REMARK  6 active torsions:
REMARK  status: ('A' for Active; 'I' for Inactive)
REMARK    1  A    between atoms: C_2  and  C_20
REMARK    2  A    between atoms: N_3  and  C_4
REMARK    3  A    between atoms: C_4  and  C_5
REMARK    4  A    between atoms: C_8  and  C_9
REMARK    5  A    between atoms: C_9  and  O_10
REMARK    6  A    between atoms: C_9  and  C_11
REMARK                            x       y       z     vdW  Elec       q    Type
REMARK                         _______ _______ _______ _____ _____    ______ ____
ROOT
ATOM      1  C   UNL     1      47.368   3.560  16.854  0.00  0.00    +0.000 C 
ENDROOT
BRANCH   1   2
ATOM      2  C   UNL     1      48.846   3.605  17.135  0.00  0.00    +0.000 A 
ATOM      3  C   UNL     1      49.487   4.827  17.360  0.00  0.00    +0.000 A 
ATOM      4  C   UNL     1      50.861   4.873  17.612  0.00  0.00    +0.000 A 
ATOM      5  C   UNL     1      51.639   3.700  17.625  0.00  0.00    +0.000 A 
ATOM      6  C   UNL     1      50.982   2.478  17.414  0.00  0.00    +0.000 A 
ATOM      7  C   UNL     1      49.610   2.432  17.148  0.00  0.00    +0.000 A 
BRANCH   5   8
ATOM      8  C   UNL     1      53.128   3.798  17.930  0.00  0.00    +0.000 C 
BRANCH   8   9
ATOM      9  C   UNL     1      53.690   2.746  18.937  0.00  0.00    +0.000 C 
ATOM     10  O   UNL     1      53.555   2.838  20.159  0.00  0.00    +0.000 OA
ATOM     11  N   UNL     1      54.360   1.658  18.403  0.00  0.00    +0.000 N 
ATOM     12  C   UNL     1      54.583   1.341  17.005  0.00  0.00    +0.000 C 
ATOM     13  C   UNL     1      54.768  -0.168  17.021  0.00  0.00    +0.000 C 
ATOM     14  C   UNL     1      55.478  -0.431  18.345  0.00  0.00    +0.000 C 
ATOM     15  C   UNL     1      54.997   0.684  19.267  0.00  0.00    +0.000 C 
ENDBRANCH   8   9
BRANCH   8  16
ATOM     16  O   UNL     1      53.405   5.131  18.361  0.00  0.00    +0.000 OA
ATOM     17  H   UNL     1      53.630   5.072  19.307  0.00  0.00    +0.000 HD
ENDBRANCH   8  16
ENDBRANCH   5   8
ENDBRANCH   1   2
BRANCH   1  20
ATOM     18  O   UNL     1      47.235   3.141  14.057  0.00  0.00    +0.000 OA
ATOM     19  C   UNL     1      46.897   4.230  14.522  0.00  0.00    +0.000 C 
ATOM     20  N   UNL     1      46.994   4.523  15.853  0.00  0.00    +0.000 N 
ATOM     21  H   UNL     1      46.549   5.363  16.206  0.00  0.00    +0.000 HD
BRANCH  19  22
ATOM     22  C   UNL     1      46.411   5.315  13.660  0.00  0.00    +0.000 A 
ATOM     23  C   UNL     1      47.209   6.429  13.428  0.00  0.00    +0.000 A 
ATOM     24  S   UNL     1      46.483   7.588  12.408  0.00  0.00    +0.000 S 
ATOM     25  C   UNL     1      45.097   6.622  12.203  0.00  0.00    +0.000 A 
ATOM     26  N   UNL     1      44.076   7.021  11.394  0.00  0.00    +0.000 NA
ATOM     27  C   UNL     1      43.110   6.172  11.297  0.00  0.00    +0.000 A 
ATOM     28  N   UNL     1      43.060   4.966  11.946  0.00  0.00    +0.000 N 
ATOM     29  C   UNL     1      44.020   4.568  12.845  0.00  0.00    +0.000 A 
ATOM     30  O   UNL     1      43.856   3.569  13.539  0.00  0.00    +0.000 OA
ATOM     31  C   UNL     1      45.167   5.451  12.937  0.00  0.00    +0.000 A 
ATOM     32  H   UNL     1      42.253   4.367  11.866  0.00  0.00    +0.000 HD
ENDBRANCH  19  22
ENDBRANCH   1  20
TORSDOF 6
ENDMDL
MODEL 6
REMARK VINA RESULT:    -6.775      4.304      8.792
REMARK INTER + INTRA:         -10.098
REMARK INTER:                  -9.211
REMARK INTRA:                  -0.886
REMARK UNBOUND:                -1.144
REMARK  Name = 
REMARK  6 active torsions:
REMARK  status: ('A' for Active; 'I' for Inactive)
REMARK    1  A    between atoms: C_2  and  C_20
REMARK    2  A    between atoms: N_3  and  C_4
REMARK    3  A    between atoms: C_4  and  C_5
REMARK    4  A    between atoms: C_8  and  C_9
REMARK    5  A    between atoms: C_9  and  O_10
REMARK    6  A    between atoms: C_9  and  C_11
REMARK                            x       y       z     vdW  Elec       q    Type
REMARK                         _______ _______ _______ _____ _____    ______ ____
ROOT
ATOM      1  C   UNL     1      47.154   3.421  16.818  0.00  0.00    +0.000 C 
ENDROOT
BRANCH   1   2
ATOM      2  C   UNL     1      48.539   3.682  17.346  0.00  0.00    +0.000 A 
ATOM      3  C   UNL     1      49.566   2.759  17.124  0.00  0.00    +0.000 A 
ATOM      4  C   UNL     1      50.852   2.993  17.621  0.00  0.00    +0.000 A 
ATOM      5  C   UNL     1      51.142   4.147  18.373  0.00  0.00    +0.000 A 
ATOM      6  C   UNL     1      50.108   5.072  18.577  0.00  0.00    +0.000 A 
ATOM      7  C   UNL     1      48.818   4.833  18.092  0.00  0.00    +0.000 A 
BRANCH   5   8
ATOM      8  C   UNL     1      52.564   4.371  18.872  0.00  0.00    +0.000 C 
BRANCH   8   9
ATOM      9  C   UNL     1      53.689   4.275  17.794  0.00  0.00    +0.000 C 
ATOM     10  O   UNL     1      54.387   3.271  17.631  0.00  0.00    +0.000 OA
ATOM     11  N   UNL     1      53.884   5.382  16.986  0.00  0.00    +0.000 N 
ATOM     12  C   UNL     1      53.145   6.630  16.983  0.00  0.00    +0.000 C 
ATOM     13  C   UNL     1      53.354   7.148  15.568  0.00  0.00    +0.000 C 
ATOM     14  C   UNL     1      54.768   6.695  15.222  0.00  0.00    +0.000 C 
ATOM     15  C   UNL     1      54.969   5.415  16.025  0.00  0.00    +0.000 C 
ENDBRANCH   8   9
BRANCH   8  16
ATOM     16  O   UNL     1      52.801   3.470  19.955  0.00  0.00    +0.000 OA
ATOM     17  H   UNL     1      52.294   3.813  20.711  0.00  0.00    +0.000 HD
ENDBRANCH   8  16
ENDBRANCH   5   8
ENDBRANCH   1   2
BRANCH   1  20
ATOM     18  O   UNL     1      47.320   3.139  14.006  0.00  0.00    +0.000 OA
ATOM     19  C   UNL     1      46.832   4.164  14.482  0.00  0.00    +0.000 C 
ATOM     20  N   UNL     1      46.776   4.394  15.829  0.00  0.00    +0.000 N 
ATOM     21  H   UNL     1      46.217   5.167  16.173  0.00  0.00    +0.000 HD
BRANCH  19  22
ATOM     22  C   UNL     1      46.318   5.240  13.626  0.00  0.00    +0.000 A 
ATOM     23  C   UNL     1      47.089   6.373  13.397  0.00  0.00    +0.000 A 
ATOM     24  S   UNL     1      46.333   7.518  12.382  0.00  0.00    +0.000 S 
ATOM     25  C   UNL     1      44.970   6.521  12.177  0.00  0.00    +0.000 A 
ATOM     26  N   UNL     1      43.938   6.898  11.372  0.00  0.00    +0.000 NA
ATOM     27  C   UNL     1      42.992   6.027  11.274  0.00  0.00    +0.000 A 
ATOM     28  N   UNL     1      42.972   4.818  11.918  0.00  0.00    +0.000 N 
ATOM     29  C   UNL     1      43.943   4.439  12.814  0.00  0.00    +0.000 A 
ATOM     30  O   UNL     1      43.805   3.435  13.505  0.00  0.00    +0.000 OA
ATOM     31  C   UNL     1      45.070   5.349  12.907  0.00  0.00    +0.000 A 
ATOM     32  H   UNL     1      42.180   4.200  11.838  0.00  0.00    +0.000 HD
ENDBRANCH  19  22
ENDBRANCH   1  20
TORSDOF 6
ENDMDL
MODEL 7
REMARK VINA RESULT:    -6.464      2.352      4.090
REMARK INTER + INTRA:          -9.686
REMARK INTER:                  -9.172
REMARK INTRA:                  -0.513
REMARK UNBOUND:                -1.144
REMARK  Name = 
REMARK  6 active torsions:
REMARK  status: ('A' for Active; 'I' for Inactive)
REMARK    1  A    between atoms: C_2  and  C_20
REMARK    2  A    between atoms: N_3  and  C_4
REMARK    3  A    between atoms: C_4  and  C_5
REMARK    4  A    between atoms: C_8  and  C_9
REMARK    5  A    between atoms: C_9  and  O_10
REMARK    6  A    between atoms: C_9  and  C_11
REMARK                            x       y       z     vdW  Elec       q    Type
REMARK                         _______ _______ _______ _____ _____    ______ ____
ROOT
ATOM      1  C   UNL     1      49.168   8.121  12.890  0.00  0.00    +0.000 C 
ENDROOT
BRANCH   1   2
ATOM      2  C   UNL     1      47.824   7.497  12.630  0.00  0.00    +0.000 A 
ATOM      3  C   UNL     1      47.610   6.141  12.896  0.00  0.00    +0.000 A 
ATOM      4  C   UNL     1      46.365   5.555  12.647  0.00  0.00    +0.000 A 
ATOM      5  C   UNL     1      45.304   6.304  12.104  0.00  0.00    +0.000 A 
ATOM      6  C   UNL     1      45.525   7.666  11.856  0.00  0.00    +0.000 A 
ATOM      7  C   UNL     1      46.774   8.251  12.092  0.00  0.00    +0.000 A 
BRANCH   5   8
ATOM      8  C   UNL     1      43.958   5.628  11.875  0.00  0.00    +0.000 C 
BRANCH   8   9
ATOM      9  C   UNL     1      44.010   4.123  11.464  0.00  0.00    +0.000 C 
ATOM     10  O   UNL     1      43.488   3.222  12.125  0.00  0.00    +0.000 OA
ATOM     11  N   UNL     1      44.671   3.813  10.288  0.00  0.00    +0.000 N 
ATOM     12  C   UNL     1      45.304   4.721   9.350  0.00  0.00    +0.000 C 
ATOM     13  C   UNL     1      45.275   3.940   8.045  0.00  0.00    +0.000 C 
ATOM     14  C   UNL     1      45.462   2.493   8.485  0.00  0.00    +0.000 C 
ATOM     15  C   UNL     1      44.851   2.433   9.881  0.00  0.00    +0.000 C 
ENDBRANCH   8   9
BRANCH   8  16
ATOM     16  O   UNL     1      43.230   6.403  10.921  0.00  0.00    +0.000 OA
ATOM     17  H   UNL     1      43.833   6.550  10.171  0.00  0.00    +0.000 HD
ENDBRANCH   8  16
ENDBRANCH   5   8
ENDBRANCH   1   2
BRANCH   1  20
ATOM     18  O   UNL     1      50.542   9.118  15.156  0.00  0.00    +0.000 OA
ATOM     19  C   UNL     1      50.518   7.905  14.950  0.00  0.00    +0.000 C 
ATOM     20  N   UNL     1      49.927   7.359  13.845  0.00  0.00    +0.000 N 
ATOM     21  H   UNL     1      49.786   6.355  13.807  0.00  0.00    +0.000 HD
BRANCH  19  22
ATOM     22  C   UNL     1      51.173   6.958  15.861  0.00  0.00    +0.000 A 
ATOM     23  C   UNL     1      52.552   6.992  16.025  0.00  0.00    +0.000 A 
ATOM     24  S   UNL     1      53.138   5.819  17.117  0.00  0.00    +0.000 S 
ATOM     25  C   UNL     1      51.567   5.256  17.444  0.00  0.00    +0.000 A 
ATOM     26  N   UNL     1      51.351   4.259  18.347  0.00  0.00    +0.000 NA
ATOM     27  C   UNL     1      50.109   3.963  18.528  0.00  0.00    +0.000 A 
ATOM     28  N   UNL     1      49.060   4.559  17.878  0.00  0.00    +0.000 N 
ATOM     29  C   UNL     1      49.237   5.497  16.890  0.00  0.00    +0.000 A 
ATOM     30  O   UNL     1      48.291   5.878  16.208  0.00  0.00    +0.000 OA
ATOM     31  C   UNL     1      50.610   5.922  16.698  0.00  0.00    +0.000 A 
ATOM     32  H   UNL     1      48.113   4.248  18.029  0.00  0.00    +0.000 HD
ENDBRANCH  19  22
ENDBRANCH   1  20
TORSDOF 6
ENDMDL
MODEL 8
REMARK VINA RESULT:    -6.394      3.819      8.807
REMARK INTER + INTRA:          -9.593
REMARK INTER:                  -9.028
REMARK INTRA:                  -0.565
REMARK UNBOUND:                -1.144
REMARK  Name = 
REMARK  6 active torsions:
REMARK  status: ('A' for Active; 'I' for Inactive)
REMARK    1  A    between atoms: C_2  and  C_20
REMARK    2  A    between atoms: N_3  and  C_4
REMARK    3  A    between atoms: C_4  and  C_5
REMARK    4  A    between atoms: C_8  and  C_9
REMARK    5  A    between atoms: C_9  and  O_10
REMARK    6  A    between atoms: C_9  and  C_11
REMARK                            x       y       z     vdW  Elec       q    Type
REMARK                         _______ _______ _______ _____ _____    ______ ____
ROOT
ATOM      1  C   UNL     1      48.076   6.994  13.617  0.00  0.00    +0.000 C 
ENDROOT
BRANCH   1   2
ATOM      2  C   UNL     1      48.347   6.386  14.966  0.00  0.00    +0.000 A 
ATOM      3  C   UNL     1      49.273   6.972  15.833  0.00  0.00    +0.000 A 
ATOM      4  C   UNL     1      49.535   6.404  17.085  0.00  0.00    +0.000 A 
ATOM      5  C   UNL     1      48.892   5.221  17.495  0.00  0.00    +0.000 A 
ATOM      6  C   UNL     1      47.953   4.650  16.623  0.00  0.00    +0.000 A 
ATOM      7  C   UNL     1      47.701   5.210  15.366  0.00  0.00    +0.000 A 
BRANCH   5   8
ATOM      8  C   UNL     1      49.190   4.654  18.877  0.00  0.00    +0.000 C 
BRANCH   8   9
ATOM      9  C   UNL     1      50.695   4.400  19.202  0.00  0.00    +0.000 C 
ATOM     10  O   UNL     1      51.309   5.004  20.085  0.00  0.00    +0.000 OA
ATOM     11  N   UNL     1      51.347   3.433  18.455  0.00  0.00    +0.000 N 
ATOM     12  C   UNL     1      50.797   2.584  17.415  0.00  0.00    +0.000 C 
ATOM     13  C   UNL     1      51.726   1.380  17.430  0.00  0.00    +0.000 C 
ATOM     14  C   UNL     1      53.087   1.977  17.772  0.00  0.00    +0.000 C 
ATOM     15  C   UNL     1      52.768   3.200  18.624  0.00  0.00    +0.000 C 
ENDBRANCH   8   9
BRANCH   8  16
ATOM     16  O   UNL     1      48.413   3.468  19.047  0.00  0.00    +0.000 OA
ATOM     17  H   UNL     1      49.046   2.748  19.217  0.00  0.00    +0.000 HD
ENDBRANCH   8  16
ENDBRANCH   5   8
ENDBRANCH   1   2
BRANCH   1  20
ATOM     18  O   UNL     1      46.102   7.790  11.750  0.00  0.00    +0.000 OA
ATOM     19  C   UNL     1      46.361   6.594  11.882  0.00  0.00    +0.000 C 
ATOM     20  N   UNL     1      47.257   6.134  12.806  0.00  0.00    +0.000 N 
ATOM     21  H   UNL     1      47.558   5.166  12.760  0.00  0.00    +0.000 HD
BRANCH  19  22
ATOM     22  C   UNL     1      45.680   5.568  11.082  0.00  0.00    +0.000 A 
ATOM     23  C   UNL     1      45.785   5.583   9.697  0.00  0.00    +0.000 A 
ATOM     24  S   UNL     1      44.928   4.320   8.934  0.00  0.00    +0.000 S 
ATOM     25  C   UNL     1      44.426   3.681  10.429  0.00  0.00    +0.000 A 
ATOM     26  N   UNL     1      43.676   2.547  10.492  0.00  0.00    +0.000 NA
ATOM     27  C   UNL     1      43.404   2.152  11.690  0.00  0.00    +0.000 A 
ATOM     28  N   UNL     1      43.800   2.795  12.833  0.00  0.00    +0.000 N 
ATOM     29  C   UNL     1      44.472   3.994  12.815  0.00  0.00    +0.000 A 
ATOM     30  O   UNL     1      44.653   4.629  13.849  0.00  0.00    +0.000 OA
ATOM     31  C   UNL     1      44.868   4.446  11.495  0.00  0.00    +0.000 A 
ATOM     32  H   UNL     1      43.514   2.462  13.741  0.00  0.00    +0.000 HD
ENDBRANCH  19  22
ENDBRANCH   1  20
TORSDOF 6
ENDMDL
MODEL 9
REMARK VINA RESULT:    -6.330      4.150      8.337
REMARK INTER + INTRA:          -9.509
REMARK INTER:                  -8.341
REMARK INTRA:                  -1.169
REMARK UNBOUND:                -1.144
REMARK  Name = 
REMARK  6 active torsions:
REMARK  status: ('A' for Active; 'I' for Inactive)
REMARK    1  A    between atoms: C_2  and  C_20
REMARK    2  A    between atoms: N_3  and  C_4
REMARK    3  A    between atoms: C_4  and  C_5
REMARK    4  A    between atoms: C_8  and  C_9
REMARK    5  A    between atoms: C_9  and  O_10
REMARK    6  A    between atoms: C_9  and  C_11
REMARK                            x       y       z     vdW  Elec       q    Type
REMARK                         _______ _______ _______ _____ _____    ______ ____
ROOT
ATOM      1  C   UNL     1      47.333   3.344  17.021  0.00  0.00    +0.000 C 
ENDROOT
BRANCH   1   2
ATOM      2  C   UNL     1      48.754   3.512  17.487  0.00  0.00    +0.000 A 
ATOM      3  C   UNL     1      49.732   2.581  17.125  0.00  0.00    +0.000 A 
ATOM      4  C   UNL     1      51.052   2.728  17.563  0.00  0.00    +0.000 A 
ATOM      5  C   UNL     1      51.426   3.799  18.396  0.00  0.00    +0.000 A 
ATOM      6  C   UNL     1      50.440   4.735  18.742  0.00  0.00    +0.000 A 
ATOM      7  C   UNL     1      49.117   4.581  18.314  0.00  0.00    +0.000 A 
BRANCH   5   8
ATOM      8  C   UNL     1      52.881   3.932  18.828  0.00  0.00    +0.000 C 
BRANCH   8   9
ATOM      9  C   UNL     1      53.936   3.959  17.678  0.00  0.00    +0.000 C 
ATOM     10  O   UNL     1      54.628   2.986  17.370  0.00  0.00    +0.000 OA
ATOM     11  N   UNL     1      54.070   5.145  16.975  0.00  0.00    +0.000 N 
ATOM     12  C   UNL     1      53.324   6.377  17.145  0.00  0.00    +0.000 C 
ATOM     13  C   UNL     1      53.438   7.037  15.780  0.00  0.00    +0.000 C 
ATOM     14  C   UNL     1      54.831   6.641  15.301  0.00  0.00    +0.000 C 
ATOM     15  C   UNL     1      55.092   5.289  15.956  0.00  0.00    +0.000 C 
ENDBRANCH   8   9
BRANCH   8  16
ATOM     16  O   UNL     1      53.162   2.892  19.767  0.00  0.00    +0.000 OA
ATOM     17  H   UNL     1      52.927   3.245  20.643  0.00  0.00    +0.000 HD
ENDBRANCH   8  16
ENDBRANCH   5   8
ENDBRANCH   1   2
BRANCH   1  20
ATOM     18  O   UNL     1      47.407   2.955  14.218  0.00  0.00    +0.000 OA
ATOM     19  C   UNL     1      47.001   4.025  14.669  0.00  0.00    +0.000 C 
ATOM     20  N   UNL     1      46.995   4.306  16.007  0.00  0.00    +0.000 N 
ATOM     21  H   UNL     1      46.498   5.126  16.336  0.00  0.00    +0.000 HD
BRANCH  19  22
ATOM     22  C   UNL     1      46.538   5.104  13.786  0.00  0.00    +0.000 A 
ATOM     23  C   UNL     1      45.371   4.947  13.049  0.00  0.00    +0.000 A 
ATOM     24  S   UNL     1      44.989   6.297  12.079  0.00  0.00    +0.000 S 
ATOM     25  C   UNL     1      46.344   7.158  12.644  0.00  0.00    +0.000 A 
ATOM     26  N   UNL     1      46.590   8.431  12.230  0.00  0.00    +0.000 NA
ATOM     27  C   UNL     1      47.625   8.978  12.773  0.00  0.00    +0.000 A 
ATOM     28  N   UNL     1      48.448   8.364  13.680  0.00  0.00    +0.000 N 
ATOM     29  C   UNL     1      48.294   7.050  14.050  0.00  0.00    +0.000 A 
ATOM     30  O   UNL     1      49.148   6.482  14.723  0.00  0.00    +0.000 OA
ATOM     31  C   UNL     1      47.102   6.409  13.528  0.00  0.00    +0.000 A 
ATOM     32  H   UNL     1      49.271   8.829  14.032  0.00  0.00    +0.000 HD
ENDBRANCH  19  22
ENDBRANCH   1  20
TORSDOF 6
ENDMDL
