MODEL 1
REMARK VINA RESULT:    -8.099      0.000      0.000
REMARK INTER + INTRA:         -12.568
REMARK INTER:                 -11.413
REMARK INTRA:                  -1.155
REMARK UNBOUND:                -1.155
REMARK  Name = 
REMARK  8 active torsions:
REMARK  status: ('A' for Active; 'I' for Inactive)
REMARK    1  A    between atoms: C_1  and  N_2
REMARK    2  A    between atoms: C_4  and  C_5
REMARK    3  A    between atoms: N_7  and  C_8
REMARK    4  A    between atoms: C_8  and  C_9
REMARK    5  A    between atoms: C_12  and  C_13
REMARK    6  A    between atoms: C_13  and  C_14
REMARK    7  A    between atoms: C_14  and  N_15
REMARK    8  A    between atoms: N_15  and  C_16
REMARK                            x       y       z     vdW  Elec       q    Type
REMARK                         _______ _______ _______ _____ _____    ______ ____
ROOT
ATOM      1  C   UNL     1      47.105   8.247  13.342  0.00  0.00    +0.000 C 
ENDROOT
BRANCH   1   2
ATOM      2  C   UNL     1      46.297   7.277  12.549  0.00  0.00    +0.000 A 
ATOM      3  C   UNL     1      46.815   6.701  11.382  0.00  0.00    +0.000 A 
ATOM      4  C   UNL     1      46.038   5.831  10.626  0.00  0.00    +0.000 A 
ATOM      5  C   UNL     1      44.747   5.546  11.050  0.00  0.00    +0.000 A 
ATOM      6  N   UNL     1      44.261   6.046  12.215  0.00  0.00    +0.000 NA
ATOM      7  C   UNL     1      45.009   6.917  12.907  0.00  0.00    +0.000 A 
BRANCH   5   8
ATOM      8  C   UNL     1      43.841   4.631  10.280  0.00  0.00    +0.000 C 
BRANCH   8   9
ATOM      9  C   UNL     1      44.623   3.580   9.480  0.00  0.00    +0.000 C 
BRANCH   9  10
ATOM     10  N   UNL     1      44.592   3.763   8.021  0.00  0.00    +0.000 NA
ATOM     11  H   UNL     1      44.861   4.711   7.768  0.00  0.00    +0.000 HD
BRANCH  10  12
ATOM     12  C   UNL     1      45.434   2.771   7.338  0.00  0.00    +0.000 C 
ATOM     13  C   UNL     1      45.880   1.698   8.335  0.00  0.00    +0.000 C 
ATOM     14  C   UNL     1      46.828   0.716   7.658  0.00  0.00    +0.000 C 
ATOM     15  O   UNL     1      47.953   1.387   7.091  0.00  0.00    +0.000 OA
ATOM     16  C   UNL     1      47.570   2.316   6.085  0.00  0.00    +0.000 C 
ATOM     17  C   UNL     1      46.665   3.392   6.657  0.00  0.00    +0.000 C 
ENDBRANCH  10  12
ENDBRANCH   9  10
ENDBRANCH   8   9
ENDBRANCH   5   8
ENDBRANCH   1   2
BRANCH   1  20
ATOM     18  C   UNL     1      48.782   7.062  14.660  0.00  0.00    +0.000 C 
ATOM     19  O   UNL     1      49.502   6.956  13.685  0.00  0.00    +0.000 OA
ATOM     20  N   UNL     1      47.557   7.704  14.606  0.00  0.00    +0.000 N 
ATOM     21  H   UNL     1      46.948   7.710  15.408  0.00  0.00    +0.000 HD
BRANCH  18  25
ATOM     22  C   UNL     1      50.986   6.539  19.106  0.00  0.00    +0.000 C 
ATOM     23  N   UNL     1      50.138   6.295  17.962  0.00  0.00    +0.000 N 
ATOM     24  C   UNL     1      50.041   7.099  16.857  0.00  0.00    +0.000 A 
ATOM     25  C   UNL     1      49.132   6.523  15.973  0.00  0.00    +0.000 A 
ATOM     26  C   UNL     1      48.663   5.307  16.591  0.00  0.00    +0.000 A 
ATOM     27  C   UNL     1      47.785   4.256  16.341  0.00  0.00    +0.000 A 
ATOM     28 CL   UNL     1      46.858   4.177  14.926  0.00  0.00    +0.000 Cl
ATOM     29  N   UNL     1      47.586   3.258  17.223  0.00  0.00    +0.000 NA
ATOM     30  C   UNL     1      48.286   3.308  18.360  0.00  0.00    +0.000 A 
ATOM     31  N   UNL     1      49.165   4.245  18.742  0.00  0.00    +0.000 NA
ATOM     32  C   UNL     1      49.313   5.214  17.822  0.00  0.00    +0.000 A 
ENDBRANCH  18  25
ENDBRANCH   1  20
TORSDOF 7
ENDMDL
MODEL 2
REMARK VINA RESULT:    -7.904      2.176      2.718
REMARK INTER + INTRA:         -12.294
REMARK INTER:                 -11.252
REMARK INTRA:                  -1.041
REMARK UNBOUND:                -1.155
REMARK  Name = 
REMARK  8 active torsions:
REMARK  status: ('A' for Active; 'I' for Inactive)
REMARK    1  A    between atoms: C_1  and  N_2
REMARK    2  A    between atoms: C_4  and  C_5
REMARK    3  A    between atoms: N_7  and  C_8
REMARK    4  A    between atoms: C_8  and  C_9
REMARK    5  A    between atoms: C_12  and  C_13
REMARK    6  A    between atoms: C_13  and  C_14
REMARK    7  A    between atoms: C_14  and  N_15
REMARK    8  A    between atoms: N_15  and  C_16
REMARK                            x       y       z     vdW  Elec       q    Type
REMARK                         _______ _______ _______ _____ _____    ______ ____
ROOT
ATOM      1  C   UNL     1      48.104   6.629  13.699  0.00  0.00    +0.000 C 
ENDROOT
BRANCH   1   2
ATOM      2  C   UNL     1      46.961   6.023  12.959  0.00  0.00    +0.000 A 
ATOM      3  C   UNL     1      46.410   4.802  13.372  0.00  0.00    +0.000 A 
ATOM      4  C   UNL     1      45.373   4.223  12.650  0.00  0.00    +0.000 A 
ATOM      5  C   UNL     1      44.896   4.875  11.521  0.00  0.00    +0.000 A 
ATOM      6  N   UNL     1      45.378   6.091  11.153  0.00  0.00    +0.000 NA
ATOM      7  C   UNL     1      46.407   6.612  11.836  0.00  0.00    +0.000 A 
BRANCH   5   8
ATOM      8  C   UNL     1      43.792   4.307  10.680  0.00  0.00    +0.000 C 
BRANCH   8   9
ATOM      9  C   UNL     1      44.320   3.347   9.604  0.00  0.00    +0.000 C 
BRANCH   9  10
ATOM     10  N   UNL     1      45.069   3.988   8.513  0.00  0.00    +0.000 NA
ATOM     11  H   UNL     1      45.747   4.652   8.880  0.00  0.00    +0.000 HD
BRANCH  10  12
ATOM     12  C   UNL     1      45.714   2.992   7.648  0.00  0.00    +0.000 C 
ATOM     13  C   UNL     1      46.032   1.733   8.457  0.00  0.00    +0.000 C 
ATOM     14  C   UNL     1      46.785   0.730   7.591  0.00  0.00    +0.000 C 
ATOM     15  O   UNL     1      47.974   1.303   7.047  0.00  0.00    +0.000 OA
ATOM     16  C   UNL     1      47.695   2.413   6.204  0.00  0.00    +0.000 C 
ATOM     17  C   UNL     1      46.995   3.516   6.977  0.00  0.00    +0.000 C 
ENDBRANCH  10  12
ENDBRANCH   9  10
ENDBRANCH   8   9
ENDBRANCH   5   8
ENDBRANCH   1   2
BRANCH   1  20
ATOM     18  C   UNL     1      49.102   6.523  15.923  0.00  0.00    +0.000 C 
ATOM     19  O   UNL     1      50.218   6.621  15.450  0.00  0.00    +0.000 OA
ATOM     20  N   UNL     1      47.963   6.528  15.137  0.00  0.00    +0.000 N 
ATOM     21  H   UNL     1      47.058   6.367  15.549  0.00  0.00    +0.000 HD
BRANCH  18  25
ATOM     22  C   UNL     1      48.734   4.503  20.472  0.00  0.00    +0.000 C 
ATOM     23  N   UNL     1      48.683   5.462  19.392  0.00  0.00    +0.000 N 
ATOM     24  C   UNL     1      49.060   5.223  18.097  0.00  0.00    +0.000 A 
ATOM     25  C   UNL     1      48.854   6.385  17.358  0.00  0.00    +0.000 A 
ATOM     26  C   UNL     1      48.324   7.370  18.269  0.00  0.00    +0.000 A 
ATOM     27  C   UNL     1      47.904   8.698  18.276  0.00  0.00    +0.000 A 
ATOM     28 CL   UNL     1      47.950   9.661  16.883  0.00  0.00    +0.000 Cl
ATOM     29  N   UNL     1      47.473   9.311  19.393  0.00  0.00    +0.000 NA
ATOM     30  C   UNL     1      47.449   8.582  20.512  0.00  0.00    +0.000 A 
ATOM     31  N   UNL     1      47.816   7.302  20.666  0.00  0.00    +0.000 NA
ATOM     32  C   UNL     1      48.242   6.750  19.516  0.00  0.00    +0.000 A 
ENDBRANCH  18  25
ENDBRANCH   1  20
TORSDOF 7
ENDMDL
MODEL 3
REMARK VINA RESULT:    -7.564      2.212      3.220
REMARK INTER + INTRA:         -11.814
REMARK INTER:                 -10.697
REMARK INTRA:                  -1.117
REMARK UNBOUND:                -1.155
REMARK  Name = 
REMARK  8 active torsions:
REMARK  status: ('A' for Active; 'I' for Inactive)
REMARK    1  A    between atoms: C_1  and  N_2
REMARK    2  A    between atoms: C_4  and  C_5
REMARK    3  A    between atoms: N_7  and  C_8
REMARK    4  A    between atoms: C_8  and  C_9
REMARK    5  A    between atoms: C_12  and  C_13
REMARK    6  A    between atoms: C_13  and  C_14
REMARK    7  A    between atoms: C_14  and  N_15
REMARK    8  A    between atoms: N_15  and  C_16
REMARK                            x       y       z     vdW  Elec       q    Type
REMARK                         _______ _______ _______ _____ _____    ______ ____
ROOT
ATOM      1  C   UNL     1      47.171   3.978  14.835  0.00  0.00    +0.000 C 
ENDROOT
BRANCH   1   2
ATOM      2  C   UNL     1      46.346   4.259  13.626  0.00  0.00    +0.000 A 
ATOM      3  C   UNL     1      45.970   5.570  13.306  0.00  0.00    +0.000 A 
ATOM      4  C   UNL     1      45.164   5.817  12.201  0.00  0.00    +0.000 A 
ATOM      5  C   UNL     1      44.743   4.746  11.425  0.00  0.00    +0.000 A 
ATOM      6  N   UNL     1      45.158   3.479  11.688  0.00  0.00    +0.000 NA
ATOM      7  C   UNL     1      45.899   3.256  12.783  0.00  0.00    +0.000 A 
BRANCH   5   8
ATOM      8  C   UNL     1      43.858   4.929  10.228  0.00  0.00    +0.000 C 
BRANCH   8   9
ATOM      9  C   UNL     1      44.216   3.962   9.090  0.00  0.00    +0.000 C 
BRANCH   9  10
ATOM     10  N   UNL     1      45.412   4.329   8.317  0.00  0.00    +0.000 NA
ATOM     11  H   UNL     1      46.136   4.706   8.925  0.00  0.00    +0.000 HD
BRANCH  10  12
ATOM     12  C   UNL     1      45.914   3.192   7.534  0.00  0.00    +0.000 C 
ATOM     13  C   UNL     1      46.049   1.963   8.437  0.00  0.00    +0.000 C 
ATOM     14  C   UNL     1      46.657   0.804   7.655  0.00  0.00    +0.000 C 
ATOM     15  O   UNL     1      47.916   1.163   7.088  0.00  0.00    +0.000 OA
ATOM     16  C   UNL     1      47.799   2.238   6.164  0.00  0.00    +0.000 C 
ATOM     17  C   UNL     1      47.259   3.481   6.846  0.00  0.00    +0.000 C 
ENDBRANCH  10  12
ENDBRANCH   9  10
ENDBRANCH   8   9
ENDBRANCH   5   8
ENDBRANCH   1   2
BRANCH   1  20
ATOM     18  C   UNL     1      48.415   5.173  16.561  0.00  0.00    +0.000 C 
ATOM     19  O   UNL     1      49.221   4.264  16.638  0.00  0.00    +0.000 OA
ATOM     20  N   UNL     1      47.349   5.142  15.679  0.00  0.00    +0.000 N 
ATOM     21  H   UNL     1      46.656   5.871  15.691  0.00  0.00    +0.000 HD
BRANCH  18  25
ATOM     22  C   UNL     1      48.280   8.163  20.553  0.00  0.00    +0.000 C 
ATOM     23  N   UNL     1      48.413   7.708  19.188  0.00  0.00    +0.000 N 
ATOM     24  C   UNL     1      48.312   6.408  18.770  0.00  0.00    +0.000 A 
ATOM     25  C   UNL     1      48.489   6.376  17.389  0.00  0.00    +0.000 A 
ATOM     26  C   UNL     1      48.709   7.736  16.966  0.00  0.00    +0.000 A 
ATOM     27  C   UNL     1      48.961   8.463  15.804  0.00  0.00    +0.000 A 
ATOM     28 CL   UNL     1      49.104   7.716  14.291  0.00  0.00    +0.000 Cl
ATOM     29  N   UNL     1      49.146   9.797  15.815  0.00  0.00    +0.000 NA
ATOM     30  C   UNL     1      49.063  10.409  16.999  0.00  0.00    +0.000 A 
ATOM     31  N   UNL     1      48.826   9.853  18.195  0.00  0.00    +0.000 NA
ATOM     32  C   UNL     1      48.657   8.522  18.118  0.00  0.00    +0.000 A 
ENDBRANCH  18  25
ENDBRANCH   1  20
TORSDOF 7
ENDMDL
MODEL 4
REMARK VINA RESULT:    -7.539      2.314      3.045
REMARK INTER + INTRA:         -11.778
REMARK INTER:                 -10.899
REMARK INTRA:                  -0.879
REMARK UNBOUND:                -1.155
REMARK  Name = 
REMARK  8 active torsions:
REMARK  status: ('A' for Active; 'I' for Inactive)
REMARK    1  A    between atoms: C_1  and  N_2
REMARK    2  A    between atoms: C_4  and  C_5
REMARK    3  A    between atoms: N_7  and  C_8
REMARK    4  A    between atoms: C_8  and  C_9
REMARK    5  A    between atoms: C_12  and  C_13
REMARK    6  A    between atoms: C_13  and  C_14
REMARK    7  A    between atoms: C_14  and  N_15
REMARK    8  A    between atoms: N_15  and  C_16
REMARK                            x       y       z     vdW  Elec       q    Type
REMARK                         _______ _______ _______ _____ _____    ______ ____
ROOT
ATOM      1  C   UNL     1      47.144   4.366  14.914  0.00  0.00    +0.000 C 
ENDROOT
BRANCH   1   2
ATOM      2  C   UNL     1      46.329   4.497  13.673  0.00  0.00    +0.000 A 
ATOM      3  C   UNL     1      45.888   5.754  13.237  0.00  0.00    +0.000 A 
ATOM      4  C   UNL     1      45.092   5.861  12.103  0.00  0.00    +0.000 A 
ATOM      5  C   UNL     1      44.748   4.706  11.414  0.00  0.00    +0.000 A 
ATOM      6  N   UNL     1      45.227   3.491  11.789  0.00  0.00    +0.000 NA
ATOM      7  C   UNL     1      45.957   3.404  12.911  0.00  0.00    +0.000 A 
BRANCH   5   8
ATOM      8  C   UNL     1      43.878   4.737  10.192  0.00  0.00    +0.000 C 
BRANCH   8   9
ATOM      9  C   UNL     1      44.307   3.695   9.149  0.00  0.00    +0.000 C 
BRANCH   9  10
ATOM     10  N   UNL     1      45.261   4.182   8.141  0.00  0.00    +0.000 NA
ATOM     11  H   UNL     1      45.974   4.769   8.569  0.00  0.00    +0.000 HD
BRANCH  10  12
ATOM     12  C   UNL     1      45.865   3.071   7.393  0.00  0.00    +0.000 C 
ATOM     13  C   UNL     1      46.077   1.876   8.325  0.00  0.00    +0.000 C 
ATOM     14  C   UNL     1      46.788   0.751   7.581  0.00  0.00    +0.000 C 
ATOM     15  O   UNL     1      48.026   1.196   7.029  0.00  0.00    +0.000 OA
ATOM     16  C   UNL     1      47.844   2.238   6.078  0.00  0.00    +0.000 C 
ATOM     17  C   UNL     1      47.196   3.450   6.722  0.00  0.00    +0.000 C 
ENDBRANCH  10  12
ENDBRANCH   9  10
ENDBRANCH   8   9
ENDBRANCH   5   8
ENDBRANCH   1   2
BRANCH   1  20
ATOM     18  C   UNL     1      48.645   5.678  16.322  0.00  0.00    +0.000 C 
ATOM     19  O   UNL     1      49.245   4.673  16.653  0.00  0.00    +0.000 OA
ATOM     20  N   UNL     1      47.577   5.644  15.442  0.00  0.00    +0.000 N 
ATOM     21  H   UNL     1      47.051   6.479  15.246  0.00  0.00    +0.000 HD
BRANCH  18  25
ATOM     22  C   UNL     1      50.712  10.208  16.638  0.00  0.00    +0.000 C 
ATOM     23  N   UNL     1      49.928   9.037  16.955  0.00  0.00    +0.000 N 
ATOM     24  C   UNL     1      49.815   7.919  16.171  0.00  0.00    +0.000 A 
ATOM     25  C   UNL     1      48.983   7.010  16.821  0.00  0.00    +0.000 A 
ATOM     26  C   UNL     1      48.580   7.626  18.060  0.00  0.00    +0.000 A 
ATOM     27  C   UNL     1      47.789   7.359  19.175  0.00  0.00    +0.000 A 
ATOM     28 CL   UNL     1      46.925   5.911  19.336  0.00  0.00    +0.000 Cl
ATOM     29  N   UNL     1      47.630   8.246  20.175  0.00  0.00    +0.000 NA
ATOM     30  C   UNL     1      48.281   9.406  20.063  0.00  0.00    +0.000 A 
ATOM     31  N   UNL     1      49.075   9.808  19.061  0.00  0.00    +0.000 NA
ATOM     32  C   UNL     1      49.188   8.882  18.094  0.00  0.00    +0.000 A 
ENDBRANCH  18  25
ENDBRANCH   1  20
TORSDOF 7
ENDMDL
MODEL 5
REMARK VINA RESULT:    -6.980      2.256      3.277
REMARK INTER + INTRA:         -10.991
REMARK INTER:                 -10.012
REMARK INTRA:                  -0.979
REMARK UNBOUND:                -1.155
REMARK  Name = 
REMARK  8 active torsions:
REMARK  status: ('A' for Active; 'I' for Inactive)
REMARK    1  A    between atoms: C_1  and  N_2
REMARK    2  A    between atoms: C_4  and  C_5
REMARK    3  A    between atoms: N_7  and  C_8
REMARK    4  A    between atoms: C_8  and  C_9
REMARK    5  A    between atoms: C_12  and  C_13
REMARK    6  A    between atoms: C_13  and  C_14
REMARK    7  A    between atoms: C_14  and  N_15
REMARK    8  A    between atoms: N_15  and  C_16
REMARK                            x       y       z     vdW  Elec       q    Type
REMARK                         _______ _______ _______ _____ _____    ______ ____
ROOT
ATOM      1  C   UNL     1      47.119   3.883  15.363  0.00  0.00    +0.000 C 
ENDROOT
BRANCH   1   2
ATOM      2  C   UNL     1      46.733   4.477  14.051  0.00  0.00    +0.000 A 
ATOM      3  C   UNL     1      47.153   5.767  13.699  0.00  0.00    +0.000 A 
ATOM      4  C   UNL     1      46.751   6.328  12.493  0.00  0.00    +0.000 A 
ATOM      5  C   UNL     1      45.934   5.588  11.648  0.00  0.00    +0.000 A 
ATOM      6  N   UNL     1      45.579   4.312  11.950  0.00  0.00    +0.000 NA
ATOM      7  C   UNL     1      45.940   3.805  13.138  0.00  0.00    +0.000 A 
BRANCH   5   8
ATOM      8  C   UNL     1      45.445   6.131  10.338  0.00  0.00    +0.000 C 
BRANCH   8   9
ATOM      9  C   UNL     1      45.874   5.255   9.152  0.00  0.00    +0.000 C 
BRANCH   9  10
ATOM     10  N   UNL     1      44.797   4.452   8.553  0.00  0.00    +0.000 NA
ATOM     11  H   UNL     1      44.196   5.029   7.968  0.00  0.00    +0.000 HD
BRANCH  10  12
ATOM     12  C   UNL     1      45.334   3.311   7.800  0.00  0.00    +0.000 C 
ATOM     13  C   UNL     1      45.647   2.160   8.760  0.00  0.00    +0.000 C 
ATOM     14  C   UNL     1      46.290   1.005   8.000  0.00  0.00    +0.000 C 
ATOM     15  O   UNL     1      47.465   1.429   7.309  0.00  0.00    +0.000 OA
ATOM     16  C   UNL     1      47.182   2.426   6.335  0.00  0.00    +0.000 C 
ATOM     17  C   UNL     1      46.590   3.664   6.985  0.00  0.00    +0.000 C 
ENDBRANCH  10  12
ENDBRANCH   9  10
ENDBRANCH   8   9
ENDBRANCH   5   8
ENDBRANCH   1   2
BRANCH   1  20
ATOM     18  C   UNL     1      48.183   4.488  17.474  0.00  0.00    +0.000 C 
ATOM     19  O   UNL     1      48.527   3.335  17.655  0.00  0.00    +0.000 OA
ATOM     20  N   UNL     1      47.480   4.882  16.349  0.00  0.00    +0.000 N 
ATOM     21  H   UNL     1      47.142   5.826  16.263  0.00  0.00    +0.000 HD
BRANCH  18  25
ATOM     22  C   UNL     1      47.509   8.167  20.777  0.00  0.00    +0.000 C 
ATOM     23  N   UNL     1      48.153   7.221  19.895  0.00  0.00    +0.000 N 
ATOM     24  C   UNL     1      47.513   6.271  19.145  0.00  0.00    +0.000 A 
ATOM     25  C   UNL     1      48.472   5.564  18.422  0.00  0.00    +0.000 A 
ATOM     26  C   UNL     1      49.753   6.128  18.766  0.00  0.00    +0.000 A 
ATOM     27  C   UNL     1      51.105   5.956  18.478  0.00  0.00    +0.000 A 
ATOM     28 CL   UNL     1      51.650   4.753  17.418  0.00  0.00    +0.000 Cl
ATOM     29  N   UNL     1      52.065   6.706  19.051  0.00  0.00    +0.000 NA
ATOM     30  C   UNL     1      51.664   7.647  19.910  0.00  0.00    +0.000 A 
ATOM     31  N   UNL     1      50.411   7.934  20.287  0.00  0.00    +0.000 NA
ATOM     32  C   UNL     1      49.501   7.148  19.684  0.00  0.00    +0.000 A 
ENDBRANCH  18  25
ENDBRANCH   1  20
TORSDOF 7
ENDMDL
MODEL 6
REMARK VINA RESULT:    -6.809      2.428      3.592
REMARK INTER + INTRA:         -10.750
REMARK INTER:                  -9.862
REMARK INTRA:                  -0.888
REMARK UNBOUND:                -1.155
REMARK  Name = 
REMARK  8 active torsions:
REMARK  status: ('A' for Active; 'I' for Inactive)
REMARK    1  A    between atoms: C_1  and  N_2
REMARK    2  A    between atoms: C_4  and  C_5
REMARK    3  A    between atoms: N_7  and  C_8
REMARK    4  A    between atoms: C_8  and  C_9
REMARK    5  A    between atoms: C_12  and  C_13
REMARK    6  A    between atoms: C_13  and  C_14
REMARK    7  A    between atoms: C_14  and  N_15
REMARK    8  A    between atoms: N_15  and  C_16
REMARK                            x       y       z     vdW  Elec       q    Type
REMARK                         _______ _______ _______ _____ _____    ______ ____
ROOT
ATOM      1  C   UNL     1      47.444   4.404  15.202  0.00  0.00    +0.000 C 
ENDROOT
BRANCH   1   2
ATOM      2  C   UNL     1      46.616   4.567  13.973  0.00  0.00    +0.000 A 
ATOM      3  C   UNL     1      46.183   3.448  13.250  0.00  0.00    +0.000 A 
ATOM      4  C   UNL     1      45.449   3.612  12.081  0.00  0.00    +0.000 A 
ATOM      5  C   UNL     1      45.153   4.898  11.650  0.00  0.00    +0.000 A 
ATOM      6  N   UNL     1      45.510   5.986  12.381  0.00  0.00    +0.000 NA
ATOM      7  C   UNL     1      46.255   5.809  13.481  0.00  0.00    +0.000 A 
BRANCH   5   8
ATOM      8  C   UNL     1      44.381   5.157  10.391  0.00  0.00    +0.000 C 
BRANCH   8   9
ATOM      9  C   UNL     1      44.454   3.976   9.412  0.00  0.00    +0.000 C 
BRANCH   9  10
ATOM     10  N   UNL     1      45.112   4.272   8.131  0.00  0.00    +0.000 NA
ATOM     11  H   UNL     1      45.451   5.232   8.110  0.00  0.00    +0.000 HD
BRANCH  10  12
ATOM     12  C   UNL     1      46.195   3.320   7.851  0.00  0.00    +0.000 C 
ATOM     13  C   UNL     1      46.578   3.394   6.371  0.00  0.00    +0.000 C 
ATOM     14  C   UNL     1      47.636   2.345   6.051  0.00  0.00    +0.000 C 
ATOM     15  O   UNL     1      47.191   1.035   6.400  0.00  0.00    +0.000 OA
ATOM     16  C   UNL     1      46.929   0.912   7.792  0.00  0.00    +0.000 C 
ATOM     17  C   UNL     1      45.835   1.872   8.223  0.00  0.00    +0.000 C 
ENDBRANCH  10  12
ENDBRANCH   9  10
ENDBRANCH   8   9
ENDBRANCH   5   8
ENDBRANCH   1   2
BRANCH   1  20
ATOM     18  C   UNL     1      48.843   5.844  16.589  0.00  0.00    +0.000 C 
ATOM     19  O   UNL     1      49.730   5.012  16.594  0.00  0.00    +0.000 OA
ATOM     20  N   UNL     1      47.652   5.650  15.911  0.00  0.00    +0.000 N 
ATOM     21  H   UNL     1      46.906   6.322  15.989  0.00  0.00    +0.000 HD
BRANCH  18  25
ATOM     22  C   UNL     1      48.198   9.372  20.059  0.00  0.00    +0.000 C 
ATOM     23  N   UNL     1      48.635   8.697  18.858  0.00  0.00    +0.000 N 
ATOM     24  C   UNL     1      48.359   7.396  18.532  0.00  0.00    +0.000 A 
ATOM     25  C   UNL     1      48.943   7.120  17.298  0.00  0.00    +0.000 A 
ATOM     26  C   UNL     1      49.602   8.328  16.869  0.00  0.00    +0.000 A 
ATOM     27  C   UNL     1      50.367   8.805  15.807  0.00  0.00    +0.000 A 
ATOM     28 CL   UNL     1      50.789   7.823  14.493  0.00  0.00    +0.000 Cl
ATOM     29  N   UNL     1      50.853  10.059  15.776  0.00  0.00    +0.000 NA
ATOM     30  C   UNL     1      50.557  10.849  16.812  0.00  0.00    +0.000 A 
ATOM     31  N   UNL     1      49.836  10.540  17.898  0.00  0.00    +0.000 NA
ATOM     32  C   UNL     1      49.385   9.273  17.872  0.00  0.00    +0.000 A 
ENDBRANCH  18  25
ENDBRANCH   1  20
TORSDOF 7
ENDMDL
MODEL 7
REMARK VINA RESULT:    -6.763      2.481      8.190
REMARK INTER + INTRA:         -10.685
REMARK INTER:                  -9.303
REMARK INTRA:                  -1.382
REMARK UNBOUND:                -1.155
REMARK  Name = 
REMARK  8 active torsions:
REMARK  status: ('A' for Active; 'I' for Inactive)
REMARK    1  A    between atoms: C_1  and  N_2
REMARK    2  A    between atoms: C_4  and  C_5
REMARK    3  A    between atoms: N_7  and  C_8
REMARK    4  A    between atoms: C_8  and  C_9
REMARK    5  A    between atoms: C_12  and  C_13
REMARK    6  A    between atoms: C_13  and  C_14
REMARK    7  A    between atoms: C_14  and  N_15
REMARK    8  A    between atoms: N_15  and  C_16
REMARK                            x       y       z     vdW  Elec       q    Type
REMARK                         _______ _______ _______ _____ _____    ______ ____
ROOT
ATOM      1  C   UNL     1      46.727   8.201  12.883  0.00  0.00    +0.000 C 
ENDROOT
BRANCH   1   2
ATOM      2  C   UNL     1      47.742   8.003  13.956  0.00  0.00    +0.000 A 
ATOM      3  C   UNL     1      47.936   8.976  14.945  0.00  0.00    +0.000 A 
ATOM      4  C   UNL     1      48.916   8.802  15.916  0.00  0.00    +0.000 A 
ATOM      5  C   UNL     1      49.691   7.651  15.887  0.00  0.00    +0.000 A 
ATOM      6  N   UNL     1      49.464   6.671  14.974  0.00  0.00    +0.000 NA
ATOM      7  C   UNL     1      48.545   6.877  14.020  0.00  0.00    +0.000 A 
BRANCH   5   8
ATOM      8  C   UNL     1      50.778   7.398  16.888  0.00  0.00    +0.000 C 
BRANCH   8   9
ATOM      9  C   UNL     1      50.445   6.226  17.823  0.00  0.00    +0.000 C 
BRANCH   9  10
ATOM     10  N   UNL     1      49.074   5.707  17.701  0.00  0.00    +0.000 NA
ATOM     11  H   UNL     1      48.597   6.123  16.904  0.00  0.00    +0.000 HD
BRANCH  10  12
ATOM     12  C   UNL     1      49.061   4.240  17.621  0.00  0.00    +0.000 C 
ATOM     13  C   UNL     1      50.488   3.721  17.429  0.00  0.00    +0.000 C 
ATOM     14  C   UNL     1      50.475   2.207  17.252  0.00  0.00    +0.000 C 
ATOM     15  O   UNL     1      49.638   1.818  16.164  0.00  0.00    +0.000 OA
ATOM     16  C   UNL     1      48.283   2.198  16.369  0.00  0.00    +0.000 C 
ATOM     17  C   UNL     1      48.158   3.705  16.497  0.00  0.00    +0.000 C 
ENDBRANCH  10  12
ENDBRANCH   9  10
ENDBRANCH   8   9
ENDBRANCH   5   8
ENDBRANCH   1   2
BRANCH   1  20
ATOM     18  C   UNL     1      45.342   6.842  11.404  0.00  0.00    +0.000 C 
ATOM     19  O   UNL     1      44.426   7.637  11.496  0.00  0.00    +0.000 OA
ATOM     20  N   UNL     1      46.552   7.029  12.049  0.00  0.00    +0.000 N 
ATOM     21  H   UNL     1      47.262   6.317  12.018  0.00  0.00    +0.000 HD
BRANCH  18  25
ATOM     22  C   UNL     1      45.970   3.578   7.681  0.00  0.00    +0.000 C 
ATOM     23  N   UNL     1      45.536   4.165   8.929  0.00  0.00    +0.000 N 
ATOM     24  C   UNL     1      45.876   5.411   9.382  0.00  0.00    +0.000 A 
ATOM     25  C   UNL     1      45.255   5.615  10.613  0.00  0.00    +0.000 A 
ATOM     26  C   UNL     1      44.505   4.418  10.904  0.00  0.00    +0.000 A 
ATOM     27  C   UNL     1      43.683   3.892  11.898  0.00  0.00    +0.000 A 
ATOM     28 CL   UNL     1      43.318   4.752  13.310  0.00  0.00    +0.000 Cl
ATOM     29  N   UNL     1      43.160   2.654  11.819  0.00  0.00    +0.000 NA
ATOM     30  C   UNL     1      43.452   1.943  10.727  0.00  0.00    +0.000 A 
ATOM     31  N   UNL     1      44.220   2.308   9.690  0.00  0.00    +0.000 NA
ATOM     32  C   UNL     1      44.716   3.550   9.833  0.00  0.00    +0.000 A 
ENDBRANCH  18  25
ENDBRANCH   1  20
TORSDOF 7
ENDMDL
MODEL 8
REMARK VINA RESULT:    -6.758      2.286      3.342
REMARK INTER + INTRA:         -10.678
REMARK INTER:                  -9.903
REMARK INTRA:                  -0.775
REMARK UNBOUND:                -1.155
REMARK  Name = 
REMARK  8 active torsions:
REMARK  status: ('A' for Active; 'I' for Inactive)
REMARK    1  A    between atoms: C_1  and  N_2
REMARK    2  A    between atoms: C_4  and  C_5
REMARK    3  A    between atoms: N_7  and  C_8
REMARK    4  A    between atoms: C_8  and  C_9
REMARK    5  A    between atoms: C_12  and  C_13
REMARK    6  A    between atoms: C_13  and  C_14
REMARK    7  A    between atoms: C_14  and  N_15
REMARK    8  A    between atoms: N_15  and  C_16
REMARK                            x       y       z     vdW  Elec       q    Type
REMARK                         _______ _______ _______ _____ _____    ______ ____
ROOT
ATOM      1  C   UNL     1      47.149   4.420  15.117  0.00  0.00    +0.000 C 
ENDROOT
BRANCH   1   2
ATOM      2  C   UNL     1      46.339   4.477  13.867  0.00  0.00    +0.000 A 
ATOM      3  C   UNL     1      45.896   3.300  13.249  0.00  0.00    +0.000 A 
ATOM      4  C   UNL     1      45.180   3.361  12.060  0.00  0.00    +0.000 A 
ATOM      5  C   UNL     1      44.911   4.604  11.503  0.00  0.00    +0.000 A 
ATOM      6  N   UNL     1      45.277   5.752  12.130  0.00  0.00    +0.000 NA
ATOM      7  C   UNL     1      46.005   5.671  13.252  0.00  0.00    +0.000 A 
BRANCH   5   8
ATOM      8  C   UNL     1      44.158   4.752  10.214  0.00  0.00    +0.000 C 
BRANCH   8   9
ATOM      9  C   UNL     1      44.492   3.634   9.216  0.00  0.00    +0.000 C 
BRANCH   9  10
ATOM     10  N   UNL     1      45.032   4.093   7.928  0.00  0.00    +0.000 NA
ATOM     11  H   UNL     1      45.648   4.893   8.057  0.00  0.00    +0.000 HD
BRANCH  10  12
ATOM     12  C   UNL     1      45.717   3.006   7.215  0.00  0.00    +0.000 C 
ATOM     13  C   UNL     1      46.153   1.929   8.212  0.00  0.00    +0.000 C 
ATOM     14  C   UNL     1      46.944   0.842   7.495  0.00  0.00    +0.000 C 
ATOM     15  O   UNL     1      48.069   1.387   6.805  0.00  0.00    +0.000 OA
ATOM     16  C   UNL     1      47.681   2.314   5.799  0.00  0.00    +0.000 C 
ATOM     17  C   UNL     1      46.932   3.487   6.405  0.00  0.00    +0.000 C 
ENDBRANCH  10  12
ENDBRANCH   9  10
ENDBRANCH   8   9
ENDBRANCH   5   8
ENDBRANCH   1   2
BRANCH   1  20
ATOM     18  C   UNL     1      48.584   5.775  16.553  0.00  0.00    +0.000 C 
ATOM     19  O   UNL     1      48.595   4.902  17.400  0.00  0.00    +0.000 OA
ATOM     20  N   UNL     1      47.899   5.636  15.358  0.00  0.00    +0.000 N 
ATOM     21  H   UNL     1      47.843   6.404  14.710  0.00  0.00    +0.000 HD
BRANCH  18  25
ATOM     22  C   UNL     1      49.450  10.686  16.728  0.00  0.00    +0.000 C 
ATOM     23  N   UNL     1      49.658   9.257  16.777  0.00  0.00    +0.000 N 
ATOM     24  C   UNL     1      48.688   8.306  16.606  0.00  0.00    +0.000 A 
ATOM     25  C   UNL     1      49.282   7.050  16.713  0.00  0.00    +0.000 A 
ATOM     26  C   UNL     1      50.684   7.272  16.964  0.00  0.00    +0.000 A 
ATOM     27  C   UNL     1      51.854   6.550  17.185  0.00  0.00    +0.000 A 
ATOM     28 CL   UNL     1      51.870   4.857  17.225  0.00  0.00    +0.000 Cl
ATOM     29  N   UNL     1      53.037   7.148  17.420  0.00  0.00    +0.000 NA
ATOM     30  C   UNL     1      53.050   8.484  17.419  0.00  0.00    +0.000 A 
ATOM     31  N   UNL     1      52.016   9.314  17.221  0.00  0.00    +0.000 NA
ATOM     32  C   UNL     1      50.865   8.655  16.998  0.00  0.00    +0.000 A 
ENDBRANCH  18  25
ENDBRANCH   1  20
TORSDOF 7
ENDMDL
MODEL 9
REMARK VINA RESULT:    -6.325      2.183      3.211
REMARK INTER + INTRA:         -10.068
REMARK INTER:                  -9.083
REMARK INTRA:                  -0.985
REMARK UNBOUND:                -1.155
REMARK  Name = 
REMARK  8 active torsions:
REMARK  status: ('A' for Active; 'I' for Inactive)
REMARK    1  A    between atoms: C_1  and  N_2
REMARK    2  A    between atoms: C_4  and  C_5
REMARK    3  A    between atoms: N_7  and  C_8
REMARK    4  A    between atoms: C_8  and  C_9
REMARK    5  A    between atoms: C_12  and  C_13
REMARK    6  A    between atoms: C_13  and  C_14
REMARK    7  A    between atoms: C_14  and  N_15
REMARK    8  A    between atoms: N_15  and  C_16
REMARK                            x       y       z     vdW  Elec       q    Type
REMARK                         _______ _______ _______ _____ _____    ______ ____
ROOT
ATOM      1  C   UNL     1      46.594   4.177  15.409  0.00  0.00    +0.000 C 
ENDROOT
BRANCH   1   2
ATOM      2  C   UNL     1      46.269   4.645  14.032  0.00  0.00    +0.000 A 
ATOM      3  C   UNL     1      45.209   4.074  13.315  0.00  0.00    +0.000 A 
ATOM      4  C   UNL     1      44.941   4.486  12.015  0.00  0.00    +0.000 A 
ATOM      5  C   UNL     1      45.738   5.470  11.447  0.00  0.00    +0.000 A 
ATOM      6  N   UNL     1      46.724   6.078  12.157  0.00  0.00    +0.000 NA
ATOM      7  C   UNL     1      46.995   5.635  13.394  0.00  0.00    +0.000 A 
BRANCH   5   8
ATOM      8  C   UNL     1      45.523   5.956  10.044  0.00  0.00    +0.000 C 
BRANCH   8   9
ATOM      9  C   UNL     1      46.100   4.989   9.001  0.00  0.00    +0.000 C 
BRANCH   9  10
ATOM     10  N   UNL     1      45.101   4.335   8.142  0.00  0.00    +0.000 NA
ATOM     11  H   UNL     1      44.676   5.005   7.505  0.00  0.00    +0.000 HD
BRANCH  10  12
ATOM     12  C   UNL     1      45.681   3.201   7.411  0.00  0.00    +0.000 C 
ATOM     13  C   UNL     1      46.044   2.085   8.394  0.00  0.00    +0.000 C 
ATOM     14  C   UNL     1      46.731   0.941   7.656  0.00  0.00    +0.000 C 
ATOM     15  O   UNL     1      47.885   1.398   6.951  0.00  0.00    +0.000 OA
ATOM     16  C   UNL     1      47.559   2.361   5.958  0.00  0.00    +0.000 C 
ATOM     17  C   UNL     1      46.919   3.587   6.583  0.00  0.00    +0.000 C 
ENDBRANCH  10  12
ENDBRANCH   9  10
ENDBRANCH   8   9
ENDBRANCH   5   8
ENDBRANCH   1   2
BRANCH   1  20
ATOM     18  C   UNL     1      48.393   4.853  16.914  0.00  0.00    +0.000 C 
ATOM     19  O   UNL     1      47.586   5.267  17.725  0.00  0.00    +0.000 OA
ATOM     20  N   UNL     1      48.007   4.273  15.718  0.00  0.00    +0.000 N 
ATOM     21  H   UNL     1      48.695   4.010  15.033  0.00  0.00    +0.000 HD
BRANCH  18  25
ATOM     22  C   UNL     1      53.002   3.734  18.465  0.00  0.00    +0.000 C 
ATOM     23  N   UNL     1      51.901   4.421  17.830  0.00  0.00    +0.000 N 
ATOM     24  C   UNL     1      50.599   3.996  17.817  0.00  0.00    +0.000 A 
ATOM     25  C   UNL     1      49.839   4.930  17.117  0.00  0.00    +0.000 A 
ATOM     26  C   UNL     1      50.744   5.968  16.690  0.00  0.00    +0.000 A 
ATOM     27  C   UNL     1      50.734   7.163  15.974  0.00  0.00    +0.000 A 
ATOM     28 CL   UNL     1      49.317   7.784  15.285  0.00  0.00    +0.000 Cl
ATOM     29  N   UNL     1      51.851   7.878  15.750  0.00  0.00    +0.000 NA
ATOM     30  C   UNL     1      52.988   7.399  16.262  0.00  0.00    +0.000 A 
ATOM     31  N   UNL     1      53.160   6.274  16.970  0.00  0.00    +0.000 NA
ATOM     32  C   UNL     1      52.009   5.604  17.153  0.00  0.00    +0.000 A 
ENDBRANCH  18  25
ENDBRANCH   1  20
TORSDOF 7
ENDMDL
