MODEL 1
REMARK VINA RESULT:    -7.580      0.000      0.000
REMARK INTER + INTRA:         -11.418
REMARK INTER:                 -10.903
REMARK INTRA:                  -0.515
REMARK UNBOUND:                -0.515
REMARK  Name = 
REMARK  9 active torsions:
REMARK  status: ('A' for Active; 'I' for Inactive)
REMARK    1  A    between atoms: C_1  and  O_2
REMARK    2  A    between atoms: O_2  and  C_3
REMARK    3  A    between atoms: C_3  and  C_5
REMARK    4  A    between atoms: C_8  and  O_9
REMARK    5  A    between atoms: O_9  and  C_10
REMARK    6  A    between atoms: C_10  and  C_11
REMARK    7  A    between atoms: C_11  and  C_12
REMARK    8  A    between atoms: C_16  and  C_17
REMARK    9  A    between atoms: C_17  and  N_18
REMARK                            x       y       z     vdW  Elec       q    Type
REMARK                         _______ _______ _______ _____ _____    ______ ____
ROOT
ATOM      1  C   UNL     1      43.208   4.457  11.128  0.00  0.00    +0.000 C 
ENDROOT
BRANCH   1   2
ATOM      2  O   UNL     1      43.474   4.843   9.772  0.00  0.00    +0.000 OA
BRANCH   2   6
ATOM      3  C   UNL     1      46.157   2.251   8.006  0.00  0.00    +0.000 A 
ATOM      4  C   UNL     1      45.230   1.764   8.933  0.00  0.00    +0.000 A 
ATOM      5  C   UNL     1      44.330   2.650   9.533  0.00  0.00    +0.000 A 
ATOM      6  C   UNL     1      44.375   3.987   9.167  0.00  0.00    +0.000 A 
ATOM      7  N   UNL     1      45.268   4.485   8.286  0.00  0.00    +0.000 NA
ATOM      8  C   UNL     1      46.138   3.610   7.728  0.00  0.00    +0.000 A 
BRANCH   3   9
ATOM      9  C   UNL     1      47.154   1.417   7.302  0.00  0.00    +0.000 C 
ATOM     10  O   UNL     1      47.087   0.201   7.243  0.00  0.00    +0.000 OA
BRANCH   9  12
ATOM     11  C   UNL     1      48.016   2.338   5.341  0.00  0.00    +0.000 C 
ATOM     12  O   UNL     1      48.129   2.187   6.756  0.00  0.00    +0.000 OA
ENDBRANCH   9  12
ENDBRANCH   3   9
ENDBRANCH   2   6
ENDBRANCH   1   2
BRANCH   1  13
ATOM     13  C   UNL     1      43.439   5.649  12.058  0.00  0.00    +0.000 C 
BRANCH  13  14
ATOM     14  C   UNL     1      44.903   5.793  12.400  0.00  0.00    +0.000 A 
ATOM     15  C   UNL     1      45.725   6.663  11.673  0.00  0.00    +0.000 A 
ATOM     16  C   UNL     1      47.059   6.842  12.036  0.00  0.00    +0.000 A 
ATOM     17  C   UNL     1      47.585   6.161  13.136  0.00  0.00    +0.000 A 
ATOM     18  C   UNL     1      46.781   5.292  13.884  0.00  0.00    +0.000 A 
ATOM     19  C   UNL     1      45.442   5.110  13.498  0.00  0.00    +0.000 A 
BRANCH  18  20
ATOM     20  C   UNL     1      47.338   4.553  15.074  0.00  0.00    +0.000 C 
BRANCH  20  21
ATOM     21  N   UNL     1      47.622   3.158  14.756  0.00  0.00    +0.000 NA
ATOM     22  H   UNL     1      46.979   2.854  14.026  0.00  0.00    +0.000 HD
ATOM     23  H   UNL     1      47.430   2.582  15.571  0.00  0.00    +0.000 HD
ENDBRANCH  20  21
ENDBRANCH  18  20
ENDBRANCH  13  14
ENDBRANCH   1  13
TORSDOF 8
ENDMDL
MODEL 2
REMARK VINA RESULT:    -7.435      2.752      6.486
REMARK INTER + INTRA:         -11.209
REMARK INTER:                 -10.340
REMARK INTRA:                  -0.870
REMARK UNBOUND:                -0.515
REMARK  Name = 
REMARK  9 active torsions:
REMARK  status: ('A' for Active; 'I' for Inactive)
REMARK    1  A    between atoms: C_1  and  O_2
REMARK    2  A    between atoms: O_2  and  C_3
REMARK    3  A    between atoms: C_3  and  C_5
REMARK    4  A    between atoms: C_8  and  O_9
REMARK    5  A    between atoms: O_9  and  C_10
REMARK    6  A    between atoms: C_10  and  C_11
REMARK    7  A    between atoms: C_11  and  C_12
REMARK    8  A    between atoms: C_16  and  C_17
REMARK    9  A    between atoms: C_17  and  N_18
REMARK                            x       y       z     vdW  Elec       q    Type
REMARK                         _______ _______ _______ _____ _____    ______ ____
ROOT
ATOM      1  C   UNL     1      43.396   3.526  11.393  0.00  0.00    +0.000 C 
ENDROOT
BRANCH   1   2
ATOM      2  O   UNL     1      43.860   3.516  12.752  0.00  0.00    +0.000 OA
BRANCH   2   6
ATOM      3  C   UNL     1      47.180   5.929  13.192  0.00  0.00    +0.000 A 
ATOM      4  C   UNL     1      46.097   6.372  12.424  0.00  0.00    +0.000 A 
ATOM      5  C   UNL     1      44.980   5.545  12.273  0.00  0.00    +0.000 A 
ATOM      6  C   UNL     1      44.976   4.315  12.914  0.00  0.00    +0.000 A 
ATOM      7  N   UNL     1      46.013   3.858  13.649  0.00  0.00    +0.000 NA
ATOM      8  C   UNL     1      47.089   4.671  13.769  0.00  0.00    +0.000 A 
BRANCH   3   9
ATOM      9  C   UNL     1      48.412   6.710  13.430  0.00  0.00    +0.000 C 
ATOM     10  O   UNL     1      48.807   7.584  12.677  0.00  0.00    +0.000 OA
BRANCH   9  12
ATOM     11  C   UNL     1      49.923   7.281  15.112  0.00  0.00    +0.000 C 
ATOM     12  O   UNL     1      49.023   6.310  14.575  0.00  0.00    +0.000 OA
ENDBRANCH   9  12
ENDBRANCH   3   9
ENDBRANCH   2   6
ENDBRANCH   1   2
BRANCH   1  13
ATOM     13  C   UNL     1      43.950   2.310  10.651  0.00  0.00    +0.000 C 
BRANCH  13  14
ATOM     14  C   UNL     1      44.799   2.732   9.476  0.00  0.00    +0.000 A 
ATOM     15  C   UNL     1      44.864   4.076   9.087  0.00  0.00    +0.000 A 
ATOM     16  C   UNL     1      45.703   4.468   8.043  0.00  0.00    +0.000 A 
ATOM     17  C   UNL     1      46.492   3.525   7.384  0.00  0.00    +0.000 A 
ATOM     18  C   UNL     1      46.452   2.177   7.761  0.00  0.00    +0.000 A 
ATOM     19  C   UNL     1      45.592   1.792   8.804  0.00  0.00    +0.000 A 
BRANCH  18  20
ATOM     20  C   UNL     1      47.302   1.150   7.057  0.00  0.00    +0.000 C 
BRANCH  20  21
ATOM     21  N   UNL     1      48.376   1.774   6.291  0.00  0.00    +0.000 NA
ATOM     22  H   UNL     1      48.092   1.825   5.314  0.00  0.00    +0.000 HD
ATOM     23  H   UNL     1      49.200   1.180   6.324  0.00  0.00    +0.000 HD
ENDBRANCH  20  21
ENDBRANCH  18  20
ENDBRANCH  13  14
ENDBRANCH   1  13
TORSDOF 8
ENDMDL
MODEL 3
REMARK VINA RESULT:    -7.369      1.440      1.918
REMARK INTER + INTRA:         -11.116
REMARK INTER:                 -10.454
REMARK INTRA:                  -0.662
REMARK UNBOUND:                -0.515
REMARK  Name = 
REMARK  9 active torsions:
REMARK  status: ('A' for Active; 'I' for Inactive)
REMARK    1  A    between atoms: C_1  and  O_2
REMARK    2  A    between atoms: O_2  and  C_3
REMARK    3  A    between atoms: C_3  and  C_5
REMARK    4  A    between atoms: C_8  and  O_9
REMARK    5  A    between atoms: O_9  and  C_10
REMARK    6  A    between atoms: C_10  and  C_11
REMARK    7  A    between atoms: C_11  and  C_12
REMARK    8  A    between atoms: C_16  and  C_17
REMARK    9  A    between atoms: C_17  and  N_18
REMARK                            x       y       z     vdW  Elec       q    Type
REMARK                         _______ _______ _______ _____ _____    ______ ____
ROOT
ATOM      1  C   UNL     1      43.091   4.111  11.267  0.00  0.00    +0.000 C 
ENDROOT
BRANCH   1   2
ATOM      2  O   UNL     1      43.592   4.781  10.100  0.00  0.00    +0.000 OA
BRANCH   2   6
ATOM      3  C   UNL     1      46.145   2.326   7.980  0.00  0.00    +0.000 A 
ATOM      4  C   UNL     1      45.288   1.775   8.938  0.00  0.00    +0.000 A 
ATOM      5  C   UNL     1      44.433   2.614   9.658  0.00  0.00    +0.000 A 
ATOM      6  C   UNL     1      44.448   3.972   9.377  0.00  0.00    +0.000 A 
ATOM      7  N   UNL     1      45.273   4.532   8.468  0.00  0.00    +0.000 NA
ATOM      8  C   UNL     1      46.102   3.700   7.793  0.00  0.00    +0.000 A 
BRANCH   3   9
ATOM      9  C   UNL     1      47.089   1.546   7.152  0.00  0.00    +0.000 C 
ATOM     10  O   UNL     1      47.034   0.334   7.036  0.00  0.00    +0.000 OA
BRANCH   9  12
ATOM     11  C   UNL     1      47.880   2.436   5.147  0.00  0.00    +0.000 C 
ATOM     12  O   UNL     1      48.005   2.360   6.568  0.00  0.00    +0.000 OA
ENDBRANCH   9  12
ENDBRANCH   3   9
ENDBRANCH   2   6
ENDBRANCH   1   2
BRANCH   1  13
ATOM     13  C   UNL     1      43.143   5.057  12.466  0.00  0.00    +0.000 C 
BRANCH  13  14
ATOM     14  C   UNL     1      44.570   5.365  12.852  0.00  0.00    +0.000 A 
ATOM     15  C   UNL     1      45.453   4.336  13.204  0.00  0.00    +0.000 A 
ATOM     16  C   UNL     1      46.788   4.621  13.494  0.00  0.00    +0.000 A 
ATOM     17  C   UNL     1      47.257   5.934  13.427  0.00  0.00    +0.000 A 
ATOM     18  C   UNL     1      46.395   6.978  13.068  0.00  0.00    +0.000 A 
ATOM     19  C   UNL     1      45.050   6.680  12.792  0.00  0.00    +0.000 A 
BRANCH  18  20
ATOM     20  C   UNL     1      46.892   8.400  12.990  0.00  0.00    +0.000 C 
BRANCH  20  21
ATOM     21  N   UNL     1      47.112   8.966  14.317  0.00  0.00    +0.000 NA
ATOM     22  H   UNL     1      48.006   9.455  14.318  0.00  0.00    +0.000 HD
ATOM     23  H   UNL     1      47.192   8.212  14.994  0.00  0.00    +0.000 HD
ENDBRANCH  20  21
ENDBRANCH  18  20
ENDBRANCH  13  14
ENDBRANCH   1  13
TORSDOF 8
ENDMDL
MODEL 4
REMARK VINA RESULT:    -6.778      3.045      7.243
REMARK INTER + INTRA:         -10.265
REMARK INTER:                  -9.778
REMARK INTRA:                  -0.488
REMARK UNBOUND:                -0.515
REMARK  Name = 
REMARK  9 active torsions:
REMARK  status: ('A' for Active; 'I' for Inactive)
REMARK    1  A    between atoms: C_1  and  O_2
REMARK    2  A    between atoms: O_2  and  C_3
REMARK    3  A    between atoms: C_3  and  C_5
REMARK    4  A    between atoms: C_8  and  O_9
REMARK    5  A    between atoms: O_9  and  C_10
REMARK    6  A    between atoms: C_10  and  C_11
REMARK    7  A    between atoms: C_11  and  C_12
REMARK    8  A    between atoms: C_16  and  C_17
REMARK    9  A    between atoms: C_17  and  N_18
REMARK                            x       y       z     vdW  Elec       q    Type
REMARK                         _______ _______ _______ _____ _____    ______ ____
ROOT
ATOM      1  C   UNL     1      44.372   4.431  10.558  0.00  0.00    +0.000 C 
ENDROOT
BRANCH   1   2
ATOM      2  O   UNL     1      45.125   5.554  11.040  0.00  0.00    +0.000 OA
BRANCH   2   6
ATOM      3  C   UNL     1      46.993   4.752  14.633  0.00  0.00    +0.000 A 
ATOM      4  C   UNL     1      47.395   5.855  13.872  0.00  0.00    +0.000 A 
ATOM      5  C   UNL     1      46.764   6.114  12.652  0.00  0.00    +0.000 A 
ATOM      6  C   UNL     1      45.736   5.275  12.248  0.00  0.00    +0.000 A 
ATOM      7  N   UNL     1      45.337   4.197  12.956  0.00  0.00    +0.000 NA
ATOM      8  C   UNL     1      45.974   3.959  14.127  0.00  0.00    +0.000 A 
BRANCH   3   9
ATOM      9  C   UNL     1      47.578   4.376  15.937  0.00  0.00    +0.000 C 
ATOM     10  O   UNL     1      47.005   3.667  16.748  0.00  0.00    +0.000 OA
BRANCH   9  12
ATOM     11  C   UNL     1      48.980   5.593  17.348  0.00  0.00    +0.000 C 
ATOM     12  O   UNL     1      48.806   4.931  16.094  0.00  0.00    +0.000 OA
ENDBRANCH   9  12
ENDBRANCH   3   9
ENDBRANCH   2   6
ENDBRANCH   1   2
BRANCH   1  13
ATOM     13  C   UNL     1      44.331   4.455   9.030  0.00  0.00    +0.000 C 
BRANCH  13  14
ATOM     14  C   UNL     1      45.187   3.357   8.448  0.00  0.00    +0.000 A 
ATOM     15  C   UNL     1      45.187   2.075   9.012  0.00  0.00    +0.000 A 
ATOM     16  C   UNL     1      45.929   1.047   8.429  0.00  0.00    +0.000 A 
ATOM     17  C   UNL     1      46.670   1.286   7.270  0.00  0.00    +0.000 A 
ATOM     18  C   UNL     1      46.678   2.557   6.682  0.00  0.00    +0.000 A 
ATOM     19  C   UNL     1      45.939   3.587   7.288  0.00  0.00    +0.000 A 
BRANCH  18  20
ATOM     20  C   UNL     1      47.474   2.825   5.429  0.00  0.00    +0.000 C 
BRANCH  20  21
ATOM     21  N   UNL     1      48.524   1.831   5.236  0.00  0.00    +0.000 NA
ATOM     22  H   UNL     1      48.136   1.044   4.718  0.00  0.00    +0.000 HD
ATOM     23  H   UNL     1      48.813   1.468   6.141  0.00  0.00    +0.000 HD
ENDBRANCH  20  21
ENDBRANCH  18  20
ENDBRANCH  13  14
ENDBRANCH   1  13
TORSDOF 8
ENDMDL
MODEL 5
REMARK VINA RESULT:    -6.670      1.740      2.151
REMARK INTER + INTRA:         -10.109
REMARK INTER:                  -9.836
REMARK INTRA:                  -0.273
REMARK UNBOUND:                -0.515
REMARK  Name = 
REMARK  9 active torsions:
REMARK  status: ('A' for Active; 'I' for Inactive)
REMARK    1  A    between atoms: C_1  and  O_2
REMARK    2  A    between atoms: O_2  and  C_3
REMARK    3  A    between atoms: C_3  and  C_5
REMARK    4  A    between atoms: C_8  and  O_9
REMARK    5  A    between atoms: O_9  and  C_10
REMARK    6  A    between atoms: C_10  and  C_11
REMARK    7  A    between atoms: C_11  and  C_12
REMARK    8  A    between atoms: C_16  and  C_17
REMARK    9  A    between atoms: C_17  and  N_18
REMARK                            x       y       z     vdW  Elec       q    Type
REMARK                         _______ _______ _______ _____ _____    ______ ____
ROOT
ATOM      1  C   UNL     1      44.294   5.092  11.249  0.00  0.00    +0.000 C 
ENDROOT
BRANCH   1   2
ATOM      2  O   UNL     1      43.721   4.652  10.008  0.00  0.00    +0.000 OA
BRANCH   2   6
ATOM      3  C   UNL     1      46.268   2.140   7.949  0.00  0.00    +0.000 A 
ATOM      4  C   UNL     1      46.380   3.525   7.789  0.00  0.00    +0.000 A 
ATOM      5  C   UNL     1      45.508   4.368   8.483  0.00  0.00    +0.000 A 
ATOM      6  C   UNL     1      44.570   3.798   9.331  0.00  0.00    +0.000 A 
ATOM      7  N   UNL     1      44.432   2.465   9.493  0.00  0.00    +0.000 NA
ATOM      8  C   UNL     1      45.279   1.668   8.800  0.00  0.00    +0.000 A 
BRANCH   3   9
ATOM      9  C   UNL     1      47.131   1.146   7.276  0.00  0.00    +0.000 C 
ATOM     10  O   UNL     1      46.914  -0.054   7.300  0.00  0.00    +0.000 OA
BRANCH   9  12
ATOM     11  C   UNL     1      47.867   2.217   5.340  0.00  0.00    +0.000 C 
ATOM     12  O   UNL     1      48.174   1.753   6.656  0.00  0.00    +0.000 OA
ENDBRANCH   9  12
ENDBRANCH   3   9
ENDBRANCH   2   6
ENDBRANCH   1   2
BRANCH   1  13
ATOM     13  C   UNL     1      44.003   6.579  11.451  0.00  0.00    +0.000 C 
BRANCH  13  14
ATOM     14  C   UNL     1      45.271   7.345  11.744  0.00  0.00    +0.000 A 
ATOM     15  C   UNL     1      45.246   8.736  11.902  0.00  0.00    +0.000 A 
ATOM     16  C   UNL     1      46.409   9.429  12.238  0.00  0.00    +0.000 A 
ATOM     17  C   UNL     1      47.607   8.738  12.430  0.00  0.00    +0.000 A 
ATOM     18  C   UNL     1      47.655   7.347  12.286  0.00  0.00    +0.000 A 
ATOM     19  C   UNL     1      46.480   6.662  11.933  0.00  0.00    +0.000 A 
BRANCH  18  20
ATOM     20  C   UNL     1      48.944   6.591  12.493  0.00  0.00    +0.000 C 
BRANCH  20  21
ATOM     21  N   UNL     1      49.715   7.136  13.605  0.00  0.00    +0.000 NA
ATOM     22  H   UNL     1      49.622   6.509  14.403  0.00  0.00    +0.000 HD
ATOM     23  H   UNL     1      49.312   8.027  13.887  0.00  0.00    +0.000 HD
ENDBRANCH  20  21
ENDBRANCH  18  20
ENDBRANCH  13  14
ENDBRANCH   1  13
TORSDOF 8
ENDMDL
MODEL 6
REMARK VINA RESULT:    -6.156      3.646      6.180
REMARK INTER + INTRA:          -9.370
REMARK INTER:                  -8.912
REMARK INTRA:                  -0.458
REMARK UNBOUND:                -0.515
REMARK  Name = 
REMARK  9 active torsions:
REMARK  status: ('A' for Active; 'I' for Inactive)
REMARK    1  A    between atoms: C_1  and  O_2
REMARK    2  A    between atoms: O_2  and  C_3
REMARK    3  A    between atoms: C_3  and  C_5
REMARK    4  A    between atoms: C_8  and  O_9
REMARK    5  A    between atoms: O_9  and  C_10
REMARK    6  A    between atoms: C_10  and  C_11
REMARK    7  A    between atoms: C_11  and  C_12
REMARK    8  A    between atoms: C_16  and  C_17
REMARK    9  A    between atoms: C_17  and  N_18
REMARK                            x       y       z     vdW  Elec       q    Type
REMARK                         _______ _______ _______ _____ _____    ______ ____
ROOT
ATOM      1  C   UNL     1      47.472   3.451  15.850  0.00  0.00    +0.000 C 
ENDROOT
BRANCH   1   2
ATOM      2  O   UNL     1      47.668   4.689  15.150  0.00  0.00    +0.000 OA
BRANCH   2   6
ATOM      3  C   UNL     1      45.446   4.893  11.678  0.00  0.00    +0.000 A 
ATOM      4  C   UNL     1      46.253   5.973  12.050  0.00  0.00    +0.000 A 
ATOM      5  C   UNL     1      46.995   5.900  13.232  0.00  0.00    +0.000 A 
ATOM      6  C   UNL     1      46.923   4.739  13.988  0.00  0.00    +0.000 A 
ATOM      7  N   UNL     1      46.142   3.688  13.659  0.00  0.00    +0.000 NA
ATOM      8  C   UNL     1      45.422   3.788  12.517  0.00  0.00    +0.000 A 
BRANCH   3   9
ATOM      9  C   UNL     1      44.619   4.847  10.453  0.00  0.00    +0.000 C 
ATOM     10  O   UNL     1      43.408   4.707  10.468  0.00  0.00    +0.000 OA
BRANCH   9  12
ATOM     11  C   UNL     1      45.230   3.899   8.412  0.00  0.00    +0.000 C 
ATOM     12  O   UNL     1      45.392   4.969   9.344  0.00  0.00    +0.000 OA
ENDBRANCH   9  12
ENDBRANCH   3   9
ENDBRANCH   2   6
ENDBRANCH   1   2
BRANCH   1  13
ATOM     13  C   UNL     1      47.874   3.619  17.316  0.00  0.00    +0.000 C 
BRANCH  13  14
ATOM     14  C   UNL     1      49.376   3.658  17.465  0.00  0.00    +0.000 A 
ATOM     15  C   UNL     1      50.033   4.856  17.777  0.00  0.00    +0.000 A 
ATOM     16  C   UNL     1      51.413   4.871  17.979  0.00  0.00    +0.000 A 
ATOM     17  C   UNL     1      52.151   3.690  17.880  0.00  0.00    +0.000 A 
ATOM     18  C   UNL     1      51.516   2.479  17.578  0.00  0.00    +0.000 A 
ATOM     19  C   UNL     1      50.127   2.480  17.363  0.00  0.00    +0.000 A 
BRANCH  18  20
ATOM     20  C   UNL     1      52.303   1.198  17.471  0.00  0.00    +0.000 C 
BRANCH  20  21
ATOM     21  N   UNL     1      51.661   0.110  18.202  0.00  0.00    +0.000 NA
ATOM     22  H   UNL     1      50.951  -0.309  17.603  0.00  0.00    +0.000 HD
ATOM     23  H   UNL     1      51.173   0.491  19.009  0.00  0.00    +0.000 HD
ENDBRANCH  20  21
ENDBRANCH  18  20
ENDBRANCH  13  14
ENDBRANCH   1  13
TORSDOF 8
ENDMDL
MODEL 7
REMARK VINA RESULT:    -6.087      3.368      7.205
REMARK INTER + INTRA:          -9.270
REMARK INTER:                  -8.874
REMARK INTRA:                  -0.396
REMARK UNBOUND:                -0.515
REMARK  Name = 
REMARK  9 active torsions:
REMARK  status: ('A' for Active; 'I' for Inactive)
REMARK    1  A    between atoms: C_1  and  O_2
REMARK    2  A    between atoms: O_2  and  C_3
REMARK    3  A    between atoms: C_3  and  C_5
REMARK    4  A    between atoms: C_8  and  O_9
REMARK    5  A    between atoms: O_9  and  C_10
REMARK    6  A    between atoms: C_10  and  C_11
REMARK    7  A    between atoms: C_11  and  C_12
REMARK    8  A    between atoms: C_16  and  C_17
REMARK    9  A    between atoms: C_17  and  N_18
REMARK                            x       y       z     vdW  Elec       q    Type
REMARK                         _______ _______ _______ _____ _____    ______ ____
ROOT
ATOM      1  C   UNL     1      47.046   6.492  11.484  0.00  0.00    +0.000 C 
ENDROOT
BRANCH   1   2
ATOM      2  O   UNL     1      47.131   7.169  12.748  0.00  0.00    +0.000 OA
BRANCH   2   6
ATOM      3  C   UNL     1      47.571   4.526  15.887  0.00  0.00    +0.000 A 
ATOM      4  C   UNL     1      48.300   5.720  15.878  0.00  0.00    +0.000 A 
ATOM      5  C   UNL     1      48.152   6.605  14.806  0.00  0.00    +0.000 A 
ATOM      6  C   UNL     1      47.262   6.277  13.795  0.00  0.00    +0.000 A 
ATOM      7  N   UNL     1      46.557   5.126  13.772  0.00  0.00    +0.000 NA
ATOM      8  C   UNL     1      46.728   4.277  14.814  0.00  0.00    +0.000 A 
BRANCH   3   9
ATOM      9  C   UNL     1      47.637   3.512  16.962  0.00  0.00    +0.000 C 
ATOM     10  O   UNL     1      46.650   2.981  17.441  0.00  0.00    +0.000 OA
BRANCH   9  12
ATOM     11  C   UNL     1      49.501   2.137  16.694  0.00  0.00    +0.000 C 
ATOM     12  O   UNL     1      48.923   3.280  17.328  0.00  0.00    +0.000 OA
ENDBRANCH   9  12
ENDBRANCH   3   9
ENDBRANCH   2   6
ENDBRANCH   1   2
BRANCH   1  13
ATOM     13  C   UNL     1      45.594   6.472  11.007  0.00  0.00    +0.000 C 
BRANCH  13  14
ATOM     14  C   UNL     1      45.247   5.141  10.385  0.00  0.00    +0.000 A 
ATOM     15  C   UNL     1      44.423   4.230  11.058  0.00  0.00    +0.000 A 
ATOM     16  C   UNL     1      44.053   3.031  10.449  0.00  0.00    +0.000 A 
ATOM     17  C   UNL     1      44.492   2.733   9.157  0.00  0.00    +0.000 A 
ATOM     18  C   UNL     1      45.308   3.633   8.461  0.00  0.00    +0.000 A 
ATOM     19  C   UNL     1      45.687   4.830   9.091  0.00  0.00    +0.000 A 
BRANCH  18  20
ATOM     20  C   UNL     1      45.787   3.322   7.065  0.00  0.00    +0.000 C 
BRANCH  20  21
ATOM     21  N   UNL     1      46.965   4.109   6.713  0.00  0.00    +0.000 NA
ATOM     22  H   UNL     1      47.586   4.142   7.520  0.00  0.00    +0.000 HD
ATOM     23  H   UNL     1      46.683   5.068   6.524  0.00  0.00    +0.000 HD
ENDBRANCH  20  21
ENDBRANCH  18  20
ENDBRANCH  13  14
ENDBRANCH   1  13
TORSDOF 8
ENDMDL
MODEL 8
REMARK VINA RESULT:    -5.971      5.328      8.367
REMARK INTER + INTRA:          -9.105
REMARK INTER:                  -8.667
REMARK INTRA:                  -0.438
REMARK UNBOUND:                -0.515
REMARK  Name = 
REMARK  9 active torsions:
REMARK  status: ('A' for Active; 'I' for Inactive)
REMARK    1  A    between atoms: C_1  and  O_2
REMARK    2  A    between atoms: O_2  and  C_3
REMARK    3  A    between atoms: C_3  and  C_5
REMARK    4  A    between atoms: C_8  and  O_9
REMARK    5  A    between atoms: O_9  and  C_10
REMARK    6  A    between atoms: C_10  and  C_11
REMARK    7  A    between atoms: C_11  and  C_12
REMARK    8  A    between atoms: C_16  and  C_17
REMARK    9  A    between atoms: C_17  and  N_18
REMARK                            x       y       z     vdW  Elec       q    Type
REMARK                         _______ _______ _______ _____ _____    ______ ____
ROOT
ATOM      1  C   UNL     1      47.146   4.345  15.426  0.00  0.00    +0.000 C 
ENDROOT
BRANCH   1   2
ATOM      2  O   UNL     1      47.275   3.200  16.283  0.00  0.00    +0.000 OA
BRANCH   2   6
ATOM      3  C   UNL     1      51.166   2.760  17.587  0.00  0.00    +0.000 A 
ATOM      4  C   UNL     1      50.458   3.925  17.899  0.00  0.00    +0.000 A 
ATOM      5  C   UNL     1      49.143   4.070  17.445  0.00  0.00    +0.000 A 
ATOM      6  C   UNL     1      48.577   3.035  16.717  0.00  0.00    +0.000 A 
ATOM      7  N   UNL     1      49.242   1.906  16.392  0.00  0.00    +0.000 NA
ATOM      8  C   UNL     1      50.519   1.795  16.830  0.00  0.00    +0.000 A 
BRANCH   3   9
ATOM      9  C   UNL     1      52.556   2.486  18.011  0.00  0.00    +0.000 C 
ATOM     10  O   UNL     1      53.416   3.348  18.082  0.00  0.00    +0.000 OA
BRANCH   9  12
ATOM     11  C   UNL     1      53.895   0.604  17.695  0.00  0.00    +0.000 C 
ATOM     12  O   UNL     1      52.726   1.169  18.289  0.00  0.00    +0.000 OA
ENDBRANCH   9  12
ENDBRANCH   3   9
ENDBRANCH   2   6
ENDBRANCH   1   2
BRANCH   1  13
ATOM     13  C   UNL     1      47.085   3.891  13.967  0.00  0.00    +0.000 C 
BRANCH  13  14
ATOM     14  C   UNL     1      46.324   4.885  13.122  0.00  0.00    +0.000 A 
ATOM     15  C   UNL     1      46.963   6.017  12.601  0.00  0.00    +0.000 A 
ATOM     16  C   UNL     1      46.271   6.896  11.767  0.00  0.00    +0.000 A 
ATOM     17  C   UNL     1      44.937   6.647  11.436  0.00  0.00    +0.000 A 
ATOM     18  C   UNL     1      44.281   5.516  11.937  0.00  0.00    +0.000 A 
ATOM     19  C   UNL     1      44.984   4.647  12.788  0.00  0.00    +0.000 A 
BRANCH  18  20
ATOM     20  C   UNL     1      42.841   5.237  11.584  0.00  0.00    +0.000 C 
BRANCH  20  21
ATOM     21  N   UNL     1      42.015   6.433  11.709  0.00  0.00    +0.000 NA
ATOM     22  H   UNL     1      42.535   7.227  11.338  0.00  0.00    +0.000 HD
ATOM     23  H   UNL     1      41.853   6.627  12.694  0.00  0.00    +0.000 HD
ENDBRANCH  20  21
ENDBRANCH  18  20
ENDBRANCH  13  14
ENDBRANCH   1  13
TORSDOF 8
ENDMDL
MODEL 9
REMARK VINA RESULT:    -5.919      2.788      5.285
REMARK INTER + INTRA:          -9.029
REMARK INTER:                  -8.514
REMARK INTRA:                  -0.515
REMARK UNBOUND:                -0.515
REMARK  Name = 
REMARK  9 active torsions:
REMARK  status: ('A' for Active; 'I' for Inactive)
REMARK    1  A    between atoms: C_1  and  O_2
REMARK    2  A    between atoms: O_2  and  C_3
REMARK    3  A    between atoms: C_3  and  C_5
REMARK    4  A    between atoms: C_8  and  O_9
REMARK    5  A    between atoms: O_9  and  C_10
REMARK    6  A    between atoms: C_10  and  C_11
REMARK    7  A    between atoms: C_11  and  C_12
REMARK    8  A    between atoms: C_16  and  C_17
REMARK    9  A    between atoms: C_17  and  N_18
REMARK                            x       y       z     vdW  Elec       q    Type
REMARK                         _______ _______ _______ _____ _____    ______ ____
ROOT
ATOM      1  C   UNL     1      48.348   6.652  13.979  0.00  0.00    +0.000 C 
ENDROOT
BRANCH   1   2
ATOM      2  O   UNL     1      47.141   7.247  13.479  0.00  0.00    +0.000 OA
BRANCH   2   6
ATOM      3  C   UNL     1      44.836   4.543  11.378  0.00  0.00    +0.000 A 
ATOM      4  C   UNL     1      45.491   5.574  10.696  0.00  0.00    +0.000 A 
ATOM      5  C   UNL     1      46.263   6.491  11.416  0.00  0.00    +0.000 A 
ATOM      6  C   UNL     1      46.371   6.330  12.789  0.00  0.00    +0.000 A 
ATOM      7  N   UNL     1      45.739   5.353  13.473  0.00  0.00    +0.000 NA
ATOM      8  C   UNL     1      44.986   4.486  12.755  0.00  0.00    +0.000 A 
BRANCH   3   9
ATOM      9  C   UNL     1      43.997   3.512  10.731  0.00  0.00    +0.000 C 
ATOM     10  O   UNL     1      43.104   2.917  11.310  0.00  0.00    +0.000 OA
BRANCH   9  12
ATOM     11  C   UNL     1      44.767   1.988   9.143  0.00  0.00    +0.000 C 
ATOM     12  O   UNL     1      44.369   3.328   9.439  0.00  0.00    +0.000 OA
ENDBRANCH   9  12
ENDBRANCH   3   9
ENDBRANCH   2   6
ENDBRANCH   1   2
BRANCH   1  13
ATOM     13  C   UNL     1      48.605   7.133  15.408  0.00  0.00    +0.000 C 
BRANCH  13  14
ATOM     14  C   UNL     1      49.184   6.026  16.256  0.00  0.00    +0.000 A 
ATOM     15  C   UNL     1      50.531   6.048  16.639  0.00  0.00    +0.000 A 
ATOM     16  C   UNL     1      51.042   5.057  17.478  0.00  0.00    +0.000 A 
ATOM     17  C   UNL     1      50.211   4.041  17.952  0.00  0.00    +0.000 A 
ATOM     18  C   UNL     1      48.859   4.003  17.591  0.00  0.00    +0.000 A 
ATOM     19  C   UNL     1      48.359   4.999  16.734  0.00  0.00    +0.000 A 
BRANCH  18  20
ATOM     20  C   UNL     1      47.951   2.911  18.100  0.00  0.00    +0.000 C 
BRANCH  20  21
ATOM     21  N   UNL     1      46.600   3.043  17.566  0.00  0.00    +0.000 NA
ATOM     22  H   UNL     1      46.317   4.020  17.637  0.00  0.00    +0.000 HD
ATOM     23  H   UNL     1      45.956   2.511  18.147  0.00  0.00    +0.000 HD
ENDBRANCH  20  21
ENDBRANCH  18  20
ENDBRANCH  13  14
ENDBRANCH   1  13
TORSDOF 8
ENDMDL
