MODEL 1
REMARK VINA RESULT:    -7.742      0.000      0.000
REMARK INTER + INTRA:         -11.353
REMARK INTER:                 -10.457
REMARK INTRA:                  -0.896
REMARK UNBOUND:                -0.896
REMARK  Name = 
REMARK  8 active torsions:
REMARK  status: ('A' for Active; 'I' for Inactive)
REMARK    1  A    between atoms: C_1  and  C_2
REMARK    2  A    between atoms: C_2  and  N_3
REMARK    3  A    between atoms: C_2  and  C_16
REMARK    4  A    between atoms: C_4  and  C_6
REMARK    5  A    between atoms: C_19  and  C_20
REMARK    6  A    between atoms: C_20  and  N_21
REMARK    7  A    between atoms: C_22  and  C_24
REMARK    8  A    between atoms: N_28  and  C_29
REMARK                            x       y       z     vdW  Elec       q    Type
REMARK                         _______ _______ _______ _____ _____    ______ ____
ROOT
ATOM      1  C   UNL     1      47.282   8.690  13.354  0.00  0.00    +0.000 C 
ATOM      2  C   UNL     1      47.772   7.290  13.742  0.00  0.00    +0.000 C 
ENDROOT
BRANCH   2   3
ATOM      3  C   UNL     1      46.830   6.214  13.193  0.00  0.00    +0.000 A 
ATOM      4  C   UNL     1      46.968   4.877  13.580  0.00  0.00    +0.000 A 
ATOM      5  C   UNL     1      46.139   3.906  13.018  0.00  0.00    +0.000 A 
ATOM      6  C   UNL     1      45.171   4.278  12.087  0.00  0.00    +0.000 A 
ATOM      7  C   UNL     1      45.096   5.627  11.762  0.00  0.00    +0.000 A 
ATOM      8  N   UNL     1      45.898   6.591  12.285  0.00  0.00    +0.000 NA
BRANCH   6   9
ATOM      9  C   UNL     1      44.298   3.261  11.407  0.00  0.00    +0.000 C 
BRANCH   9  10
ATOM     10  N   UNL     1      45.042   2.534  10.403  0.00  0.00    +0.000 N 
ATOM     11  C   UNL     1      45.097   2.948   9.089  0.00  0.00    +0.000 C 
ATOM     12  O   UNL     1      44.510   3.950   8.701  0.00  0.00    +0.000 OA
ATOM     13  H   UNL     1      45.654   1.797  10.715  0.00  0.00    +0.000 HD
BRANCH  11  14
ATOM     14  C   UNL     1      45.898   2.106   8.225  0.00  0.00    +0.000 A 
ATOM     15  C   UNL     1      46.068   0.731   8.209  0.00  0.00    +0.000 A 
ATOM     16  N   UNL     1      46.896   0.324   7.197  0.00  0.00    +0.000 NA
ATOM     17  C   UNL     1      47.244   1.427   6.582  0.00  0.00    +0.000 A 
ATOM     18  N   UNL     1      46.682   2.528   7.166  0.00  0.00    +0.000 N 
ATOM     19  C   UNL     1      46.909   3.886   6.733  0.00  0.00    +0.000 C 
ENDBRANCH  11  14
ENDBRANCH   9  10
ENDBRANCH   6   9
ENDBRANCH   2   3
BRANCH   2  20
ATOM     20  N   UNL     1      47.912   7.149  15.188  0.00  0.00    +0.000 N 
ATOM     21  C   UNL     1      49.101   6.912  15.822  0.00  0.00    +0.000 C 
ATOM     22  O   UNL     1      50.148   6.710  15.215  0.00  0.00    +0.000 OA
ATOM     23  H   UNL     1      47.079   7.310  15.741  0.00  0.00    +0.000 HD
BRANCH  21  24
ATOM     24  C   UNL     1      49.055   6.886  17.289  0.00  0.00    +0.000 A 
ATOM     25  C   UNL     1      49.110   8.075  18.004  0.00  0.00    +0.000 A 
ATOM     26  S   UNL     1      49.061   7.860  19.695  0.00  0.00    +0.000 S 
ATOM     27  C   UNL     1      48.925   6.172  19.532  0.00  0.00    +0.000 A 
ATOM     28  N   UNL     1      48.830   5.369  20.626  0.00  0.00    +0.000 NA
ATOM     29  C   UNL     1      48.702   4.113  20.360  0.00  0.00    +0.000 A 
ATOM     30  N   UNL     1      48.656   3.585  19.098  0.00  0.00    +0.000 N 
ATOM     31  C   UNL     1      48.769   4.354  17.961  0.00  0.00    +0.000 A 
ATOM     32  O   UNL     1      48.762   3.837  16.848  0.00  0.00    +0.000 OA
ATOM     33  C   UNL     1      48.918   5.776  18.205  0.00  0.00    +0.000 A 
ATOM     34  H   UNL     1      48.560   2.590  18.955  0.00  0.00    +0.000 HD
ENDBRANCH  21  24
ENDBRANCH   2  20
TORSDOF 6
ENDMDL
MODEL 2
REMARK VINA RESULT:    -7.547      3.424      4.834
REMARK INTER + INTRA:         -11.090
REMARK INTER:                  -9.942
REMARK INTRA:                  -1.147
REMARK UNBOUND:                -0.896
REMARK  Name = 
REMARK  8 active torsions:
REMARK  status: ('A' for Active; 'I' for Inactive)
REMARK    1  A    between atoms: C_1  and  C_2
REMARK    2  A    between atoms: C_2  and  N_3
REMARK    3  A    between atoms: C_2  and  C_16
REMARK    4  A    between atoms: C_4  and  C_6
REMARK    5  A    between atoms: C_19  and  C_20
REMARK    6  A    between atoms: C_20  and  N_21
REMARK    7  A    between atoms: C_22  and  C_24
REMARK    8  A    between atoms: N_28  and  C_29
REMARK                            x       y       z     vdW  Elec       q    Type
REMARK                         _______ _______ _______ _____ _____    ______ ____
ROOT
ATOM      1  C   UNL     1      47.717   2.893  17.749  0.00  0.00    +0.000 C 
ATOM      2  C   UNL     1      48.540   4.159  17.482  0.00  0.00    +0.000 C 
ENDROOT
BRANCH   2   3
ATOM      3  C   UNL     1      48.120   4.810  16.160  0.00  0.00    +0.000 A 
ATOM      4  C   UNL     1      48.617   6.064  15.791  0.00  0.00    +0.000 A 
ATOM      5  C   UNL     1      48.172   6.664  14.613  0.00  0.00    +0.000 A 
ATOM      6  C   UNL     1      47.245   6.004  13.808  0.00  0.00    +0.000 A 
ATOM      7  C   UNL     1      46.807   4.760  14.244  0.00  0.00    +0.000 A 
ATOM      8  N   UNL     1      47.215   4.157  15.391  0.00  0.00    +0.000 NA
BRANCH   6   9
ATOM      9  C   UNL     1      46.688   6.637  12.564  0.00  0.00    +0.000 C 
BRANCH   9  10
ATOM     10  N   UNL     1      46.338   5.630  11.587  0.00  0.00    +0.000 N 
ATOM     11  C   UNL     1      45.084   5.566  11.019  0.00  0.00    +0.000 C 
ATOM     12  O   UNL     1      44.196   6.354  11.319  0.00  0.00    +0.000 OA
ATOM     13  H   UNL     1      47.082   5.065  11.209  0.00  0.00    +0.000 HD
BRANCH  11  14
ATOM     14  C   UNL     1      44.914   4.501  10.052  0.00  0.00    +0.000 A 
ATOM     15  C   UNL     1      45.339   4.400   8.736  0.00  0.00    +0.000 A 
ATOM     16  N   UNL     1      44.996   3.200   8.174  0.00  0.00    +0.000 NA
ATOM     17  C   UNL     1      44.364   2.551   9.121  0.00  0.00    +0.000 A 
ATOM     18  N   UNL     1      44.276   3.292  10.266  0.00  0.00    +0.000 N 
ATOM     19  C   UNL     1      43.606   2.859  11.468  0.00  0.00    +0.000 C 
ENDBRANCH  11  14
ENDBRANCH   9  10
ENDBRANCH   6   9
ENDBRANCH   2   3
BRANCH   2  20
ATOM     20  N   UNL     1      49.972   3.879  17.475  0.00  0.00    +0.000 N 
ATOM     21  C   UNL     1      50.812   4.162  18.518  0.00  0.00    +0.000 C 
ATOM     22  O   UNL     1      50.442   4.760  19.524  0.00  0.00    +0.000 OA
ATOM     23  H   UNL     1      50.332   3.383  16.670  0.00  0.00    +0.000 HD
BRANCH  21  24
ATOM     24  C   UNL     1      52.205   3.729  18.358  0.00  0.00    +0.000 A 
ATOM     25  C   UNL     1      53.240   4.589  18.702  0.00  0.00    +0.000 A 
ATOM     26  S   UNL     1      54.791   3.932  18.437  0.00  0.00    +0.000 S 
ATOM     27  C   UNL     1      54.136   2.462  17.888  0.00  0.00    +0.000 A 
ATOM     28  N   UNL     1      54.943   1.437  17.502  0.00  0.00    +0.000 NA
ATOM     29  C   UNL     1      54.318   0.369  17.137  0.00  0.00    +0.000 A 
ATOM     30  N   UNL     1      52.957   0.229  17.127  0.00  0.00    +0.000 N 
ATOM     31  C   UNL     1      52.098   1.243  17.489  0.00  0.00    +0.000 A 
ATOM     32  O   UNL     1      50.882   1.090  17.430  0.00  0.00    +0.000 OA
ATOM     33  C   UNL     1      52.752   2.469  17.906  0.00  0.00    +0.000 A 
ATOM     34  H   UNL     1      52.526  -0.632  16.825  0.00  0.00    +0.000 HD
ENDBRANCH  21  24
ENDBRANCH   2  20
TORSDOF 6
ENDMDL
MODEL 3
REMARK VINA RESULT:    -7.480      1.395      2.022
REMARK INTER + INTRA:         -11.000
REMARK INTER:                  -9.988
REMARK INTRA:                  -1.012
REMARK UNBOUND:                -0.896
REMARK  Name = 
REMARK  8 active torsions:
REMARK  status: ('A' for Active; 'I' for Inactive)
REMARK    1  A    between atoms: C_1  and  C_2
REMARK    2  A    between atoms: C_2  and  N_3
REMARK    3  A    between atoms: C_2  and  C_16
REMARK    4  A    between atoms: C_4  and  C_6
REMARK    5  A    between atoms: C_19  and  C_20
REMARK    6  A    between atoms: C_20  and  N_21
REMARK    7  A    between atoms: C_22  and  C_24
REMARK    8  A    between atoms: N_28  and  C_29
REMARK                            x       y       z     vdW  Elec       q    Type
REMARK                         _______ _______ _______ _____ _____    ______ ____
ROOT
ATOM      1  C   UNL     1      46.936   8.741  13.523  0.00  0.00    +0.000 C 
ATOM      2  C   UNL     1      47.550   7.340  13.639  0.00  0.00    +0.000 C 
ENDROOT
BRANCH   2   3
ATOM      3  C   UNL     1      46.620   6.287  13.029  0.00  0.00    +0.000 A 
ATOM      4  C   UNL     1      46.239   5.158  13.761  0.00  0.00    +0.000 A 
ATOM      5  C   UNL     1      45.442   4.183  13.163  0.00  0.00    +0.000 A 
ATOM      6  C   UNL     1      45.021   4.348  11.844  0.00  0.00    +0.000 A 
ATOM      7  C   UNL     1      45.437   5.500  11.189  0.00  0.00    +0.000 A 
ATOM      8  N   UNL     1      46.223   6.460  11.744  0.00  0.00    +0.000 NA
BRANCH   6   9
ATOM      9  C   UNL     1      44.215   3.295  11.136  0.00  0.00    +0.000 C 
BRANCH   9  10
ATOM     10  N   UNL     1      45.039   2.555  10.207  0.00  0.00    +0.000 N 
ATOM     11  C   UNL     1      45.076   2.854   8.861  0.00  0.00    +0.000 C 
ATOM     12  O   UNL     1      44.403   3.757   8.381  0.00  0.00    +0.000 OA
ATOM     13  H   UNL     1      45.714   1.910  10.588  0.00  0.00    +0.000 HD
BRANCH  11  14
ATOM     14  C   UNL     1      45.965   2.018   8.082  0.00  0.00    +0.000 A 
ATOM     15  C   UNL     1      46.129   0.642   8.067  0.00  0.00    +0.000 A 
ATOM     16  N   UNL     1      47.065   0.243   7.151  0.00  0.00    +0.000 NA
ATOM     17  C   UNL     1      47.485   1.352   6.594  0.00  0.00    +0.000 A 
ATOM     18  N   UNL     1      46.866   2.449   7.124  0.00  0.00    +0.000 N 
ATOM     19  C   UNL     1      47.147   3.810   6.739  0.00  0.00    +0.000 C 
ENDBRANCH  11  14
ENDBRANCH   9  10
ENDBRANCH   6   9
ENDBRANCH   2   3
BRANCH   2  20
ATOM     20  N   UNL     1      47.859   7.000  15.024  0.00  0.00    +0.000 N 
ATOM     21  C   UNL     1      49.131   6.890  15.519  0.00  0.00    +0.000 C 
ATOM     22  O   UNL     1      50.129   6.984  14.811  0.00  0.00    +0.000 OA
ATOM     23  H   UNL     1      47.073   6.914  15.655  0.00  0.00    +0.000 HD
BRANCH  21  24
ATOM     24  C   UNL     1      49.240   6.623  16.958  0.00  0.00    +0.000 A 
ATOM     25  C   UNL     1      49.879   5.473  17.402  0.00  0.00    +0.000 A 
ATOM     26  S   UNL     1      49.901   5.313  19.099  0.00  0.00    +0.000 S 
ATOM     27  C   UNL     1      49.089   6.794  19.304  0.00  0.00    +0.000 A 
ATOM     28  N   UNL     1      48.796   7.265  20.546  0.00  0.00    +0.000 NA
ATOM     29  C   UNL     1      48.207   8.412  20.560  0.00  0.00    +0.000 A 
ATOM     30  N   UNL     1      47.886   9.136  19.444  0.00  0.00    +0.000 N 
ATOM     31  C   UNL     1      48.144   8.694  18.166  0.00  0.00    +0.000 A 
ATOM     32  O   UNL     1      47.806   9.356  17.189  0.00  0.00    +0.000 OA
ATOM     33  C   UNL     1      48.805   7.404  18.094  0.00  0.00    +0.000 A 
ATOM     34  H   UNL     1      47.420  10.028  19.521  0.00  0.00    +0.000 HD
ENDBRANCH  21  24
ENDBRANCH   2  20
TORSDOF 6
ENDMDL
MODEL 4
REMARK VINA RESULT:    -7.310      3.195      9.101
REMARK INTER + INTRA:         -10.770
REMARK INTER:                  -9.747
REMARK INTRA:                  -1.023
REMARK UNBOUND:                -0.896
REMARK  Name = 
REMARK  8 active torsions:
REMARK  status: ('A' for Active; 'I' for Inactive)
REMARK    1  A    between atoms: C_1  and  C_2
REMARK    2  A    between atoms: C_2  and  N_3
REMARK    3  A    between atoms: C_2  and  C_16
REMARK    4  A    between atoms: C_4  and  C_6
REMARK    5  A    between atoms: C_19  and  C_20
REMARK    6  A    between atoms: C_20  and  N_21
REMARK    7  A    between atoms: C_22  and  C_24
REMARK    8  A    between atoms: N_28  and  C_29
REMARK                            x       y       z     vdW  Elec       q    Type
REMARK                         _______ _______ _______ _____ _____    ______ ____
ROOT
ATOM      1  C   UNL     1      48.962   7.797  11.367  0.00  0.00    +0.000 C 
ATOM      2  C   UNL     1      48.052   7.580  12.582  0.00  0.00    +0.000 C 
ENDROOT
BRANCH   2   3
ATOM      3  C   UNL     1      48.883   7.403  13.857  0.00  0.00    +0.000 A 
ATOM      4  C   UNL     1      50.039   8.158  14.070  0.00  0.00    +0.000 A 
ATOM      5  C   UNL     1      50.812   7.934  15.208  0.00  0.00    +0.000 A 
ATOM      6  C   UNL     1      50.419   6.967  16.132  0.00  0.00    +0.000 A 
ATOM      7  C   UNL     1      49.254   6.264  15.849  0.00  0.00    +0.000 A 
ATOM      8  N   UNL     1      48.488   6.455  14.743  0.00  0.00    +0.000 NA
BRANCH   6   9
ATOM      9  C   UNL     1      51.252   6.645  17.341  0.00  0.00    +0.000 C 
BRANCH   9  10
ATOM     10  N   UNL     1      51.687   5.267  17.312  0.00  0.00    +0.000 N 
ATOM     11  C   UNL     1      51.461   4.405  18.365  0.00  0.00    +0.000 C 
ATOM     12  O   UNL     1      50.887   4.766  19.385  0.00  0.00    +0.000 OA
ATOM     13  H   UNL     1      52.025   4.899  16.437  0.00  0.00    +0.000 HD
BRANCH  11  14
ATOM     14  C   UNL     1      51.954   3.059  18.159  0.00  0.00    +0.000 A 
ATOM     15  C   UNL     1      53.151   2.469  18.533  0.00  0.00    +0.000 A 
ATOM     16  N   UNL     1      53.213   1.150  18.171  0.00  0.00    +0.000 NA
ATOM     17  C   UNL     1      52.070   0.910  17.577  0.00  0.00    +0.000 A 
ATOM     18  N   UNL     1      51.281   2.025  17.532  0.00  0.00    +0.000 N 
ATOM     19  C   UNL     1      49.981   2.080  16.909  0.00  0.00    +0.000 C 
ENDBRANCH  11  14
ENDBRANCH   9  10
ENDBRANCH   6   9
ENDBRANCH   2   3
BRANCH   2  20
ATOM     20  N   UNL     1      47.165   6.437  12.394  0.00  0.00    +0.000 N 
ATOM     21  C   UNL     1      45.902   6.527  11.874  0.00  0.00    +0.000 C 
ATOM     22  O   UNL     1      45.372   7.599  11.600  0.00  0.00    +0.000 OA
ATOM     23  H   UNL     1      47.552   5.525  12.601  0.00  0.00    +0.000 HD
BRANCH  21  24
ATOM     24  C   UNL     1      45.193   5.255  11.682  0.00  0.00    +0.000 A 
ATOM     25  C   UNL     1      44.485   4.693  12.736  0.00  0.00    +0.000 A 
ATOM     26  S   UNL     1      43.737   3.212  12.344  0.00  0.00    +0.000 S 
ATOM     27  C   UNL     1      44.303   3.286  10.741  0.00  0.00    +0.000 A 
ATOM     28  N   UNL     1      44.004   2.305   9.848  0.00  0.00    +0.000 NA
ATOM     29  C   UNL     1      44.470   2.501   8.660  0.00  0.00    +0.000 A 
ATOM     30  N   UNL     1      45.205   3.591   8.282  0.00  0.00    +0.000 N 
ATOM     31  C   UNL     1      45.550   4.600   9.154  0.00  0.00    +0.000 A 
ATOM     32  O   UNL     1      46.243   5.543   8.785  0.00  0.00    +0.000 OA
ATOM     33  C   UNL     1      45.053   4.426  10.506  0.00  0.00    +0.000 A 
ATOM     34  H   UNL     1      45.546   3.684   7.337  0.00  0.00    +0.000 HD
ENDBRANCH  21  24
ENDBRANCH   2  20
TORSDOF 6
ENDMDL
MODEL 5
REMARK VINA RESULT:    -7.248      3.737      8.757
REMARK INTER + INTRA:         -10.687
REMARK INTER:                  -9.913
REMARK INTRA:                  -0.774
REMARK UNBOUND:                -0.896
REMARK  Name = 
REMARK  8 active torsions:
REMARK  status: ('A' for Active; 'I' for Inactive)
REMARK    1  A    between atoms: C_1  and  C_2
REMARK    2  A    between atoms: C_2  and  N_3
REMARK    3  A    between atoms: C_2  and  C_16
REMARK    4  A    between atoms: C_4  and  C_6
REMARK    5  A    between atoms: C_19  and  C_20
REMARK    6  A    between atoms: C_20  and  N_21
REMARK    7  A    between atoms: C_22  and  C_24
REMARK    8  A    between atoms: N_28  and  C_29
REMARK                            x       y       z     vdW  Elec       q    Type
REMARK                         _______ _______ _______ _____ _____    ______ ____
ROOT
ATOM      1  C   UNL     1      49.394   7.360  13.010  0.00  0.00    +0.000 C 
ATOM      2  C   UNL     1      48.087   6.900  13.667  0.00  0.00    +0.000 C 
ENDROOT
BRANCH   2   3
ATOM      3  C   UNL     1      48.369   6.163  14.980  0.00  0.00    +0.000 A 
ATOM      4  C   UNL     1      49.396   6.582  15.830  0.00  0.00    +0.000 A 
ATOM      5  C   UNL     1      49.674   5.857  16.988  0.00  0.00    +0.000 A 
ATOM      6  C   UNL     1      48.917   4.728  17.296  0.00  0.00    +0.000 A 
ATOM      7  C   UNL     1      47.911   4.383  16.402  0.00  0.00    +0.000 A 
ATOM      8  N   UNL     1      47.626   5.064  15.261  0.00  0.00    +0.000 NA
BRANCH   6   9
ATOM      9  C   UNL     1      49.219   3.878  18.499  0.00  0.00    +0.000 C 
BRANCH   9  10
ATOM     10  N   UNL     1      50.578   3.387  18.451  0.00  0.00    +0.000 N 
ATOM     11  C   UNL     1      50.972   2.405  17.567  0.00  0.00    +0.000 C 
ATOM     12  O   UNL     1      50.187   1.890  16.781  0.00  0.00    +0.000 OA
ATOM     13  H   UNL     1      51.278   3.890  18.974  0.00  0.00    +0.000 HD
BRANCH  11  14
ATOM     14  C   UNL     1      52.372   2.044  17.651  0.00  0.00    +0.000 A 
ATOM     15  C   UNL     1      52.984   0.801  17.668  0.00  0.00    +0.000 A 
ATOM     16  N   UNL     1      54.348   0.897  17.724  0.00  0.00    +0.000 NA
ATOM     17  C   UNL     1      54.595   2.183  17.741  0.00  0.00    +0.000 A 
ATOM     18  N   UNL     1      53.442   2.918  17.710  0.00  0.00    +0.000 N 
ATOM     19  C   UNL     1      53.392   4.359  17.755  0.00  0.00    +0.000 C 
ENDBRANCH  11  14
ENDBRANCH   9  10
ENDBRANCH   6   9
ENDBRANCH   2   3
BRANCH   2  20
ATOM     20  N   UNL     1      47.303   6.055  12.771  0.00  0.00    +0.000 N 
ATOM     21  C   UNL     1      46.392   6.535  11.869  0.00  0.00    +0.000 C 
ATOM     22  O   UNL     1      46.092   7.723  11.797  0.00  0.00    +0.000 OA
ATOM     23  H   UNL     1      47.511   5.065  12.786  0.00  0.00    +0.000 HD
BRANCH  21  24
ATOM     24  C   UNL     1      45.763   5.536  10.996  0.00  0.00    +0.000 A 
ATOM     25  C   UNL     1      45.923   5.623   9.619  0.00  0.00    +0.000 A 
ATOM     26  S   UNL     1      45.113   4.393   8.759  0.00  0.00    +0.000 S 
ATOM     27  C   UNL     1      44.551   3.680  10.197  0.00  0.00    +0.000 A 
ATOM     28  N   UNL     1      43.786   2.556  10.167  0.00  0.00    +0.000 NA
ATOM     29  C   UNL     1      43.453   2.102  11.328  0.00  0.00    +0.000 A 
ATOM     30  N   UNL     1      43.819   2.668  12.519  0.00  0.00    +0.000 N 
ATOM     31  C   UNL     1      44.576   3.815  12.601  0.00  0.00    +0.000 A 
ATOM     32  O   UNL     1      44.851   4.313  13.689  0.00  0.00    +0.000 OA
ATOM     33  C   UNL     1      44.974   4.369  11.321  0.00  0.00    +0.000 A 
ATOM     34  H   UNL     1      43.522   2.267  13.397  0.00  0.00    +0.000 HD
ENDBRANCH  21  24
ENDBRANCH   2  20
TORSDOF 6
ENDMDL
MODEL 6
REMARK VINA RESULT:    -7.160      3.707      8.824
REMARK INTER + INTRA:         -10.568
REMARK INTER:                  -9.526
REMARK INTRA:                  -1.042
REMARK UNBOUND:                -0.896
REMARK  Name = 
REMARK  8 active torsions:
REMARK  status: ('A' for Active; 'I' for Inactive)
REMARK    1  A    between atoms: C_1  and  C_2
REMARK    2  A    between atoms: C_2  and  N_3
REMARK    3  A    between atoms: C_2  and  C_16
REMARK    4  A    between atoms: C_4  and  C_6
REMARK    5  A    between atoms: C_19  and  C_20
REMARK    6  A    between atoms: C_20  and  N_21
REMARK    7  A    between atoms: C_22  and  C_24
REMARK    8  A    between atoms: N_28  and  C_29
REMARK                            x       y       z     vdW  Elec       q    Type
REMARK                         _______ _______ _______ _____ _____    ______ ____
ROOT
ATOM      1  C   UNL     1      49.430   8.427  11.380  0.00  0.00    +0.000 C 
ATOM      2  C   UNL     1      48.372   7.932  12.373  0.00  0.00    +0.000 C 
ENDROOT
BRANCH   2   3
ATOM      3  C   UNL     1      49.024   7.493  13.688  0.00  0.00    +0.000 A 
ATOM      4  C   UNL     1      48.300   6.767  14.638  0.00  0.00    +0.000 A 
ATOM      5  C   UNL     1      48.896   6.434  15.854  0.00  0.00    +0.000 A 
ATOM      6  C   UNL     1      50.213   6.816  16.106  0.00  0.00    +0.000 A 
ATOM      7  C   UNL     1      50.863   7.529  15.107  0.00  0.00    +0.000 A 
ATOM      8  N   UNL     1      50.303   7.876  13.919  0.00  0.00    +0.000 NA
BRANCH   6   9
ATOM      9  C   UNL     1      50.877   6.536  17.426  0.00  0.00    +0.000 C 
BRANCH   9  10
ATOM     10  N   UNL     1      51.495   5.229  17.423  0.00  0.00    +0.000 N 
ATOM     11  C   UNL     1      51.300   4.324  18.444  0.00  0.00    +0.000 C 
ATOM     12  O   UNL     1      50.599   4.583  19.414  0.00  0.00    +0.000 OA
ATOM     13  H   UNL     1      51.952   4.928  16.576  0.00  0.00    +0.000 HD
BRANCH  11  14
ATOM     14  C   UNL     1      51.986   3.060  18.270  0.00  0.00    +0.000 A 
ATOM     15  C   UNL     1      53.217   2.630  18.739  0.00  0.00    +0.000 A 
ATOM     16  N   UNL     1      53.487   1.339  18.372  0.00  0.00    +0.000 NA
ATOM     17  C   UNL     1      52.440   0.959  17.682  0.00  0.00    +0.000 A 
ATOM     18  N   UNL     1      51.513   1.958  17.580  0.00  0.00    +0.000 N 
ATOM     19  C   UNL     1      50.274   1.850  16.850  0.00  0.00    +0.000 C 
ENDBRANCH  11  14
ENDBRANCH   9  10
ENDBRANCH   6   9
ENDBRANCH   2   3
BRANCH   2  20
ATOM     20  N   UNL     1      47.578   6.842  11.814  0.00  0.00    +0.000 N 
ATOM     21  C   UNL     1      46.254   6.950  11.486  0.00  0.00    +0.000 C 
ATOM     22  O   UNL     1      45.593   7.958  11.716  0.00  0.00    +0.000 OA
ATOM     23  H   UNL     1      48.073   5.985  11.600  0.00  0.00    +0.000 HD
BRANCH  21  24
ATOM     24  C   UNL     1      45.648   5.770  10.857  0.00  0.00    +0.000 A 
ATOM     25  C   UNL     1      45.841   5.531   9.503  0.00  0.00    +0.000 A 
ATOM     26  S   UNL     1      45.055   4.129   8.936  0.00  0.00    +0.000 S 
ATOM     27  C   UNL     1      44.458   3.769  10.488  0.00  0.00    +0.000 A 
ATOM     28  N   UNL     1      43.695   2.664  10.705  0.00  0.00    +0.000 NA
ATOM     29  C   UNL     1      43.335   2.493  11.932  0.00  0.00    +0.000 A 
ATOM     30  N   UNL     1      43.671   3.325  12.965  0.00  0.00    +0.000 N 
ATOM     31  C   UNL     1      44.423   4.465  12.793  0.00  0.00    +0.000 A 
ATOM     32  O   UNL     1      44.671   5.206  13.739  0.00  0.00    +0.000 OA
ATOM     33  C   UNL     1      44.853   4.706  11.428  0.00  0.00    +0.000 A 
ATOM     34  H   UNL     1      43.352   3.139  13.905  0.00  0.00    +0.000 HD
ENDBRANCH  21  24
ENDBRANCH   2  20
TORSDOF 6
ENDMDL
MODEL 7
REMARK VINA RESULT:    -6.934      2.180      3.808
REMARK INTER + INTRA:         -10.262
REMARK INTER:                  -9.985
REMARK INTRA:                  -0.277
REMARK UNBOUND:                -0.896
REMARK  Name = 
REMARK  8 active torsions:
REMARK  status: ('A' for Active; 'I' for Inactive)
REMARK    1  A    between atoms: C_1  and  C_2
REMARK    2  A    between atoms: C_2  and  N_3
REMARK    3  A    between atoms: C_2  and  C_16
REMARK    4  A    between atoms: C_4  and  C_6
REMARK    5  A    between atoms: C_19  and  C_20
REMARK    6  A    between atoms: C_20  and  N_21
REMARK    7  A    between atoms: C_22  and  C_24
REMARK    8  A    between atoms: N_28  and  C_29
REMARK                            x       y       z     vdW  Elec       q    Type
REMARK                         _______ _______ _______ _____ _____    ______ ____
ROOT
ATOM      1  C   UNL     1      47.860   3.245  15.412  0.00  0.00    +0.000 C 
ATOM      2  C   UNL     1      46.977   4.486  15.229  0.00  0.00    +0.000 C 
ENDROOT
BRANCH   2   3
ATOM      3  C   UNL     1      46.295   4.469  13.857  0.00  0.00    +0.000 A 
ATOM      4  C   UNL     1      45.968   5.661  13.205  0.00  0.00    +0.000 A 
ATOM      5  C   UNL     1      45.290   5.620  11.987  0.00  0.00    +0.000 A 
ATOM      6  C   UNL     1      44.956   4.390  11.423  0.00  0.00    +0.000 A 
ATOM      7  C   UNL     1      45.322   3.253  12.132  0.00  0.00    +0.000 A 
ATOM      8  N   UNL     1      45.972   3.264  13.325  0.00  0.00    +0.000 NA
BRANCH   6   9
ATOM      9  C   UNL     1      44.170   4.295  10.145  0.00  0.00    +0.000 C 
BRANCH   9  10
ATOM     10  N   UNL     1      45.039   3.996   9.029  0.00  0.00    +0.000 N 
ATOM     11  C   UNL     1      45.217   2.710   8.563  0.00  0.00    +0.000 C 
ATOM     12  O   UNL     1      44.654   1.752   9.078  0.00  0.00    +0.000 OA
ATOM     13  H   UNL     1      45.397   4.770   8.492  0.00  0.00    +0.000 HD
BRANCH  11  14
ATOM     14  C   UNL     1      46.113   2.597   7.431  0.00  0.00    +0.000 A 
ATOM     15  C   UNL     1      46.477   3.528   6.471  0.00  0.00    +0.000 A 
ATOM     16  N   UNL     1      47.386   3.024   5.581  0.00  0.00    +0.000 NA
ATOM     17  C   UNL     1      47.594   1.792   5.973  0.00  0.00    +0.000 A 
ATOM     18  N   UNL     1      46.846   1.480   7.074  0.00  0.00    +0.000 N 
ATOM     19  C   UNL     1      46.835   0.186   7.712  0.00  0.00    +0.000 C 
ENDBRANCH  11  14
ENDBRANCH   9  10
ENDBRANCH   6   9
ENDBRANCH   2   3
BRANCH   2  20
ATOM     20  N   UNL     1      47.739   5.719  15.398  0.00  0.00    +0.000 N 
ATOM     21  C   UNL     1      48.645   5.926  16.404  0.00  0.00    +0.000 C 
ATOM     22  O   UNL     1      48.830   5.117  17.308  0.00  0.00    +0.000 OA
ATOM     23  H   UNL     1      47.629   6.422  14.679  0.00  0.00    +0.000 HD
BRANCH  21  24
ATOM     24  C   UNL     1      49.375   7.199  16.360  0.00  0.00    +0.000 A 
ATOM     25  C   UNL     1      49.695   7.854  17.542  0.00  0.00    +0.000 A 
ATOM     26  S   UNL     1      50.528   9.323  17.305  0.00  0.00    +0.000 S 
ATOM     27  C   UNL     1      50.524   9.118  15.617  0.00  0.00    +0.000 A 
ATOM     28  N   UNL     1      51.100  10.040  14.799  0.00  0.00    +0.000 NA
ATOM     29  C   UNL     1      51.053   9.747  13.543  0.00  0.00    +0.000 A 
ATOM     30  N   UNL     1      50.486   8.613  13.029  0.00  0.00    +0.000 N 
ATOM     31  C   UNL     1      49.874   7.662  13.813  0.00  0.00    +0.000 A 
ATOM     32  O   UNL     1      49.342   6.676  13.309  0.00  0.00    +0.000 OA
ATOM     33  C   UNL     1      49.896   7.945  15.236  0.00  0.00    +0.000 A 
ATOM     34  H   UNL     1      50.477   8.443  12.034  0.00  0.00    +0.000 HD
ENDBRANCH  21  24
ENDBRANCH   2  20
TORSDOF 6
ENDMDL
MODEL 8
REMARK VINA RESULT:    -6.741      2.295      3.145
REMARK INTER + INTRA:         -10.001
REMARK INTER:                  -8.916
REMARK INTRA:                  -1.085
REMARK UNBOUND:                -0.896
REMARK  Name = 
REMARK  8 active torsions:
REMARK  status: ('A' for Active; 'I' for Inactive)
REMARK    1  A    between atoms: C_1  and  C_2
REMARK    2  A    between atoms: C_2  and  N_3
REMARK    3  A    between atoms: C_2  and  C_16
REMARK    4  A    between atoms: C_4  and  C_6
REMARK    5  A    between atoms: C_19  and  C_20
REMARK    6  A    between atoms: C_20  and  N_21
REMARK    7  A    between atoms: C_22  and  C_24
REMARK    8  A    between atoms: N_28  and  C_29
REMARK                            x       y       z     vdW  Elec       q    Type
REMARK                         _______ _______ _______ _____ _____    ______ ____
ROOT
ATOM      1  C   UNL     1      47.975   2.943  16.099  0.00  0.00    +0.000 C 
ATOM      2  C   UNL     1      47.396   4.361  16.156  0.00  0.00    +0.000 C 
ENDROOT
BRANCH   2   3
ATOM      3  C   UNL     1      46.955   4.824  14.764  0.00  0.00    +0.000 A 
ATOM      4  C   UNL     1      47.570   5.916  14.145  0.00  0.00    +0.000 A 
ATOM      5  C   UNL     1      47.110   6.358  12.905  0.00  0.00    +0.000 A 
ATOM      6  C   UNL     1      46.049   5.699  12.287  0.00  0.00    +0.000 A 
ATOM      7  C   UNL     1      45.497   4.620  12.966  0.00  0.00    +0.000 A 
ATOM      8  N   UNL     1      45.919   4.175  14.179  0.00  0.00    +0.000 NA
BRANCH   6   9
ATOM      9  C   UNL     1      45.476   6.176  10.982  0.00  0.00    +0.000 C 
BRANCH   9  10
ATOM     10  N   UNL     1      45.962   5.373   9.883  0.00  0.00    +0.000 N 
ATOM     11  C   UNL     1      45.160   4.458   9.234  0.00  0.00    +0.000 C 
ATOM     12  O   UNL     1      43.995   4.271   9.561  0.00  0.00    +0.000 OA
ATOM     13  H   UNL     1      46.862   5.605   9.493  0.00  0.00    +0.000 HD
BRANCH  11  14
ATOM     14  C   UNL     1      45.809   3.750   8.149  0.00  0.00    +0.000 A 
ATOM     15  C   UNL     1      46.553   4.223   7.081  0.00  0.00    +0.000 A 
ATOM     16  N   UNL     1      47.022   3.209   6.289  0.00  0.00    +0.000 NA
ATOM     17  C   UNL     1      46.580   2.111   6.850  0.00  0.00    +0.000 A 
ATOM     18  N   UNL     1      45.836   2.379   7.965  0.00  0.00    +0.000 N 
ATOM     19  C   UNL     1      45.187   1.376   8.773  0.00  0.00    +0.000 C 
ENDBRANCH  11  14
ENDBRANCH   9  10
ENDBRANCH   6   9
ENDBRANCH   2   3
BRANCH   2  20
ATOM     20  N   UNL     1      48.347   5.309  16.727  0.00  0.00    +0.000 N 
ATOM     21  C   UNL     1      48.367   5.673  18.046  0.00  0.00    +0.000 C 
ATOM     22  O   UNL     1      47.523   5.294  18.852  0.00  0.00    +0.000 OA
ATOM     23  H   UNL     1      49.071   5.653  16.107  0.00  0.00    +0.000 HD
BRANCH  21  24
ATOM     24  C   UNL     1      49.453   6.575  18.449  0.00  0.00    +0.000 A 
ATOM     25  C   UNL     1      49.165   7.724  19.173  0.00  0.00    +0.000 A 
ATOM     26  S   UNL     1      50.540   8.663  19.542  0.00  0.00    +0.000 S 
ATOM     27  C   UNL     1      51.574   7.550  18.778  0.00  0.00    +0.000 A 
ATOM     28  N   UNL     1      52.918   7.755  18.741  0.00  0.00    +0.000 NA
ATOM     29  C   UNL     1      53.588   6.819  18.158  0.00  0.00    +0.000 A 
ATOM     30  N   UNL     1      53.038   5.692  17.612  0.00  0.00    +0.000 N 
ATOM     31  C   UNL     1      51.682   5.449  17.607  0.00  0.00    +0.000 A 
ATOM     32  O   UNL     1      51.224   4.443  17.072  0.00  0.00    +0.000 OA
ATOM     33  C   UNL     1      50.881   6.474  18.248  0.00  0.00    +0.000 A 
ATOM     34  H   UNL     1      53.616   4.997  17.164  0.00  0.00    +0.000 HD
ENDBRANCH  21  24
ENDBRANCH   2  20
TORSDOF 6
ENDMDL
MODEL 9
REMARK VINA RESULT:    -6.530      2.040      3.138
REMARK INTER + INTRA:          -9.716
REMARK INTER:                  -8.647
REMARK INTRA:                  -1.070
REMARK UNBOUND:                -0.896
REMARK  Name = 
REMARK  8 active torsions:
REMARK  status: ('A' for Active; 'I' for Inactive)
REMARK    1  A    between atoms: C_1  and  C_2
REMARK    2  A    between atoms: C_2  and  N_3
REMARK    3  A    between atoms: C_2  and  C_16
REMARK    4  A    between atoms: C_4  and  C_6
REMARK    5  A    between atoms: C_19  and  C_20
REMARK    6  A    between atoms: C_20  and  N_21
REMARK    7  A    between atoms: C_22  and  C_24
REMARK    8  A    between atoms: N_28  and  C_29
REMARK                            x       y       z     vdW  Elec       q    Type
REMARK                         _______ _______ _______ _____ _____    ______ ____
ROOT
ATOM      1  C   UNL     1      49.121  10.659  14.946  0.00  0.00    +0.000 C 
ATOM      2  C   UNL     1      49.156   9.171  14.578  0.00  0.00    +0.000 C 
ENDROOT
BRANCH   2   3
ATOM      3  C   UNL     1      47.976   8.807  13.671  0.00  0.00    +0.000 A 
ATOM      4  C   UNL     1      47.334   9.785  12.906  0.00  0.00    +0.000 A 
ATOM      5  C   UNL     1      46.223   9.441  12.137  0.00  0.00    +0.000 A 
ATOM      6  C   UNL     1      45.769   8.123  12.127  0.00  0.00    +0.000 A 
ATOM      7  C   UNL     1      46.467   7.212  12.911  0.00  0.00    +0.000 A 
ATOM      8  N   UNL     1      47.545   7.522  13.678  0.00  0.00    +0.000 NA
BRANCH   6   9
ATOM      9  C   UNL     1      44.538   7.718  11.365  0.00  0.00    +0.000 C 
BRANCH   9  10
ATOM     10  N   UNL     1      44.738   6.447  10.707  0.00  0.00    +0.000 N 
ATOM     11  C   UNL     1      43.735   5.504  10.615  0.00  0.00    +0.000 C 
ATOM     12  O   UNL     1      42.624   5.691  11.095  0.00  0.00    +0.000 OA
ATOM     13  H   UNL     1      45.584   6.321  10.174  0.00  0.00    +0.000 HD
BRANCH  11  14
ATOM     14  C   UNL     1      44.108   4.294   9.911  0.00  0.00    +0.000 A 
ATOM     15  C   UNL     1      44.669   4.116   8.657  0.00  0.00    +0.000 A 
ATOM     16  N   UNL     1      44.898   2.796   8.376  0.00  0.00    +0.000 NA
ATOM     17  C   UNL     1      44.487   2.149   9.438  0.00  0.00    +0.000 A 
ATOM     18  N   UNL     1      43.992   3.000  10.386  0.00  0.00    +0.000 N 
ATOM     19  C   UNL     1      43.433   2.579  11.648  0.00  0.00    +0.000 C 
ENDBRANCH  11  14
ENDBRANCH   9  10
ENDBRANCH   6   9
ENDBRANCH   2   3
BRANCH   2  20
ATOM     20  N   UNL     1      49.161   8.322  15.765  0.00  0.00    +0.000 N 
ATOM     21  C   UNL     1      50.294   7.972  16.450  0.00  0.00    +0.000 C 
ATOM     22  O   UNL     1      51.420   8.274  16.069  0.00  0.00    +0.000 OA
ATOM     23  H   UNL     1      48.258   8.045  16.127  0.00  0.00    +0.000 HD
BRANCH  21  24
ATOM     24  C   UNL     1      50.089   7.180  17.670  0.00  0.00    +0.000 A 
ATOM     25  C   UNL     1      50.532   7.667  18.892  0.00  0.00    +0.000 A 
ATOM     26  S   UNL     1      50.227   6.613  20.198  0.00  0.00    +0.000 S 
ATOM     27  C   UNL     1      49.459   5.486  19.183  0.00  0.00    +0.000 A 
ATOM     28  N   UNL     1      48.944   4.331  19.683  0.00  0.00    +0.000 NA
ATOM     29  C   UNL     1      48.362   3.580  18.810  0.00  0.00    +0.000 A 
ATOM     30  N   UNL     1      48.244   3.880  17.481  0.00  0.00    +0.000 N 
ATOM     31  C   UNL     1      48.765   5.026  16.923  0.00  0.00    +0.000 A 
ATOM     32  O   UNL     1      48.671   5.241  15.718  0.00  0.00    +0.000 OA
ATOM     33  C   UNL     1      49.434   5.906  17.863  0.00  0.00    +0.000 A 
ATOM     34  H   UNL     1      47.780   3.248  16.845  0.00  0.00    +0.000 HD
ENDBRANCH  21  24
ENDBRANCH   2  20
TORSDOF 6
ENDMDL
