MODEL 1
REMARK VINA RESULT:    -7.335      0.000      0.000
REMARK INTER + INTRA:         -11.410
REMARK INTER:                 -10.123
REMARK INTRA:                  -1.287
REMARK UNBOUND:                -1.287
REMARK  Name = 
REMARK  10 active torsions:
REMARK  status: ('A' for Active; 'I' for Inactive)
REMARK    1  A    between atoms: C_1  and  C_2
REMARK    2  A    between atoms: C_2  and  C_3
REMARK    3  A    between atoms: C_2  and  C_4
REMARK    4  A    between atoms: C_2  and  C_15
REMARK    5  A    between atoms: C_4  and  N_5
REMARK    6  A    between atoms: N_5  and  C_6
REMARK    7  A    between atoms: C_9  and  C_10
REMARK    8  A    between atoms: C_19  and  C_20
REMARK    9  A    between atoms: C_20  and  C_21
REMARK   10  A    between atoms: C_24  and  O_25
REMARK                            x       y       z     vdW  Elec       q    Type
REMARK                         _______ _______ _______ _____ _____    ______ ____
ROOT
ATOM      1  C   UNL     1      48.999   9.683  11.485  0.00  0.00    +0.000 C 
ATOM      2  C   UNL     1      48.625   8.389  12.251  0.00  0.00    +0.000 C 
ATOM      3  C   UNL     1      49.591   7.287  11.742  0.00  0.00    +0.000 C 
ENDROOT
BRANCH   2   4
ATOM      4  C   UNL     1      47.149   8.007  12.000  0.00  0.00    +0.000 A 
ATOM      5  C   UNL     1      46.107   8.914  12.236  0.00  0.00    +0.000 A 
ATOM      6  C   UNL     1      44.783   8.565  11.977  0.00  0.00    +0.000 A 
ATOM      7  C   UNL     1      44.471   7.309  11.460  0.00  0.00    +0.000 A 
ATOM      8  C   UNL     1      45.474   6.379  11.162  0.00  0.00    +0.000 A 
ATOM      9  C   UNL     1      46.796   6.731  11.511  0.00  0.00    +0.000 A 
BRANCH   8  10
ATOM     10  C   UNL     1      45.199   5.040  10.439  0.00  0.00    +0.000 C 
ATOM     11  C   UNL     1      45.853   5.092   9.037  0.00  0.00    +0.000 C 
ATOM     12  C   UNL     1      43.669   4.814  10.251  0.00  0.00    +0.000 C 
ATOM     13  C   UNL     1      42.933   4.559  11.568  0.00  0.00    +0.000 C 
ATOM     14  C   UNL     1      43.516   3.383  12.350  0.00  0.00    +0.000 C 
ATOM     15  C   UNL     1      45.035   3.448  12.486  0.00  0.00    +0.000 C 
ATOM     16  C   UNL     1      45.754   3.782  11.169  0.00  0.00    +0.000 C 
BRANCH  14  17
ATOM     17  O   UNL     1      43.137   2.155  11.736  0.00  0.00    +0.000 OA
ATOM     18  H   UNL     1      43.847   1.505  11.872  0.00  0.00    +0.000 HD
ENDBRANCH  14  17
ENDBRANCH   8  10
ENDBRANCH   2   4
BRANCH   2  19
ATOM     19  C   UNL     1      48.814   8.601  13.787  0.00  0.00    +0.000 C 
BRANCH  19  20
ATOM     20  N   UNL     1      49.590   7.520  14.399  0.00  0.00    +0.000 N 
ATOM     21  H   UNL     1      50.513   7.788  14.732  0.00  0.00    +0.000 HD
BRANCH  20  22
ATOM     22  C   UNL     1      48.992   6.553  15.194  0.00  0.00    +0.000 A 
ATOM     23  C   UNL     1      48.032   5.640  14.784  0.00  0.00    +0.000 A 
ATOM     24  N   UNL     1      47.532   4.641  15.548  0.00  0.00    +0.000 NA
ATOM     25  C   UNL     1      48.056   4.547  16.794  0.00  0.00    +0.000 A 
ATOM     26  N   UNL     1      49.002   5.350  17.311  0.00  0.00    +0.000 NA
ATOM     27  C   UNL     1      49.448   6.319  16.485  0.00  0.00    +0.000 A 
BRANCH  25  28
ATOM     28  C   UNL     1      47.550   3.413  17.654  0.00  0.00    +0.000 C 
ATOM     29  N   UNL     1      48.336   3.098  18.738  0.00  0.00    +0.000 N 
ATOM     30  O   UNL     1      46.512   2.799  17.441  0.00  0.00    +0.000 OA
ATOM     31  H   UNL     1      49.173   3.636  18.931  0.00  0.00    +0.000 HD
ATOM     32  H   UNL     1      48.026   2.377  19.374  0.00  0.00    +0.000 HD
ENDBRANCH  25  28
ENDBRANCH  20  22
ENDBRANCH  19  20
ENDBRANCH   2  19
TORSDOF 7
ENDMDL
MODEL 2
REMARK VINA RESULT:    -6.918      2.388      6.682
REMARK INTER + INTRA:         -10.834
REMARK INTER:                  -9.869
REMARK INTRA:                  -0.965
REMARK UNBOUND:                -1.287
REMARK  Name = 
REMARK  10 active torsions:
REMARK  status: ('A' for Active; 'I' for Inactive)
REMARK    1  A    between atoms: C_1  and  C_2
REMARK    2  A    between atoms: C_2  and  C_3
REMARK    3  A    between atoms: C_2  and  C_4
REMARK    4  A    between atoms: C_2  and  C_15
REMARK    5  A    between atoms: C_4  and  N_5
REMARK    6  A    between atoms: N_5  and  C_6
REMARK    7  A    between atoms: C_9  and  C_10
REMARK    8  A    between atoms: C_19  and  C_20
REMARK    9  A    between atoms: C_20  and  C_21
REMARK   10  A    between atoms: C_24  and  O_25
REMARK                            x       y       z     vdW  Elec       q    Type
REMARK                         _______ _______ _______ _____ _____    ______ ____
ROOT
ATOM      1  C   UNL     1      50.070   9.265  13.921  0.00  0.00    +0.000 C 
ATOM      2  C   UNL     1      49.232   8.168  14.627  0.00  0.00    +0.000 C 
ATOM      3  C   UNL     1      48.161   8.913  15.468  0.00  0.00    +0.000 C 
ENDROOT
BRANCH   2   4
ATOM      4  C   UNL     1      50.128   7.276  15.514  0.00  0.00    +0.000 A 
ATOM      5  C   UNL     1      51.525   7.383  15.488  0.00  0.00    +0.000 A 
ATOM      6  C   UNL     1      52.319   6.591  16.315  0.00  0.00    +0.000 A 
ATOM      7  C   UNL     1      51.735   5.687  17.201  0.00  0.00    +0.000 A 
ATOM      8  C   UNL     1      50.343   5.569  17.303  0.00  0.00    +0.000 A 
ATOM      9  C   UNL     1      49.570   6.325  16.395  0.00  0.00    +0.000 A 
BRANCH   8  10
ATOM     10  C   UNL     1      49.644   4.705  18.377  0.00  0.00    +0.000 C 
ATOM     11  C   UNL     1      50.440   4.820  19.699  0.00  0.00    +0.000 C 
ATOM     12  C   UNL     1      49.620   3.205  17.956  0.00  0.00    +0.000 C 
ATOM     13  C   UNL     1      48.706   2.931  16.760  0.00  0.00    +0.000 C 
ATOM     14  C   UNL     1      47.272   3.403  16.995  0.00  0.00    +0.000 C 
ATOM     15  C   UNL     1      47.190   4.831  17.529  0.00  0.00    +0.000 C 
ATOM     16  C   UNL     1      48.171   5.111  18.679  0.00  0.00    +0.000 C 
BRANCH  14  17
ATOM     17  O   UNL     1      46.608   2.513  17.888  0.00  0.00    +0.000 OA
ATOM     18  H   UNL     1      47.234   2.243  18.582  0.00  0.00    +0.000 HD
ENDBRANCH  14  17
ENDBRANCH   8  10
ENDBRANCH   2   4
BRANCH   2  19
ATOM     19  C   UNL     1      48.541   7.255  13.564  0.00  0.00    +0.000 C 
BRANCH  19  20
ATOM     20  N   UNL     1      47.083   7.258  13.702  0.00  0.00    +0.000 N 
ATOM     21  H   UNL     1      46.654   8.181  13.718  0.00  0.00    +0.000 HD
BRANCH  20  22
ATOM     22  C   UNL     1      46.289   6.307  13.078  0.00  0.00    +0.000 A 
ATOM     23  C   UNL     1      45.809   6.371  11.780  0.00  0.00    +0.000 A 
ATOM     24  N   UNL     1      45.117   5.388  11.157  0.00  0.00    +0.000 NA
ATOM     25  C   UNL     1      44.925   4.263  11.887  0.00  0.00    +0.000 A 
ATOM     26  N   UNL     1      45.351   4.061  13.146  0.00  0.00    +0.000 NA
ATOM     27  C   UNL     1      46.033   5.088  13.694  0.00  0.00    +0.000 A 
BRANCH  25  28
ATOM     28  C   UNL     1      44.195   3.131  11.202  0.00  0.00    +0.000 C 
ATOM     29  N   UNL     1      44.922   2.446  10.257  0.00  0.00    +0.000 N 
ATOM     30  O   UNL     1      43.040   2.808  11.450  0.00  0.00    +0.000 OA
ATOM     31  H   UNL     1      45.891   2.693  10.086  0.00  0.00    +0.000 HD
ATOM     32  H   UNL     1      44.502   1.651   9.797  0.00  0.00    +0.000 HD
ENDBRANCH  25  28
ENDBRANCH  20  22
ENDBRANCH  19  20
ENDBRANCH   2  19
TORSDOF 7
ENDMDL
MODEL 3
REMARK VINA RESULT:    -6.307      3.151      7.548
REMARK INTER + INTRA:          -9.992
REMARK INTER:                  -8.942
REMARK INTRA:                  -1.050
REMARK UNBOUND:                -1.287
REMARK  Name = 
REMARK  10 active torsions:
REMARK  status: ('A' for Active; 'I' for Inactive)
REMARK    1  A    between atoms: C_1  and  C_2
REMARK    2  A    between atoms: C_2  and  C_3
REMARK    3  A    between atoms: C_2  and  C_4
REMARK    4  A    between atoms: C_2  and  C_15
REMARK    5  A    between atoms: C_4  and  N_5
REMARK    6  A    between atoms: N_5  and  C_6
REMARK    7  A    between atoms: C_9  and  C_10
REMARK    8  A    between atoms: C_19  and  C_20
REMARK    9  A    between atoms: C_20  and  C_21
REMARK   10  A    between atoms: C_24  and  O_25
REMARK                            x       y       z     vdW  Elec       q    Type
REMARK                         _______ _______ _______ _____ _____    ______ ____
ROOT
ATOM      1  C   UNL     1      49.788   7.786  13.233  0.00  0.00    +0.000 C 
ATOM      2  C   UNL     1      49.284   7.452  14.659  0.00  0.00    +0.000 C 
ATOM      3  C   UNL     1      48.669   8.761  15.222  0.00  0.00    +0.000 C 
ENDROOT
BRANCH   2   4
ATOM      4  C   UNL     1      50.442   6.943  15.547  0.00  0.00    +0.000 A 
ATOM      5  C   UNL     1      51.716   7.524  15.493  0.00  0.00    +0.000 A 
ATOM      6  C   UNL     1      52.743   7.073  16.320  0.00  0.00    +0.000 A 
ATOM      7  C   UNL     1      52.515   6.045  17.234  0.00  0.00    +0.000 A 
ATOM      8  C   UNL     1      51.250   5.459  17.364  0.00  0.00    +0.000 A 
ATOM      9  C   UNL     1      50.255   5.880  16.457  0.00  0.00    +0.000 A 
BRANCH   8  10
ATOM     10  C   UNL     1      50.903   4.433  18.468  0.00  0.00    +0.000 C 
ATOM     11  C   UNL     1      50.354   5.197  19.696  0.00  0.00    +0.000 C 
ATOM     12  C   UNL     1      52.170   3.645  18.914  0.00  0.00    +0.000 C 
ATOM     13  C   UNL     1      52.702   2.700  17.834  0.00  0.00    +0.000 C 
ATOM     14  C   UNL     1      51.647   1.708  17.347  0.00  0.00    +0.000 C 
ATOM     15  C   UNL     1      50.317   2.371  16.998  0.00  0.00    +0.000 C 
ATOM     16  C   UNL     1      49.836   3.375  18.057  0.00  0.00    +0.000 C 
BRANCH  14  17
ATOM     17  O   UNL     1      51.441   0.698  18.330  0.00  0.00    +0.000 OA
ATOM     18  H   UNL     1      51.529  -0.173  17.906  0.00  0.00    +0.000 HD
ENDBRANCH  14  17
ENDBRANCH   8  10
ENDBRANCH   2   4
BRANCH   2  19
ATOM     19  C   UNL     1      48.197   6.332  14.594  0.00  0.00    +0.000 C 
BRANCH  19  20
ATOM     20  N   UNL     1      46.978   6.789  13.923  0.00  0.00    +0.000 N 
ATOM     21  H   UNL     1      47.024   7.730  13.540  0.00  0.00    +0.000 HD
BRANCH  20  22
ATOM     22  C   UNL     1      46.205   5.932  13.152  0.00  0.00    +0.000 A 
ATOM     23  C   UNL     1      45.946   6.065  11.797  0.00  0.00    +0.000 A 
ATOM     24  N   UNL     1      45.270   5.166  11.042  0.00  0.00    +0.000 NA
ATOM     25  C   UNL     1      44.856   4.055  11.697  0.00  0.00    +0.000 A 
ATOM     26  N   UNL     1      45.056   3.791  13.000  0.00  0.00    +0.000 NA
ATOM     27  C   UNL     1      45.738   4.735  13.681  0.00  0.00    +0.000 A 
BRANCH  25  28
ATOM     28  C   UNL     1      44.139   3.013  10.871  0.00  0.00    +0.000 C 
ATOM     29  N   UNL     1      43.409   2.092  11.586  0.00  0.00    +0.000 N 
ATOM     30  O   UNL     1      44.172   2.963   9.647  0.00  0.00    +0.000 OA
ATOM     31  H   UNL     1      43.353   2.163  12.596  0.00  0.00    +0.000 HD
ATOM     32  H   UNL     1      42.873   1.398  11.086  0.00  0.00    +0.000 HD
ENDBRANCH  25  28
ENDBRANCH  20  22
ENDBRANCH  19  20
ENDBRANCH   2  19
TORSDOF 7
ENDMDL
MODEL 4
REMARK VINA RESULT:    -6.081      2.865      7.079
REMARK INTER + INTRA:          -9.679
REMARK INTER:                  -8.589
REMARK INTRA:                  -1.090
REMARK UNBOUND:                -1.287
REMARK  Name = 
REMARK  10 active torsions:
REMARK  status: ('A' for Active; 'I' for Inactive)
REMARK    1  A    between atoms: C_1  and  C_2
REMARK    2  A    between atoms: C_2  and  C_3
REMARK    3  A    between atoms: C_2  and  C_4
REMARK    4  A    between atoms: C_2  and  C_15
REMARK    5  A    between atoms: C_4  and  N_5
REMARK    6  A    between atoms: N_5  and  C_6
REMARK    7  A    between atoms: C_9  and  C_10
REMARK    8  A    between atoms: C_19  and  C_20
REMARK    9  A    between atoms: C_20  and  C_21
REMARK   10  A    between atoms: C_24  and  O_25
REMARK                            x       y       z     vdW  Elec       q    Type
REMARK                         _______ _______ _______ _____ _____    ______ ____
ROOT
ATOM      1  C   UNL     1      50.536   8.535  13.953  0.00  0.00    +0.000 C 
ATOM      2  C   UNL     1      49.016   8.436  14.238  0.00  0.00    +0.000 C 
ATOM      3  C   UNL     1      48.397   9.781  13.774  0.00  0.00    +0.000 C 
ENDROOT
BRANCH   2   4
ATOM      4  C   UNL     1      48.752   8.181  15.739  0.00  0.00    +0.000 A 
ATOM      5  C   UNL     1      48.189   9.166  16.562  0.00  0.00    +0.000 A 
ATOM      6  C   UNL     1      47.931   8.912  17.907  0.00  0.00    +0.000 A 
ATOM      7  C   UNL     1      48.213   7.662  18.457  0.00  0.00    +0.000 A 
ATOM      8  C   UNL     1      48.734   6.626  17.673  0.00  0.00    +0.000 A 
ATOM      9  C   UNL     1      49.060   6.940  16.336  0.00  0.00    +0.000 A 
BRANCH   8  10
ATOM     10  C   UNL     1      48.912   5.181  18.191  0.00  0.00    +0.000 C 
ATOM     11  C   UNL     1      47.553   4.448  18.087  0.00  0.00    +0.000 C 
ATOM     12  C   UNL     1      49.353   5.175  19.685  0.00  0.00    +0.000 C 
ATOM     13  C   UNL     1      50.772   5.707  19.896  0.00  0.00    +0.000 C 
ATOM     14  C   UNL     1      51.812   4.953  19.070  0.00  0.00    +0.000 C 
ATOM     15  C   UNL     1      51.415   4.797  17.604  0.00  0.00    +0.000 C 
ATOM     16  C   UNL     1      49.962   4.336  17.410  0.00  0.00    +0.000 C 
BRANCH  14  17
ATOM     17  O   UNL     1      52.054   3.673  19.645  0.00  0.00    +0.000 OA
ATOM     18  H   UNL     1      52.483   3.796  20.510  0.00  0.00    +0.000 HD
ENDBRANCH  14  17
ENDBRANCH   8  10
ENDBRANCH   2   4
BRANCH   2  19
ATOM     19  C   UNL     1      48.394   7.252  13.430  0.00  0.00    +0.000 C 
BRANCH  19  20
ATOM     20  N   UNL     1      46.944   7.162  13.615  0.00  0.00    +0.000 N 
ATOM     21  H   UNL     1      46.464   8.055  13.698  0.00  0.00    +0.000 HD
BRANCH  20  22
ATOM     22  C   UNL     1      46.184   6.201  12.965  0.00  0.00    +0.000 A 
ATOM     23  C   UNL     1      45.946   6.135  11.601  0.00  0.00    +0.000 A 
ATOM     24  N   UNL     1      45.283   5.136  10.973  0.00  0.00    +0.000 NA
ATOM     25  C   UNL     1      44.859   4.130  11.775  0.00  0.00    +0.000 A 
ATOM     26  N   UNL     1      45.038   4.057  13.106  0.00  0.00    +0.000 NA
ATOM     27  C   UNL     1      45.708   5.092  13.653  0.00  0.00    +0.000 A 
BRANCH  25  28
ATOM     28  C   UNL     1      44.156   2.978  11.097  0.00  0.00    +0.000 C 
ATOM     29  N   UNL     1      44.846   2.391  10.062  0.00  0.00    +0.000 N 
ATOM     30  O   UNL     1      43.052   2.558  11.423  0.00  0.00    +0.000 OA
ATOM     31  H   UNL     1      45.776   2.717   9.824  0.00  0.00    +0.000 HD
ATOM     32  H   UNL     1      44.444   1.588   9.599  0.00  0.00    +0.000 HD
ENDBRANCH  25  28
ENDBRANCH  20  22
ENDBRANCH  19  20
ENDBRANCH   2  19
TORSDOF 7
ENDMDL
MODEL 5
REMARK VINA RESULT:    -5.999      1.792      1.987
REMARK INTER + INTRA:          -9.566
REMARK INTER:                  -8.567
REMARK INTRA:                  -1.000
REMARK UNBOUND:                -1.287
REMARK  Name = 
REMARK  10 active torsions:
REMARK  status: ('A' for Active; 'I' for Inactive)
REMARK    1  A    between atoms: C_1  and  C_2
REMARK    2  A    between atoms: C_2  and  C_3
REMARK    3  A    between atoms: C_2  and  C_4
REMARK    4  A    between atoms: C_2  and  C_15
REMARK    5  A    between atoms: C_4  and  N_5
REMARK    6  A    between atoms: N_5  and  C_6
REMARK    7  A    between atoms: C_9  and  C_10
REMARK    8  A    between atoms: C_19  and  C_20
REMARK    9  A    between atoms: C_20  and  C_21
REMARK   10  A    between atoms: C_24  and  O_25
REMARK                            x       y       z     vdW  Elec       q    Type
REMARK                         _______ _______ _______ _____ _____    ______ ____
ROOT
ATOM      1  C   UNL     1      48.876   9.350  13.631  0.00  0.00    +0.000 C 
ATOM      2  C   UNL     1      48.303   7.912  13.708  0.00  0.00    +0.000 C 
ATOM      3  C   UNL     1      49.378   6.980  13.086  0.00  0.00    +0.000 C 
ENDROOT
BRANCH   2   4
ATOM      4  C   UNL     1      46.961   7.812  12.949  0.00  0.00    +0.000 A 
ATOM      5  C   UNL     1      46.095   8.908  12.846  0.00  0.00    +0.000 A 
ATOM      6  C   UNL     1      44.901   8.812  12.135  0.00  0.00    +0.000 A 
ATOM      7  C   UNL     1      44.554   7.624  11.494  0.00  0.00    +0.000 A 
ATOM      8  C   UNL     1      45.402   6.510  11.524  0.00  0.00    +0.000 A 
ATOM      9  C   UNL     1      46.563   6.613  12.320  0.00  0.00    +0.000 A 
BRANCH   8  10
ATOM     10  C   UNL     1      45.145   5.228  10.700  0.00  0.00    +0.000 C 
ATOM     11  C   UNL     1      45.857   5.368   9.333  0.00  0.00    +0.000 C 
ATOM     12  C   UNL     1      43.622   5.033  10.435  0.00  0.00    +0.000 C 
ATOM     13  C   UNL     1      42.829   4.697  11.700  0.00  0.00    +0.000 C 
ATOM     14  C   UNL     1      43.368   3.463  12.422  0.00  0.00    +0.000 C 
ATOM     15  C   UNL     1      44.881   3.500  12.624  0.00  0.00    +0.000 C 
ATOM     16  C   UNL     1      45.657   3.915  11.364  0.00  0.00    +0.000 C 
BRANCH  14  17
ATOM     17  O   UNL     1      43.004   2.286  11.710  0.00  0.00    +0.000 OA
ATOM     18  H   UNL     1      43.630   2.157  10.977  0.00  0.00    +0.000 HD
ENDBRANCH  14  17
ENDBRANCH   8  10
ENDBRANCH   2   4
BRANCH   2  19
ATOM     19  C   UNL     1      48.047   7.517  15.198  0.00  0.00    +0.000 C 
BRANCH  19  20
ATOM     20  N   UNL     1      47.724   6.095  15.341  0.00  0.00    +0.000 N 
ATOM     21  H   UNL     1      47.298   5.666  14.523  0.00  0.00    +0.000 HD
BRANCH  20  22
ATOM     22  C   UNL     1      48.552   5.225  16.035  0.00  0.00    +0.000 A 
ATOM     23  C   UNL     1      48.322   3.875  16.247  0.00  0.00    +0.000 A 
ATOM     24  N   UNL     1      49.188   3.022  16.842  0.00  0.00    +0.000 NA
ATOM     25  C   UNL     1      50.369   3.567  17.222  0.00  0.00    +0.000 A 
ATOM     26  N   UNL     1      50.728   4.852  17.061  0.00  0.00    +0.000 NA
ATOM     27  C   UNL     1      49.810   5.635  16.459  0.00  0.00    +0.000 A 
BRANCH  25  28
ATOM     28  C   UNL     1      51.374   2.630  17.849  0.00  0.00    +0.000 C 
ATOM     29  N   UNL     1      51.143   1.290  17.640  0.00  0.00    +0.000 N 
ATOM     30  O   UNL     1      52.347   2.997  18.496  0.00  0.00    +0.000 OA
ATOM     31  H   UNL     1      50.358   0.994  17.069  0.00  0.00    +0.000 HD
ATOM     32  H   UNL     1      51.805   0.617  17.998  0.00  0.00    +0.000 HD
ENDBRANCH  25  28
ENDBRANCH  20  22
ENDBRANCH  19  20
ENDBRANCH   2  19
TORSDOF 7
ENDMDL
MODEL 6
REMARK VINA RESULT:    -5.903      1.542      2.134
REMARK INTER + INTRA:          -9.434
REMARK INTER:                  -8.441
REMARK INTRA:                  -0.993
REMARK UNBOUND:                -1.287
REMARK  Name = 
REMARK  10 active torsions:
REMARK  status: ('A' for Active; 'I' for Inactive)
REMARK    1  A    between atoms: C_1  and  C_2
REMARK    2  A    between atoms: C_2  and  C_3
REMARK    3  A    between atoms: C_2  and  C_4
REMARK    4  A    between atoms: C_2  and  C_15
REMARK    5  A    between atoms: C_4  and  N_5
REMARK    6  A    between atoms: N_5  and  C_6
REMARK    7  A    between atoms: C_9  and  C_10
REMARK    8  A    between atoms: C_19  and  C_20
REMARK    9  A    between atoms: C_20  and  C_21
REMARK   10  A    between atoms: C_24  and  O_25
REMARK                            x       y       z     vdW  Elec       q    Type
REMARK                         _______ _______ _______ _____ _____    ______ ____
ROOT
ATOM      1  C   UNL     1      49.653   9.892  12.070  0.00  0.00    +0.000 C 
ATOM      2  C   UNL     1      49.416   8.371  12.253  0.00  0.00    +0.000 C 
ATOM      3  C   UNL     1      50.024   7.682  11.002  0.00  0.00    +0.000 C 
ENDROOT
BRANCH   2   4
ATOM      4  C   UNL     1      47.909   8.061  12.393  0.00  0.00    +0.000 A 
ATOM      5  C   UNL     1      46.939   9.060  12.235  0.00  0.00    +0.000 A 
ATOM      6  C   UNL     1      45.582   8.760  12.337  0.00  0.00    +0.000 A 
ATOM      7  C   UNL     1      45.162   7.453  12.579  0.00  0.00    +0.000 A 
ATOM      8  C   UNL     1      46.086   6.407  12.701  0.00  0.00    +0.000 A 
ATOM      9  C   UNL     1      47.453   6.756  12.675  0.00  0.00    +0.000 A 
BRANCH   8  10
ATOM     10  C   UNL     1      45.672   4.921  12.807  0.00  0.00    +0.000 C 
ATOM     11  C   UNL     1      46.748   4.165  13.622  0.00  0.00    +0.000 C 
ATOM     12  C   UNL     1      45.583   4.266  11.396  0.00  0.00    +0.000 C 
ATOM     13  C   UNL     1      44.424   4.804  10.555  0.00  0.00    +0.000 C 
ATOM     14  C   UNL     1      43.073   4.660  11.254  0.00  0.00    +0.000 C 
ATOM     15  C   UNL     1      43.086   5.165  12.695  0.00  0.00    +0.000 C 
ATOM     16  C   UNL     1      44.299   4.678  13.502  0.00  0.00    +0.000 C 
BRANCH  14  17
ATOM     17  O   UNL     1      42.652   3.300  11.222  0.00  0.00    +0.000 OA
ATOM     18  H   UNL     1      42.646   2.997  10.298  0.00  0.00    +0.000 HD
ENDBRANCH  14  17
ENDBRANCH   8  10
ENDBRANCH   2   4
BRANCH   2  19
ATOM     19  C   UNL     1      50.136   7.868  13.546  0.00  0.00    +0.000 C 
BRANCH  19  20
ATOM     20  N   UNL     1      49.557   8.452  14.758  0.00  0.00    +0.000 N 
ATOM     21  H   UNL     1      48.869   9.184  14.598  0.00  0.00    +0.000 HD
BRANCH  20  22
ATOM     22  C   UNL     1      49.270   7.679  15.874  0.00  0.00    +0.000 A 
ATOM     23  C   UNL     1      48.686   8.128  17.048  0.00  0.00    +0.000 A 
ATOM     24  N   UNL     1      48.325   7.341  18.088  0.00  0.00    +0.000 NA
ATOM     25  C   UNL     1      48.545   6.015  17.915  0.00  0.00    +0.000 A 
ATOM     26  N   UNL     1      49.084   5.445  16.823  0.00  0.00    +0.000 NA
ATOM     27  C   UNL     1      49.415   6.298  15.833  0.00  0.00    +0.000 A 
BRANCH  25  28
ATOM     28  C   UNL     1      48.110   5.106  19.040  0.00  0.00    +0.000 C 
ATOM     29  N   UNL     1      46.927   5.449  19.652  0.00  0.00    +0.000 N 
ATOM     30  O   UNL     1      48.734   4.118  19.406  0.00  0.00    +0.000 OA
ATOM     31  H   UNL     1      46.395   6.244  19.318  0.00  0.00    +0.000 HD
ATOM     32  H   UNL     1      46.563   4.853  20.383  0.00  0.00    +0.000 HD
ENDBRANCH  25  28
ENDBRANCH  20  22
ENDBRANCH  19  20
ENDBRANCH   2  19
TORSDOF 7
ENDMDL
MODEL 7
REMARK VINA RESULT:    -5.713      2.665      6.828
REMARK INTER + INTRA:          -9.171
REMARK INTER:                  -8.269
REMARK INTRA:                  -0.902
REMARK UNBOUND:                -1.287
REMARK  Name = 
REMARK  10 active torsions:
REMARK  status: ('A' for Active; 'I' for Inactive)
REMARK    1  A    between atoms: C_1  and  C_2
REMARK    2  A    between atoms: C_2  and  C_3
REMARK    3  A    between atoms: C_2  and  C_4
REMARK    4  A    between atoms: C_2  and  C_15
REMARK    5  A    between atoms: C_4  and  N_5
REMARK    6  A    between atoms: N_5  and  C_6
REMARK    7  A    between atoms: C_9  and  C_10
REMARK    8  A    between atoms: C_19  and  C_20
REMARK    9  A    between atoms: C_20  and  C_21
REMARK   10  A    between atoms: C_24  and  O_25
REMARK                            x       y       z     vdW  Elec       q    Type
REMARK                         _______ _______ _______ _____ _____    ______ ____
ROOT
ATOM      1  C   UNL     1      48.645   6.659  13.039  0.00  0.00    +0.000 C 
ATOM      2  C   UNL     1      48.215   8.058  13.550  0.00  0.00    +0.000 C 
ATOM      3  C   UNL     1      48.896   9.092  12.614  0.00  0.00    +0.000 C 
ENDROOT
BRANCH   2   4
ATOM      4  C   UNL     1      48.640   8.261  15.021  0.00  0.00    +0.000 A 
ATOM      5  C   UNL     1      48.325   9.435  15.719  0.00  0.00    +0.000 A 
ATOM      6  C   UNL     1      48.690   9.593  17.054  0.00  0.00    +0.000 A 
ATOM      7  C   UNL     1      49.361   8.574  17.729  0.00  0.00    +0.000 A 
ATOM      8  C   UNL     1      49.662   7.362  17.096  0.00  0.00    +0.000 A 
ATOM      9  C   UNL     1      49.352   7.265  15.722  0.00  0.00    +0.000 A 
BRANCH   8  10
ATOM     10  C   UNL     1      50.256   6.144  17.840  0.00  0.00    +0.000 C 
ATOM     11  C   UNL     1      51.799   6.263  17.830  0.00  0.00    +0.000 C 
ATOM     12  C   UNL     1      49.869   4.813  17.127  0.00  0.00    +0.000 C 
ATOM     13  C   UNL     1      48.377   4.486  17.233  0.00  0.00    +0.000 C 
ATOM     14  C   UNL     1      47.887   4.435  18.679  0.00  0.00    +0.000 C 
ATOM     15  C   UNL     1      48.322   5.645  19.503  0.00  0.00    +0.000 C 
ATOM     16  C   UNL     1      49.804   6.006  19.324  0.00  0.00    +0.000 C 
BRANCH  14  17
ATOM     17  O   UNL     1      48.340   3.237  19.302  0.00  0.00    +0.000 OA
ATOM     18  H   UNL     1      47.969   3.193  20.201  0.00  0.00    +0.000 HD
ENDBRANCH  14  17
ENDBRANCH   8  10
ENDBRANCH   2   4
BRANCH   2  19
ATOM     19  C   UNL     1      46.662   8.203  13.470  0.00  0.00    +0.000 C 
BRANCH  19  20
ATOM     20  N   UNL     1      46.139   7.797  12.164  0.00  0.00    +0.000 N 
ATOM     21  H   UNL     1      46.648   8.163  11.363  0.00  0.00    +0.000 HD
BRANCH  20  22
ATOM     22  C   UNL     1      45.635   6.523  11.943  0.00  0.00    +0.000 A 
ATOM     23  C   UNL     1      44.847   5.795  12.822  0.00  0.00    +0.000 A 
ATOM     24  N   UNL     1      44.285   4.594  12.549  0.00  0.00    +0.000 NA
ATOM     25  C   UNL     1      44.513   4.117  11.302  0.00  0.00    +0.000 A 
ATOM     26  N   UNL     1      45.240   4.726  10.349  0.00  0.00    +0.000 NA
ATOM     27  C   UNL     1      45.764   5.918  10.699  0.00  0.00    +0.000 A 
BRANCH  25  28
ATOM     28  C   UNL     1      43.861   2.800  10.954  0.00  0.00    +0.000 C 
ATOM     29  N   UNL     1      44.385   2.151   9.861  0.00  0.00    +0.000 N 
ATOM     30  O   UNL     1      42.932   2.305  11.583  0.00  0.00    +0.000 OA
ATOM     31  H   UNL     1      45.180   2.547   9.370  0.00  0.00    +0.000 HD
ATOM     32  H   UNL     1      44.018   1.246   9.606  0.00  0.00    +0.000 HD
ENDBRANCH  25  28
ENDBRANCH  20  22
ENDBRANCH  19  20
ENDBRANCH   2  19
TORSDOF 7
ENDMDL
MODEL 8
REMARK VINA RESULT:    -4.942      3.324      7.437
REMARK INTER + INTRA:          -8.107
REMARK INTER:                  -6.980
REMARK INTRA:                  -1.126
REMARK UNBOUND:                -1.287
REMARK  Name = 
REMARK  10 active torsions:
REMARK  status: ('A' for Active; 'I' for Inactive)
REMARK    1  A    between atoms: C_1  and  C_2
REMARK    2  A    between atoms: C_2  and  C_3
REMARK    3  A    between atoms: C_2  and  C_4
REMARK    4  A    between atoms: C_2  and  C_15
REMARK    5  A    between atoms: C_4  and  N_5
REMARK    6  A    between atoms: N_5  and  C_6
REMARK    7  A    between atoms: C_9  and  C_10
REMARK    8  A    between atoms: C_19  and  C_20
REMARK    9  A    between atoms: C_20  and  C_21
REMARK   10  A    between atoms: C_24  and  O_25
REMARK                            x       y       z     vdW  Elec       q    Type
REMARK                         _______ _______ _______ _____ _____    ______ ____
ROOT
ATOM      1  C   UNL     1      49.335   7.146  12.375  0.00  0.00    +0.000 C 
ATOM      2  C   UNL     1      48.535   8.225  13.146  0.00  0.00    +0.000 C 
ATOM      3  C   UNL     1      48.054   9.252  12.085  0.00  0.00    +0.000 C 
ENDROOT
BRANCH   2   4
ATOM      4  C   UNL     1      49.413   8.897  14.225  0.00  0.00    +0.000 A 
ATOM      5  C   UNL     1      50.684   9.405  13.923  0.00  0.00    +0.000 A 
ATOM      6  C   UNL     1      51.453  10.034  14.900  0.00  0.00    +0.000 A 
ATOM      7  C   UNL     1      50.964  10.186  16.196  0.00  0.00    +0.000 A 
ATOM      8  C   UNL     1      49.683   9.737  16.544  0.00  0.00    +0.000 A 
ATOM      9  C   UNL     1      48.962   9.034  15.555  0.00  0.00    +0.000 A 
BRANCH   8  10
ATOM     10  C   UNL     1      49.030  10.024  17.916  0.00  0.00    +0.000 C 
ATOM     11  C   UNL     1      48.614  11.513  17.964  0.00  0.00    +0.000 C 
ATOM     12  C   UNL     1      50.037   9.765  19.076  0.00  0.00    +0.000 C 
ATOM     13  C   UNL     1      50.384   8.285  19.252  0.00  0.00    +0.000 C 
ATOM     14  C   UNL     1      49.148   7.412  19.464  0.00  0.00    +0.000 C 
ATOM     15  C   UNL     1      48.044   7.677  18.444  0.00  0.00    +0.000 C 
ATOM     16  C   UNL     1      47.763   9.172  18.222  0.00  0.00    +0.000 C 
BRANCH  14  17
ATOM     17  O   UNL     1      48.644   7.597  20.783  0.00  0.00    +0.000 OA
ATOM     18  H   UNL     1      49.362   7.434  21.418  0.00  0.00    +0.000 HD
ENDBRANCH  14  17
ENDBRANCH   8  10
ENDBRANCH   2   4
BRANCH   2  19
ATOM     19  C   UNL     1      47.306   7.574  13.859  0.00  0.00    +0.000 C 
BRANCH  19  20
ATOM     20  N   UNL     1      46.086   7.681  13.056  0.00  0.00    +0.000 N 
ATOM     21  H   UNL     1      46.015   8.523  12.489  0.00  0.00    +0.000 HD
BRANCH  20  22
ATOM     22  C   UNL     1      45.515   6.573  12.446  0.00  0.00    +0.000 A 
ATOM     23  C   UNL     1      45.519   6.298  11.087  0.00  0.00    +0.000 A 
ATOM     24  N   UNL     1      45.042   5.164  10.522  0.00  0.00    +0.000 NA
ATOM     25  C   UNL     1      44.557   4.244  11.390  0.00  0.00    +0.000 A 
ATOM     26  N   UNL     1      44.510   4.373  12.727  0.00  0.00    +0.000 NA
ATOM     27  C   UNL     1      45.005   5.531  13.211  0.00  0.00    +0.000 A 
BRANCH  25  28
ATOM     28  C   UNL     1      44.059   2.949  10.791  0.00  0.00    +0.000 C 
ATOM     29  N   UNL     1      43.353   2.136  11.647  0.00  0.00    +0.000 N 
ATOM     30  O   UNL     1      44.242   2.615   9.627  0.00  0.00    +0.000 OA
ATOM     31  H   UNL     1      43.170   2.437  12.598  0.00  0.00    +0.000 HD
ATOM     32  H   UNL     1      42.958   1.277  11.291  0.00  0.00    +0.000 HD
ENDBRANCH  25  28
ENDBRANCH  20  22
ENDBRANCH  19  20
ENDBRANCH   2  19
TORSDOF 7
ENDMDL
MODEL 9
REMARK VINA RESULT:    -4.879     10.144     12.271
REMARK INTER + INTRA:          -8.020
REMARK INTER:                  -6.589
REMARK INTRA:                  -1.431
REMARK UNBOUND:                -1.287
REMARK  Name = 
REMARK  10 active torsions:
REMARK  status: ('A' for Active; 'I' for Inactive)
REMARK    1  A    between atoms: C_1  and  C_2
REMARK    2  A    between atoms: C_2  and  C_3
REMARK    3  A    between atoms: C_2  and  C_4
REMARK    4  A    between atoms: C_2  and  C_15
REMARK    5  A    between atoms: C_4  and  N_5
REMARK    6  A    between atoms: N_5  and  C_6
REMARK    7  A    between atoms: C_9  and  C_10
REMARK    8  A    between atoms: C_19  and  C_20
REMARK    9  A    between atoms: C_20  and  C_21
REMARK   10  A    between atoms: C_24  and  O_25
REMARK                            x       y       z     vdW  Elec       q    Type
REMARK                         _______ _______ _______ _____ _____    ______ ____
ROOT
ATOM      1  C   UNL     1      36.253  -2.850  12.947  0.00  0.00    +0.000 C 
ATOM      2  C   UNL     1      37.284  -2.038  12.122  0.00  0.00    +0.000 C 
ATOM      3  C   UNL     1      37.002  -2.364  10.631  0.00  0.00    +0.000 C 
ENDROOT
BRANCH   2   4
ATOM      4  C   UNL     1      38.728  -2.415  12.521  0.00  0.00    +0.000 A 
ATOM      5  C   UNL     1      39.783  -2.348  11.601  0.00  0.00    +0.000 A 
ATOM      6  C   UNL     1      41.085  -2.664  11.982  0.00  0.00    +0.000 A 
ATOM      7  C   UNL     1      41.367  -3.036  13.296  0.00  0.00    +0.000 A 
ATOM      8  C   UNL     1      40.360  -3.077  14.268  0.00  0.00    +0.000 A 
ATOM      9  C   UNL     1      39.040  -2.831  13.833  0.00  0.00    +0.000 A 
BRANCH   8  10
ATOM     10  C   UNL     1      40.643  -3.324  15.768  0.00  0.00    +0.000 C 
ATOM     11  C   UNL     1      40.844  -1.957  16.465  0.00  0.00    +0.000 C 
ATOM     12  C   UNL     1      41.944  -4.160  15.959  0.00  0.00    +0.000 C 
ATOM     13  C   UNL     1      41.805  -5.605  15.475  0.00  0.00    +0.000 C 
ATOM     14  C   UNL     1      40.641  -6.340  16.139  0.00  0.00    +0.000 C 
ATOM     15  C   UNL     1      39.338  -5.545  16.113  0.00  0.00    +0.000 C 
ATOM     16  C   UNL     1      39.510  -4.075  16.527  0.00  0.00    +0.000 C 
BRANCH  14  17
ATOM     17  O   UNL     1      40.979  -6.672  17.482  0.00  0.00    +0.000 OA
ATOM     18  H   UNL     1      41.650  -6.043  17.800  0.00  0.00    +0.000 HD
ENDBRANCH  14  17
ENDBRANCH   8  10
ENDBRANCH   2   4
BRANCH   2  19
ATOM     19  C   UNL     1      37.093  -0.509  12.383  0.00  0.00    +0.000 C 
BRANCH  19  20
ATOM     20  N   UNL     1      36.435  -0.249  13.665  0.00  0.00    +0.000 N 
ATOM     21  H   UNL     1      35.960  -1.049  14.076  0.00  0.00    +0.000 HD
BRANCH  20  22
ATOM     22  C   UNL     1      36.998   0.589  14.618  0.00  0.00    +0.000 A 
ATOM     23  C   UNL     1      36.735   1.941  14.772  0.00  0.00    +0.000 A 
ATOM     24  N   UNL     1      37.220   2.719  15.768  0.00  0.00    +0.000 NA
ATOM     25  C   UNL     1      37.996   2.081  16.675  0.00  0.00    +0.000 A 
ATOM     26  N   UNL     1      38.315   0.775  16.657  0.00  0.00    +0.000 NA
ATOM     27  C   UNL     1      37.791   0.070  15.633  0.00  0.00    +0.000 A 
BRANCH  25  28
ATOM     28  C   UNL     1      38.515   2.914  17.824  0.00  0.00    +0.000 C 
ATOM     29  N   UNL     1      39.398   3.911  17.479  0.00  0.00    +0.000 N 
ATOM     30  O   UNL     1      38.189   2.752  18.993  0.00  0.00    +0.000 OA
ATOM     31  H   UNL     1      39.632   4.066  16.504  0.00  0.00    +0.000 HD
ATOM     32  H   UNL     1      39.745   4.529  18.199  0.00  0.00    +0.000 HD
ENDBRANCH  25  28
ENDBRANCH  20  22
ENDBRANCH  19  20
ENDBRANCH   2  19
TORSDOF 7
ENDMDL
