MODEL 1
REMARK VINA RESULT:    -8.093      0.000      0.000
REMARK INTER + INTRA:         -10.550
REMARK INTER:                  -9.985
REMARK INTRA:                  -0.565
REMARK UNBOUND:                -0.565
REMARK  Name = 
REMARK  5 active torsions:
REMARK  status: ('A' for Active; 'I' for Inactive)
REMARK    1  A    between atoms: C_1  and  C_2
REMARK    2  A    between atoms: C_6  and  C_7
REMARK    3  A    between atoms: C_7  and  N_8
REMARK    4  A    between atoms: N_8  and  C_9
REMARK    5  A    between atoms: C_12  and  C_13
REMARK                            x       y       z     vdW  Elec       q    Type
REMARK                         _______ _______ _______ _____ _____    ______ ____
ROOT
ATOM      1  C   UNL     1      44.574   3.984   9.108  0.00  0.00    +0.000 A 
ATOM      2  C   UNL     1      45.579   4.526   8.295  0.00  0.00    +0.000 A 
ATOM      3  C   UNL     1      46.475   3.699   7.602  0.00  0.00    +0.000 A 
ATOM      4  C   UNL     1      46.410   2.312   7.747  0.00  0.00    +0.000 A 
ATOM      5  C   UNL     1      45.451   1.760   8.598  0.00  0.00    +0.000 A 
ATOM      6  C   UNL     1      44.558   2.593   9.281  0.00  0.00    +0.000 A 
ENDROOT
BRANCH   4   7
ATOM      7  C   UNL     1      47.347   1.461   6.967  0.00  0.00    +0.000 C 
ATOM      8  N   UNL     1      48.474   2.055   6.467  0.00  0.00    +0.000 N 
ATOM      9  O   UNL     1      47.117   0.277   6.757  0.00  0.00    +0.000 OA
ATOM     10  H   UNL     1      48.587   3.056   6.410  0.00  0.00    +0.000 HD
ATOM     11  H   UNL     1      49.058   1.482   5.871  0.00  0.00    +0.000 HD
ENDBRANCH   4   7
BRANCH   1  12
ATOM     12  N   UNL     1      43.718   4.848   9.812  0.00  0.00    +0.000 N 
ATOM     13  H   UNL     1      42.829   4.967   9.329  0.00  0.00    +0.000 HD
BRANCH  12  14
ATOM     14  C   UNL     1      43.517   4.580  11.235  0.00  0.00    +0.000 C 
BRANCH  14  20
ATOM     15  C   UNL     1      47.325   7.391  13.001  0.00  0.00    +0.000 C 
ATOM     16  C   UNL     1      46.612   6.083  12.878  0.00  0.00    +0.000 A 
ATOM     17  C   UNL     1      47.044   4.951  13.560  0.00  0.00    +0.000 A 
ATOM     18  N   UNL     1      46.432   3.749  13.496  0.00  0.00    +0.000 NA
ATOM     19  C   UNL     1      45.330   3.667  12.719  0.00  0.00    +0.000 A 
ATOM     20  C   UNL     1      44.803   4.734  11.996  0.00  0.00    +0.000 A 
ATOM     21  C   UNL     1      45.468   5.960  12.083  0.00  0.00    +0.000 A 
ENDBRANCH  14  20
ENDBRANCH  12  14
ENDBRANCH   1  12
TORSDOF 4
ENDMDL
MODEL 2
REMARK VINA RESULT:    -7.429      2.789      6.193
REMARK INTER + INTRA:          -9.731
REMARK INTER:                  -9.295
REMARK INTRA:                  -0.436
REMARK UNBOUND:                -0.565
REMARK  Name = 
REMARK  5 active torsions:
REMARK  status: ('A' for Active; 'I' for Inactive)
REMARK    1  A    between atoms: C_1  and  C_2
REMARK    2  A    between atoms: C_6  and  C_7
REMARK    3  A    between atoms: C_7  and  N_8
REMARK    4  A    between atoms: N_8  and  C_9
REMARK    5  A    between atoms: C_12  and  C_13
REMARK                            x       y       z     vdW  Elec       q    Type
REMARK                         _______ _______ _______ _____ _____    ______ ____
ROOT
ATOM      1  C   UNL     1      45.146   4.635  11.137  0.00  0.00    +0.000 A 
ATOM      2  C   UNL     1      45.781   5.802  10.694  0.00  0.00    +0.000 A 
ATOM      3  C   UNL     1      46.637   6.526  11.537  0.00  0.00    +0.000 A 
ATOM      4  C   UNL     1      46.837   6.119  12.858  0.00  0.00    +0.000 A 
ATOM      5  C   UNL     1      46.166   4.989  13.330  0.00  0.00    +0.000 A 
ATOM      6  C   UNL     1      45.318   4.271  12.479  0.00  0.00    +0.000 A 
ENDROOT
BRANCH   4   7
ATOM      7  C   UNL     1      47.781   6.884  13.713  0.00  0.00    +0.000 C 
ATOM      8  N   UNL     1      47.335   8.057  14.256  0.00  0.00    +0.000 N 
ATOM      9  O   UNL     1      48.925   6.495  13.913  0.00  0.00    +0.000 OA
ATOM     10  H   UNL     1      46.502   8.529  13.934  0.00  0.00    +0.000 HD
ATOM     11  H   UNL     1      48.016   8.604  14.767  0.00  0.00    +0.000 HD
ENDBRANCH   4   7
BRANCH   1  12
ATOM     12  N   UNL     1      44.270   3.957  10.272  0.00  0.00    +0.000 N 
ATOM     13  H   UNL     1      43.299   4.071  10.559  0.00  0.00    +0.000 HD
BRANCH  12  14
ATOM     14  C   UNL     1      44.430   4.189   8.838  0.00  0.00    +0.000 C 
BRANCH  14  20
ATOM     15  C   UNL     1      47.703   2.587   5.338  0.00  0.00    +0.000 C 
ATOM     16  C   UNL     1      46.875   2.352   6.560  0.00  0.00    +0.000 A 
ATOM     17  C   UNL     1      46.929   1.150   7.256  0.00  0.00    +0.000 A 
ATOM     18  N   UNL     1      46.214   0.887   8.371  0.00  0.00    +0.000 NA
ATOM     19  C   UNL     1      45.406   1.873   8.823  0.00  0.00    +0.000 A 
ATOM     20  C   UNL     1      45.275   3.116   8.212  0.00  0.00    +0.000 A 
ATOM     21  C   UNL     1      46.027   3.348   7.057  0.00  0.00    +0.000 A 
ENDBRANCH  14  20
ENDBRANCH  12  14
ENDBRANCH   1  12
TORSDOF 4
ENDMDL
MODEL 3
REMARK VINA RESULT:    -6.828      1.523      2.116
REMARK INTER + INTRA:          -8.989
REMARK INTER:                  -8.718
REMARK INTRA:                  -0.271
REMARK UNBOUND:                -0.565
REMARK  Name = 
REMARK  5 active torsions:
REMARK  status: ('A' for Active; 'I' for Inactive)
REMARK    1  A    between atoms: C_1  and  C_2
REMARK    2  A    between atoms: C_6  and  C_7
REMARK    3  A    between atoms: C_7  and  N_8
REMARK    4  A    between atoms: N_8  and  C_9
REMARK    5  A    between atoms: C_12  and  C_13
REMARK                            x       y       z     vdW  Elec       q    Type
REMARK                         _______ _______ _______ _____ _____    ______ ____
ROOT
ATOM      1  C   UNL     1      44.792   3.640   9.713  0.00  0.00    +0.000 A 
ATOM      2  C   UNL     1      44.944   2.258   9.538  0.00  0.00    +0.000 A 
ATOM      3  C   UNL     1      45.760   1.740   8.522  0.00  0.00    +0.000 A 
ATOM      4  C   UNL     1      46.404   2.599   7.629  0.00  0.00    +0.000 A 
ATOM      5  C   UNL     1      46.216   3.977   7.755  0.00  0.00    +0.000 A 
ATOM      6  C   UNL     1      45.404   4.484   8.776  0.00  0.00    +0.000 A 
ENDROOT
BRANCH   4   7
ATOM      7  C   UNL     1      47.294   2.022   6.588  0.00  0.00    +0.000 C 
ATOM      8  N   UNL     1      47.989   2.894   5.796  0.00  0.00    +0.000 N 
ATOM      9  O   UNL     1      47.392   0.813   6.425  0.00  0.00    +0.000 OA
ATOM     10  H   UNL     1      47.765   3.876   5.733  0.00  0.00    +0.000 HD
ATOM     11  H   UNL     1      48.526   2.486   5.041  0.00  0.00    +0.000 HD
ENDBRANCH   4   7
BRANCH   1  12
ATOM     12  N   UNL     1      43.940   4.117  10.723  0.00  0.00    +0.000 N 
ATOM     13  H   UNL     1      44.292   3.884  11.650  0.00  0.00    +0.000 HD
BRANCH  12  14
ATOM     14  C   UNL     1      43.529   5.518  10.648  0.00  0.00    +0.000 C 
BRANCH  14  20
ATOM     15  C   UNL     1      45.267  10.060  12.017  0.00  0.00    +0.000 C 
ATOM     16  C   UNL     1      45.279   8.569  12.120  0.00  0.00    +0.000 A 
ATOM     17  C   UNL     1      46.090   7.910  13.037  0.00  0.00    +0.000 A 
ATOM     18  N   UNL     1      46.132   6.568  13.183  0.00  0.00    +0.000 NA
ATOM     19  C   UNL     1      45.323   5.842  12.379  0.00  0.00    +0.000 A 
ATOM     20  C   UNL     1      44.467   6.393  11.431  0.00  0.00    +0.000 A 
ATOM     21  C   UNL     1      44.456   7.785  11.305  0.00  0.00    +0.000 A 
ENDBRANCH  14  20
ENDBRANCH  12  14
ENDBRANCH   1  12
TORSDOF 4
ENDMDL
MODEL 4
REMARK VINA RESULT:    -6.164      3.275      6.783
REMARK INTER + INTRA:          -8.171
REMARK INTER:                  -7.810
REMARK INTRA:                  -0.361
REMARK UNBOUND:                -0.565
REMARK  Name = 
REMARK  5 active torsions:
REMARK  status: ('A' for Active; 'I' for Inactive)
REMARK    1  A    between atoms: C_1  and  C_2
REMARK    2  A    between atoms: C_6  and  C_7
REMARK    3  A    between atoms: C_7  and  N_8
REMARK    4  A    between atoms: N_8  and  C_9
REMARK    5  A    between atoms: C_12  and  C_13
REMARK                            x       y       z     vdW  Elec       q    Type
REMARK                         _______ _______ _______ _____ _____    ______ ____
ROOT
ATOM      1  C   UNL     1      44.898   5.197  10.889  0.00  0.00    +0.000 A 
ATOM      2  C   UNL     1      46.173   5.659  11.241  0.00  0.00    +0.000 A 
ATOM      3  C   UNL     1      46.348   6.907  11.857  0.00  0.00    +0.000 A 
ATOM      4  C   UNL     1      45.250   7.738  12.090  0.00  0.00    +0.000 A 
ATOM      5  C   UNL     1      43.980   7.315  11.693  0.00  0.00    +0.000 A 
ATOM      6  C   UNL     1      43.815   6.065  11.084  0.00  0.00    +0.000 A 
ENDROOT
BRANCH   4   7
ATOM      7  C   UNL     1      45.462   9.036  12.781  0.00  0.00    +0.000 C 
ATOM      8  N   UNL     1      46.369   9.066  13.806  0.00  0.00    +0.000 N 
ATOM      9  O   UNL     1      44.841  10.042  12.465  0.00  0.00    +0.000 OA
ATOM     10  H   UNL     1      46.722   8.232  14.251  0.00  0.00    +0.000 HD
ATOM     11  H   UNL     1      46.441   9.937  14.318  0.00  0.00    +0.000 HD
ENDBRANCH   4   7
BRANCH   1  12
ATOM     12  N   UNL     1      44.769   3.955  10.244  0.00  0.00    +0.000 N 
ATOM     13  H   UNL     1      44.044   3.383  10.676  0.00  0.00    +0.000 HD
BRANCH  12  14
ATOM     14  C   UNL     1      44.639   3.966   8.788  0.00  0.00    +0.000 C 
BRANCH  14  20
ATOM     15  C   UNL     1      46.742  -0.480   7.630  0.00  0.00    +0.000 C 
ATOM     16  C   UNL     1      46.714   1.013   7.557  0.00  0.00    +0.000 A 
ATOM     17  C   UNL     1      47.633   1.722   6.792  0.00  0.00    +0.000 A 
ATOM     18  N   UNL     1      47.647   3.068   6.678  0.00  0.00    +0.000 NA
ATOM     19  C   UNL     1      46.695   3.745   7.357  0.00  0.00    +0.000 A 
ATOM     20  C   UNL     1      45.721   3.143   8.148  0.00  0.00    +0.000 A 
ATOM     21  C   UNL     1      45.744   1.748   8.245  0.00  0.00    +0.000 A 
ENDBRANCH  14  20
ENDBRANCH  12  14
ENDBRANCH   1  12
TORSDOF 4
ENDMDL
MODEL 5
REMARK VINA RESULT:    -6.067      3.232      6.600
REMARK INTER + INTRA:          -8.051
REMARK INTER:                  -7.842
REMARK INTRA:                  -0.209
REMARK UNBOUND:                -0.565
REMARK  Name = 
REMARK  5 active torsions:
REMARK  status: ('A' for Active; 'I' for Inactive)
REMARK    1  A    between atoms: C_1  and  C_2
REMARK    2  A    between atoms: C_6  and  C_7
REMARK    3  A    between atoms: C_7  and  N_8
REMARK    4  A    between atoms: N_8  and  C_9
REMARK    5  A    between atoms: C_12  and  C_13
REMARK                            x       y       z     vdW  Elec       q    Type
REMARK                         _______ _______ _______ _____ _____    ______ ____
ROOT
ATOM      1  C   UNL     1      46.734   5.757  12.786  0.00  0.00    +0.000 A 
ATOM      2  C   UNL     1      46.197   4.528  13.190  0.00  0.00    +0.000 A 
ATOM      3  C   UNL     1      46.469   4.001  14.461  0.00  0.00    +0.000 A 
ATOM      4  C   UNL     1      47.324   4.674  15.336  0.00  0.00    +0.000 A 
ATOM      5  C   UNL     1      47.912   5.872  14.925  0.00  0.00    +0.000 A 
ATOM      6  C   UNL     1      47.630   6.393  13.656  0.00  0.00    +0.000 A 
ENDROOT
BRANCH   4   7
ATOM      7  C   UNL     1      47.560   4.110  16.690  0.00  0.00    +0.000 C 
ATOM      8  N   UNL     1      48.749   4.404  17.299  0.00  0.00    +0.000 N 
ATOM      9  O   UNL     1      46.735   3.392  17.240  0.00  0.00    +0.000 OA
ATOM     10  H   UNL     1      49.542   4.783  16.802  0.00  0.00    +0.000 HD
ATOM     11  H   UNL     1      48.927   3.946  18.185  0.00  0.00    +0.000 HD
ENDBRANCH   4   7
BRANCH   1  12
ATOM     12  N   UNL     1      46.464   6.235  11.492  0.00  0.00    +0.000 N 
ATOM     13  H   UNL     1      47.124   5.863  10.811  0.00  0.00    +0.000 HD
BRANCH  12  14
ATOM     14  C   UNL     1      45.088   6.126  11.011  0.00  0.00    +0.000 C 
BRANCH  14  20
ATOM     15  C   UNL     1      46.292   3.430   6.911  0.00  0.00    +0.000 C 
ATOM     16  C   UNL     1      45.525   3.607   8.182  0.00  0.00    +0.000 A 
ATOM     17  C   UNL     1      44.693   2.609   8.675  0.00  0.00    +0.000 A 
ATOM     18  N   UNL     1      43.987   2.709   9.822  0.00  0.00    +0.000 NA
ATOM     19  C   UNL     1      44.117   3.860  10.519  0.00  0.00    +0.000 A 
ATOM     20  C   UNL     1      44.924   4.923  10.126  0.00  0.00    +0.000 A 
ATOM     21  C   UNL     1      45.634   4.784   8.930  0.00  0.00    +0.000 A 
ENDBRANCH  14  20
ENDBRANCH  12  14
ENDBRANCH   1  12
TORSDOF 4
ENDMDL
MODEL 6
REMARK VINA RESULT:    -5.642      2.842      4.547
REMARK INTER + INTRA:          -7.526
REMARK INTER:                  -7.086
REMARK INTRA:                  -0.440
REMARK UNBOUND:                -0.565
REMARK  Name = 
REMARK  5 active torsions:
REMARK  status: ('A' for Active; 'I' for Inactive)
REMARK    1  A    between atoms: C_1  and  C_2
REMARK    2  A    between atoms: C_6  and  C_7
REMARK    3  A    between atoms: C_7  and  N_8
REMARK    4  A    between atoms: N_8  and  C_9
REMARK    5  A    between atoms: C_12  and  C_13
REMARK                            x       y       z     vdW  Elec       q    Type
REMARK                         _______ _______ _______ _____ _____    ______ ____
ROOT
ATOM      1  C   UNL     1      45.812   5.447  12.594  0.00  0.00    +0.000 A 
ATOM      2  C   UNL     1      45.697   5.961  11.295  0.00  0.00    +0.000 A 
ATOM      3  C   UNL     1      45.242   5.162  10.237  0.00  0.00    +0.000 A 
ATOM      4  C   UNL     1      44.938   3.816  10.450  0.00  0.00    +0.000 A 
ATOM      5  C   UNL     1      45.103   3.275  11.726  0.00  0.00    +0.000 A 
ATOM      6  C   UNL     1      45.552   4.082  12.778  0.00  0.00    +0.000 A 
ENDROOT
BRANCH   4   7
ATOM      7  C   UNL     1      44.420   3.006   9.317  0.00  0.00    +0.000 C 
ATOM      8  N   UNL     1      44.348   3.607   8.090  0.00  0.00    +0.000 N 
ATOM      9  O   UNL     1      44.050   1.849   9.470  0.00  0.00    +0.000 OA
ATOM     10  H   UNL     1      44.413   4.607   7.964  0.00  0.00    +0.000 HD
ATOM     11  H   UNL     1      43.917   3.068   7.349  0.00  0.00    +0.000 HD
ENDBRANCH   4   7
BRANCH   1  12
ATOM     12  N   UNL     1      46.303   6.272  13.620  0.00  0.00    +0.000 N 
ATOM     13  H   UNL     1      45.789   6.133  14.489  0.00  0.00    +0.000 HD
BRANCH  12  14
ATOM     14  C   UNL     1      47.747   6.268  13.852  0.00  0.00    +0.000 C 
BRANCH  14  20
ATOM     15  C   UNL     1      47.351   2.900  17.596  0.00  0.00    +0.000 C 
ATOM     16  C   UNL     1      47.909   4.164  17.027  0.00  0.00    +0.000 A 
ATOM     17  C   UNL     1      48.849   4.920  17.718  0.00  0.00    +0.000 A 
ATOM     18  N   UNL     1      49.397   6.062  17.248  0.00  0.00    +0.000 NA
ATOM     19  C   UNL     1      48.993   6.472  16.025  0.00  0.00    +0.000 A 
ATOM     20  C   UNL     1      48.064   5.795  15.242  0.00  0.00    +0.000 A 
ATOM     21  C   UNL     1      47.516   4.620  15.765  0.00  0.00    +0.000 A 
ENDBRANCH  14  20
ENDBRANCH  12  14
ENDBRANCH   1  12
TORSDOF 4
ENDMDL
MODEL 7
REMARK VINA RESULT:    -5.635      3.779      5.812
REMARK INTER + INTRA:          -7.518
REMARK INTER:                  -7.118
REMARK INTRA:                  -0.400
REMARK UNBOUND:                -0.565
REMARK  Name = 
REMARK  5 active torsions:
REMARK  status: ('A' for Active; 'I' for Inactive)
REMARK    1  A    between atoms: C_1  and  C_2
REMARK    2  A    between atoms: C_6  and  C_7
REMARK    3  A    between atoms: C_7  and  N_8
REMARK    4  A    between atoms: N_8  and  C_9
REMARK    5  A    between atoms: C_12  and  C_13
REMARK                            x       y       z     vdW  Elec       q    Type
REMARK                         _______ _______ _______ _____ _____    ______ ____
ROOT
ATOM      1  C   UNL     1      46.593   4.906  13.979  0.00  0.00    +0.000 A 
ATOM      2  C   UNL     1      46.342   3.567  13.649  0.00  0.00    +0.000 A 
ATOM      3  C   UNL     1      45.619   3.227  12.497  0.00  0.00    +0.000 A 
ATOM      4  C   UNL     1      45.091   4.226  11.676  0.00  0.00    +0.000 A 
ATOM      5  C   UNL     1      45.284   5.564  12.022  0.00  0.00    +0.000 A 
ATOM      6  C   UNL     1      46.012   5.893  13.171  0.00  0.00    +0.000 A 
ENDROOT
BRANCH   4   7
ATOM      7  C   UNL     1      44.364   3.833  10.441  0.00  0.00    +0.000 C 
ATOM      8  N   UNL     1      44.631   2.599   9.914  0.00  0.00    +0.000 N 
ATOM      9  O   UNL     1      43.568   4.587   9.897  0.00  0.00    +0.000 OA
ATOM     10  H   UNL     1      45.435   2.050  10.183  0.00  0.00    +0.000 HD
ATOM     11  H   UNL     1      44.189   2.381   9.030  0.00  0.00    +0.000 HD
ENDBRANCH   4   7
BRANCH   1  12
ATOM     12  N   UNL     1      47.294   5.205  15.159  0.00  0.00    +0.000 N 
ATOM     13  H   UNL     1      47.121   6.162  15.464  0.00  0.00    +0.000 HD
BRANCH  12  14
ATOM     14  C   UNL     1      47.170   4.263  16.271  0.00  0.00    +0.000 C 
BRANCH  14  20
ATOM     15  C   UNL     1      51.665   4.465  18.568  0.00  0.00    +0.000 C 
ATOM     16  C   UNL     1      50.645   3.741  17.750  0.00  0.00    +0.000 A 
ATOM     17  C   UNL     1      50.832   2.421  17.356  0.00  0.00    +0.000 A 
ATOM     18  N   UNL     1      49.940   1.714  16.628  0.00  0.00    +0.000 NA
ATOM     19  C   UNL     1      48.800   2.350  16.276  0.00  0.00    +0.000 A 
ATOM     20  C   UNL     1      48.504   3.666  16.618  0.00  0.00    +0.000 A 
ATOM     21  C   UNL     1      49.454   4.366  17.367  0.00  0.00    +0.000 A 
ENDBRANCH  14  20
ENDBRANCH  12  14
ENDBRANCH   1  12
TORSDOF 4
ENDMDL
MODEL 8
REMARK VINA RESULT:    -5.448      3.346      5.326
REMARK INTER + INTRA:          -7.287
REMARK INTER:                  -6.822
REMARK INTRA:                  -0.465
REMARK UNBOUND:                -0.565
REMARK  Name = 
REMARK  5 active torsions:
REMARK  status: ('A' for Active; 'I' for Inactive)
REMARK    1  A    between atoms: C_1  and  C_2
REMARK    2  A    between atoms: C_6  and  C_7
REMARK    3  A    between atoms: C_7  and  N_8
REMARK    4  A    between atoms: N_8  and  C_9
REMARK    5  A    between atoms: C_12  and  C_13
REMARK                            x       y       z     vdW  Elec       q    Type
REMARK                         _______ _______ _______ _____ _____    ______ ____
ROOT
ATOM      1  C   UNL     1      45.544   6.445  12.823  0.00  0.00    +0.000 A 
ATOM      2  C   UNL     1      44.731   6.490  11.683  0.00  0.00    +0.000 A 
ATOM      3  C   UNL     1      44.218   5.317  11.111  0.00  0.00    +0.000 A 
ATOM      4  C   UNL     1      44.549   4.069  11.645  0.00  0.00    +0.000 A 
ATOM      5  C   UNL     1      45.403   4.006  12.747  0.00  0.00    +0.000 A 
ATOM      6  C   UNL     1      45.906   5.183  13.314  0.00  0.00    +0.000 A 
ENDROOT
BRANCH   4   7
ATOM      7  C   UNL     1      43.956   2.847  11.041  0.00  0.00    +0.000 C 
ATOM      8  N   UNL     1      44.568   2.329   9.932  0.00  0.00    +0.000 N 
ATOM      9  O   UNL     1      42.948   2.328  11.501  0.00  0.00    +0.000 OA
ATOM     10  H   UNL     1      45.243   2.845   9.387  0.00  0.00    +0.000 HD
ATOM     11  H   UNL     1      44.105   1.547   9.487  0.00  0.00    +0.000 HD
ENDBRANCH   4   7
BRANCH   1  12
ATOM     12  N   UNL     1      46.064   7.641  13.346  0.00  0.00    +0.000 N 
ATOM     13  H   UNL     1      46.956   7.487  13.815  0.00  0.00    +0.000 HD
BRANCH  12  14
ATOM     14  C   UNL     1      46.130   8.793  12.448  0.00  0.00    +0.000 C 
BRANCH  14  20
ATOM     15  C   UNL     1      50.855   7.629  11.090  0.00  0.00    +0.000 C 
ATOM     16  C   UNL     1      49.815   8.628  11.482  0.00  0.00    +0.000 A 
ATOM     17  C   UNL     1      50.086   9.991  11.502  0.00  0.00    +0.000 A 
ATOM     18  N   UNL     1      49.183  10.939  11.834  0.00  0.00    +0.000 NA
ATOM     19  C   UNL     1      47.943  10.511  12.160  0.00  0.00    +0.000 A 
ATOM     20  C   UNL     1      47.556   9.174  12.170  0.00  0.00    +0.000 A 
ATOM     21  C   UNL     1      48.521   8.223  11.826  0.00  0.00    +0.000 A 
ENDBRANCH  14  20
ENDBRANCH  12  14
ENDBRANCH   1  12
TORSDOF 4
ENDMDL
MODEL 9
REMARK VINA RESULT:    -5.340      3.728      6.322
REMARK INTER + INTRA:          -7.154
REMARK INTER:                  -6.714
REMARK INTRA:                  -0.440
REMARK UNBOUND:                -0.565
REMARK  Name = 
REMARK  5 active torsions:
REMARK  status: ('A' for Active; 'I' for Inactive)
REMARK    1  A    between atoms: C_1  and  C_2
REMARK    2  A    between atoms: C_6  and  C_7
REMARK    3  A    between atoms: C_7  and  N_8
REMARK    4  A    between atoms: N_8  and  C_9
REMARK    5  A    between atoms: C_12  and  C_13
REMARK                            x       y       z     vdW  Elec       q    Type
REMARK                         _______ _______ _______ _____ _____    ______ ____
ROOT
ATOM      1  C   UNL     1      47.471   6.987  13.108  0.00  0.00    +0.000 A 
ATOM      2  C   UNL     1      47.753   7.380  11.793  0.00  0.00    +0.000 A 
ATOM      3  C   UNL     1      49.035   7.812  11.424  0.00  0.00    +0.000 A 
ATOM      4  C   UNL     1      50.050   7.903  12.378  0.00  0.00    +0.000 A 
ATOM      5  C   UNL     1      49.769   7.568  13.705  0.00  0.00    +0.000 A 
ATOM      6  C   UNL     1      48.488   7.133  14.062  0.00  0.00    +0.000 A 
ENDROOT
BRANCH   4   7
ATOM      7  C   UNL     1      51.408   8.324  11.947  0.00  0.00    +0.000 C 
ATOM      8  N   UNL     1      52.438   8.138  12.829  0.00  0.00    +0.000 N 
ATOM      9  O   UNL     1      51.605   8.838  10.854  0.00  0.00    +0.000 OA
ATOM     10  H   UNL     1      52.293   7.945  13.809  0.00  0.00    +0.000 HD
ATOM     11  H   UNL     1      53.340   8.505  12.552  0.00  0.00    +0.000 HD
ENDBRANCH   4   7
BRANCH   1  12
ATOM     12  N   UNL     1      46.165   6.592  13.445  0.00  0.00    +0.000 N 
ATOM     13  H   UNL     1      45.850   7.038  14.305  0.00  0.00    +0.000 HD
BRANCH  12  14
ATOM     14  C   UNL     1      45.147   6.679  12.399  0.00  0.00    +0.000 C 
BRANCH  14  20
ATOM     15  C   UNL     1      44.498   2.715   9.335  0.00  0.00    +0.000 C 
ATOM     16  C   UNL     1      44.291   3.404  10.645  0.00  0.00    +0.000 A 
ATOM     17  C   UNL     1      43.646   2.775  11.704  0.00  0.00    +0.000 A 
ATOM     18  N   UNL     1      43.443   3.342  12.913  0.00  0.00    +0.000 NA
ATOM     19  C   UNL     1      43.910   4.600  13.080  0.00  0.00    +0.000 A 
ATOM     20  C   UNL     1      44.574   5.324  12.095  0.00  0.00    +0.000 A 
ATOM     21  C   UNL     1      44.759   4.704  10.856  0.00  0.00    +0.000 A 
ENDBRANCH  14  20
ENDBRANCH  12  14
ENDBRANCH   1  12
TORSDOF 4
ENDMDL
