MODEL 1
REMARK VINA RESULT:    -8.054      0.000      0.000
REMARK INTER + INTRA:         -11.312
REMARK INTER:                 -10.408
REMARK INTRA:                  -0.904
REMARK UNBOUND:                -0.904
REMARK  Name = 
REMARK  5 active torsions:
REMARK  status: ('A' for Active; 'I' for Inactive)
REMARK    1  A    between atoms: C_2  and  C_5
REMARK    2  A    between atoms: C_9  and  C_10
REMARK    3  A    between atoms: C_10  and  O_11
REMARK    4  A    between atoms: O_11  and  C_12
REMARK    5  A    between atoms: C_16  and  C_17
REMARK                            x       y       z     vdW  Elec       q    Type
REMARK                         _______ _______ _______ _____ _____    ______ ____
ROOT
ATOM      1  O   UNL     1      44.514   5.322  11.700  0.00  0.00    +0.000 OA
ENDROOT
BRANCH   1   2
ATOM      2  C   UNL     1      45.647   5.521  12.444  0.00  0.00    +0.000 A 
ATOM      3  C   UNL     1      46.569   6.419  11.929  0.00  0.00    +0.000 A 
ATOM      4  C   UNL     1      47.755   6.596  12.618  0.00  0.00    +0.000 A 
ATOM      5  N   UNL     1      48.069   5.948  13.762  0.00  0.00    +0.000 NA
ATOM      6  C   UNL     1      47.148   5.087  14.275  0.00  0.00    +0.000 A 
ATOM      7  C   UNL     1      45.922   4.881  13.647  0.00  0.00    +0.000 A 
BRANCH   6   8
ATOM      8  C   UNL     1      47.510   4.340  15.502  0.00  0.00    +0.000 A 
ATOM      9  C   UNL     1      47.485   4.919  16.769  0.00  0.00    +0.000 A 
ATOM     10  C   UNL     1      47.875   4.166  17.875  0.00  0.00    +0.000 A 
ATOM     11  C   UNL     1      48.285   2.851  17.695  0.00  0.00    +0.000 A 
ATOM     12  C   UNL     1      48.285   2.338  16.413  0.00  0.00    +0.000 A 
ATOM     13  N   UNL     1      47.911   3.045  15.324  0.00  0.00    +0.000 NA
ENDBRANCH   6   8
ENDBRANCH   1   2
BRANCH   1  14
ATOM     14  C   UNL     1      44.677   5.554  10.297  0.00  0.00    +0.000 C 
BRANCH  14  19
ATOM     15  C   UNL     1      45.976   2.945   7.834  0.00  0.00    +0.000 A 
ATOM     16  C   UNL     1      45.367   1.784   8.334  0.00  0.00    +0.000 A 
ATOM     17  C   UNL     1      44.527   1.847   9.446  0.00  0.00    +0.000 A 
ATOM     18  C   UNL     1      44.285   3.069  10.072  0.00  0.00    +0.000 A 
ATOM     19  C   UNL     1      44.877   4.240   9.587  0.00  0.00    +0.000 A 
ATOM     20  C   UNL     1      45.720   4.169   8.467  0.00  0.00    +0.000 A 
BRANCH  15  22
ATOM     21  F   UNL     1      48.222   2.933   6.977  0.00  0.00    +0.000 F 
ATOM     22  C   UNL     1      46.901   2.898   6.644  0.00  0.00    +0.000 C 
ATOM     23  F   UNL     1      46.706   3.943   5.792  0.00  0.00    +0.000 F 
ATOM     24  F   UNL     1      46.734   1.771   5.897  0.00  0.00    +0.000 F 
ENDBRANCH  15  22
ENDBRANCH  14  19
ENDBRANCH   1  14
TORSDOF 5
ENDMDL
MODEL 2
REMARK VINA RESULT:    -7.879      4.348      7.388
REMARK INTER + INTRA:         -11.085
REMARK INTER:                 -10.108
REMARK INTRA:                  -0.977
REMARK UNBOUND:                -0.904
REMARK  Name = 
REMARK  5 active torsions:
REMARK  status: ('A' for Active; 'I' for Inactive)
REMARK    1  A    between atoms: C_2  and  C_5
REMARK    2  A    between atoms: C_9  and  C_10
REMARK    3  A    between atoms: C_10  and  O_11
REMARK    4  A    between atoms: O_11  and  C_12
REMARK    5  A    between atoms: C_16  and  C_17
REMARK                            x       y       z     vdW  Elec       q    Type
REMARK                         _______ _______ _______ _____ _____    ______ ____
ROOT
ATOM      1  O   UNL     1      44.207   6.375  11.466  0.00  0.00    +0.000 OA
ENDROOT
BRANCH   1   2
ATOM      2  C   UNL     1      44.159   5.091  10.992  0.00  0.00    +0.000 A 
ATOM      3  C   UNL     1      43.330   4.215  11.676  0.00  0.00    +0.000 A 
ATOM      4  C   UNL     1      43.307   2.894  11.268  0.00  0.00    +0.000 A 
ATOM      5  N   UNL     1      44.042   2.405  10.243  0.00  0.00    +0.000 NA
ATOM      6  C   UNL     1      44.833   3.277   9.561  0.00  0.00    +0.000 A 
ATOM      7  C   UNL     1      44.885   4.627   9.901  0.00  0.00    +0.000 A 
BRANCH   6   8
ATOM      8  C   UNL     1      45.676   2.734   8.469  0.00  0.00    +0.000 A 
ATOM      9  C   UNL     1      46.069   3.500   7.373  0.00  0.00    +0.000 A 
ATOM     10  C   UNL     1      46.830   2.911   6.364  0.00  0.00    +0.000 A 
ATOM     11  C   UNL     1      47.182   1.572   6.468  0.00  0.00    +0.000 A 
ATOM     12  C   UNL     1      46.761   0.871   7.581  0.00  0.00    +0.000 A 
ATOM     13  N   UNL     1      46.023   1.416   8.573  0.00  0.00    +0.000 NA
ENDBRANCH   6   8
ENDBRANCH   1   2
BRANCH   1  14
ATOM     14  C   UNL     1      44.799   6.507  12.763  0.00  0.00    +0.000 C 
BRANCH  14  19
ATOM     15  C   UNL     1      47.847   8.720  12.150  0.00  0.00    +0.000 A 
ATOM     16  C   UNL     1      48.885   7.837  12.483  0.00  0.00    +0.000 A 
ATOM     17  C   UNL     1      48.603   6.530  12.882  0.00  0.00    +0.000 A 
ATOM     18  C   UNL     1      47.283   6.090  12.955  0.00  0.00    +0.000 A 
ATOM     19  C   UNL     1      46.232   6.951  12.622  0.00  0.00    +0.000 A 
ATOM     20  C   UNL     1      46.523   8.264  12.221  0.00  0.00    +0.000 A 
BRANCH  15  22
ATOM     21  F   UNL     1      47.034  10.793  11.244  0.00  0.00    +0.000 F 
ATOM     22  C   UNL     1      48.127  10.141  11.733  0.00  0.00    +0.000 C 
ATOM     23  F   UNL     1      49.073  10.220  10.756  0.00  0.00    +0.000 F 
ATOM     24  F   UNL     1      48.588  10.907  12.761  0.00  0.00    +0.000 F 
ENDBRANCH  15  22
ENDBRANCH  14  19
ENDBRANCH   1  14
TORSDOF 5
ENDMDL
MODEL 3
REMARK VINA RESULT:    -7.845      4.363      7.241
REMARK INTER + INTRA:         -11.042
REMARK INTER:                 -10.120
REMARK INTRA:                  -0.921
REMARK UNBOUND:                -0.904
REMARK  Name = 
REMARK  5 active torsions:
REMARK  status: ('A' for Active; 'I' for Inactive)
REMARK    1  A    between atoms: C_2  and  C_5
REMARK    2  A    between atoms: C_9  and  C_10
REMARK    3  A    between atoms: C_10  and  O_11
REMARK    4  A    between atoms: O_11  and  C_12
REMARK    5  A    between atoms: C_16  and  C_17
REMARK                            x       y       z     vdW  Elec       q    Type
REMARK                         _______ _______ _______ _____ _____    ______ ____
ROOT
ATOM      1  O   UNL     1      43.975   6.439  11.332  0.00  0.00    +0.000 OA
ENDROOT
BRANCH   1   2
ATOM      2  C   UNL     1      44.005   5.135  10.913  0.00  0.00    +0.000 A 
ATOM      3  C   UNL     1      43.243   4.238  11.646  0.00  0.00    +0.000 A 
ATOM      4  C   UNL     1      43.301   2.901  11.295  0.00  0.00    +0.000 A 
ATOM      5  N   UNL     1      44.055   2.418  10.282  0.00  0.00    +0.000 NA
ATOM      6  C   UNL     1      44.780   3.308   9.552  0.00  0.00    +0.000 A 
ATOM      7  C   UNL     1      44.747   4.672   9.833  0.00  0.00    +0.000 A 
BRANCH   6   8
ATOM      8  C   UNL     1      45.643   2.773   8.472  0.00  0.00    +0.000 A 
ATOM      9  C   UNL     1      46.038   3.541   7.377  0.00  0.00    +0.000 A 
ATOM     10  C   UNL     1      46.820   2.960   6.380  0.00  0.00    +0.000 A 
ATOM     11  C   UNL     1      47.190   1.626   6.493  0.00  0.00    +0.000 A 
ATOM     12  C   UNL     1      46.767   0.924   7.605  0.00  0.00    +0.000 A 
ATOM     13  N   UNL     1      46.009   1.462   8.586  0.00  0.00    +0.000 NA
ENDBRANCH   6   8
ENDBRANCH   1   2
BRANCH   1  14
ATOM     14  C   UNL     1      44.597   6.670  12.601  0.00  0.00    +0.000 C 
BRANCH  14  19
ATOM     15  C   UNL     1      48.040   8.275  12.229  0.00  0.00    +0.000 A 
ATOM     16  C   UNL     1      47.685   9.620  12.045  0.00  0.00    +0.000 A 
ATOM     17  C   UNL     1      46.345  10.008  12.062  0.00  0.00    +0.000 A 
ATOM     18  C   UNL     1      45.344   9.059  12.261  0.00  0.00    +0.000 A 
ATOM     19  C   UNL     1      45.675   7.713  12.453  0.00  0.00    +0.000 A 
ATOM     20  C   UNL     1      47.024   7.330  12.436  0.00  0.00    +0.000 A 
BRANCH  15  22
ATOM     21  F   UNL     1      50.244   8.384  13.181  0.00  0.00    +0.000 F 
ATOM     22  C   UNL     1      49.480   7.830  12.198  0.00  0.00    +0.000 C 
ATOM     23  F   UNL     1      50.097   8.147  11.026  0.00  0.00    +0.000 F 
ATOM     24  F   UNL     1      49.614   6.481  12.336  0.00  0.00    +0.000 F 
ENDBRANCH  15  22
ENDBRANCH  14  19
ENDBRANCH   1  14
TORSDOF 5
ENDMDL
MODEL 4
REMARK VINA RESULT:    -7.574      4.019      7.612
REMARK INTER + INTRA:         -10.691
REMARK INTER:                  -9.841
REMARK INTRA:                  -0.850
REMARK UNBOUND:                -0.904
REMARK  Name = 
REMARK  5 active torsions:
REMARK  status: ('A' for Active; 'I' for Inactive)
REMARK    1  A    between atoms: C_2  and  C_5
REMARK    2  A    between atoms: C_9  and  C_10
REMARK    3  A    between atoms: C_10  and  O_11
REMARK    4  A    between atoms: O_11  and  C_12
REMARK    5  A    between atoms: C_16  and  C_17
REMARK                            x       y       z     vdW  Elec       q    Type
REMARK                         _______ _______ _______ _____ _____    ______ ____
ROOT
ATOM      1  O   UNL     1      44.683   6.055  12.218  0.00  0.00    +0.000 OA
ENDROOT
BRANCH   1   2
ATOM      2  C   UNL     1      44.454   4.889  11.536  0.00  0.00    +0.000 A 
ATOM      3  C   UNL     1      43.504   4.037  12.078  0.00  0.00    +0.000 A 
ATOM      4  C   UNL     1      43.293   2.821  11.454  0.00  0.00    +0.000 A 
ATOM      5  N   UNL     1      43.956   2.414  10.348  0.00  0.00    +0.000 NA
ATOM      6  C   UNL     1      44.868   3.267   9.807  0.00  0.00    +0.000 A 
ATOM      7  C   UNL     1      45.111   4.518  10.369  0.00  0.00    +0.000 A 
BRANCH   6   8
ATOM      8  C   UNL     1      45.629   2.802   8.624  0.00  0.00    +0.000 A 
ATOM      9  C   UNL     1      45.887   3.623   7.527  0.00  0.00    +0.000 A 
ATOM     10  C   UNL     1      46.577   3.106   6.432  0.00  0.00    +0.000 A 
ATOM     11  C   UNL     1      46.995   1.782   6.451  0.00  0.00    +0.000 A 
ATOM     12  C   UNL     1      46.708   1.024   7.570  0.00  0.00    +0.000 A 
ATOM     13  N   UNL     1      46.042   1.499   8.645  0.00  0.00    +0.000 NA
ENDBRANCH   6   8
ENDBRANCH   1   2
BRANCH   1  14
ATOM     14  C   UNL     1      45.919   6.700  11.892  0.00  0.00    +0.000 C 
BRANCH  14  19
ATOM     15  C   UNL     1      47.709   5.397  15.001  0.00  0.00    +0.000 A 
ATOM     16  C   UNL     1      48.672   6.401  15.191  0.00  0.00    +0.000 A 
ATOM     17  C   UNL     1      48.729   7.500  14.333  0.00  0.00    +0.000 A 
ATOM     18  C   UNL     1      47.827   7.610  13.276  0.00  0.00    +0.000 A 
ATOM     19  C   UNL     1      46.854   6.625  13.071  0.00  0.00    +0.000 A 
ATOM     20  C   UNL     1      46.803   5.523  13.939  0.00  0.00    +0.000 A 
BRANCH  15  22
ATOM     21  F   UNL     1      46.532   4.167  16.697  0.00  0.00    +0.000 F 
ATOM     22  C   UNL     1      47.640   4.193  15.905  0.00  0.00    +0.000 C 
ATOM     23  F   UNL     1      48.704   4.118  16.753  0.00  0.00    +0.000 F 
ATOM     24  F   UNL     1      47.631   3.020  15.213  0.00  0.00    +0.000 F 
ENDBRANCH  15  22
ENDBRANCH  14  19
ENDBRANCH   1  14
TORSDOF 5
ENDMDL
MODEL 5
REMARK VINA RESULT:    -7.573      3.742      7.087
REMARK INTER + INTRA:         -10.690
REMARK INTER:                  -9.884
REMARK INTRA:                  -0.807
REMARK UNBOUND:                -0.904
REMARK  Name = 
REMARK  5 active torsions:
REMARK  status: ('A' for Active; 'I' for Inactive)
REMARK    1  A    between atoms: C_2  and  C_5
REMARK    2  A    between atoms: C_9  and  C_10
REMARK    3  A    between atoms: C_10  and  O_11
REMARK    4  A    between atoms: O_11  and  C_12
REMARK    5  A    between atoms: C_16  and  C_17
REMARK                            x       y       z     vdW  Elec       q    Type
REMARK                         _______ _______ _______ _____ _____    ______ ____
ROOT
ATOM      1  O   UNL     1      44.314   6.228  11.954  0.00  0.00    +0.000 OA
ENDROOT
BRANCH   1   2
ATOM      2  C   UNL     1      44.216   5.004  11.346  0.00  0.00    +0.000 A 
ATOM      3  C   UNL     1      43.376   4.083  11.951  0.00  0.00    +0.000 A 
ATOM      4  C   UNL     1      43.303   2.815  11.403  0.00  0.00    +0.000 A 
ATOM      5  N   UNL     1      44.002   2.421  10.315  0.00  0.00    +0.000 NA
ATOM      6  C   UNL     1      44.805   3.338   9.712  0.00  0.00    +0.000 A 
ATOM      7  C   UNL     1      44.905   4.641  10.194  0.00  0.00    +0.000 A 
BRANCH   6   8
ATOM      8  C   UNL     1      45.607   2.894   8.548  0.00  0.00    +0.000 A 
ATOM      9  C   UNL     1      46.081   1.590   8.416  0.00  0.00    +0.000 A 
ATOM     10  C   UNL     1      46.863   1.252   7.312  0.00  0.00    +0.000 A 
ATOM     11  C   UNL     1      47.157   2.223   6.363  0.00  0.00    +0.000 A 
ATOM     12  C   UNL     1      46.654   3.495   6.553  0.00  0.00    +0.000 A 
ATOM     13  N   UNL     1      45.895   3.848   7.613  0.00  0.00    +0.000 NA
ENDBRANCH   6   8
ENDBRANCH   1   2
BRANCH   1  14
ATOM     14  C   UNL     1      45.286   7.104  11.374  0.00  0.00    +0.000 C 
BRANCH  14  19
ATOM     15  C   UNL     1      48.996   7.403  12.216  0.00  0.00    +0.000 A 
ATOM     16  C   UNL     1      49.032   6.783  13.474  0.00  0.00    +0.000 A 
ATOM     17  C   UNL     1      47.870   6.254  14.036  0.00  0.00    +0.000 A 
ATOM     18  C   UNL     1      46.659   6.338  13.351  0.00  0.00    +0.000 A 
ATOM     19  C   UNL     1      46.601   6.947  12.092  0.00  0.00    +0.000 A 
ATOM     20  C   UNL     1      47.774   7.476  11.532  0.00  0.00    +0.000 A 
BRANCH  15  22
ATOM     21  F   UNL     1      50.743   7.255  10.571  0.00  0.00    +0.000 F 
ATOM     22  C   UNL     1      50.236   7.997  11.596  0.00  0.00    +0.000 C 
ATOM     23  F   UNL     1      51.252   8.132  12.493  0.00  0.00    +0.000 F 
ATOM     24  F   UNL     1      50.021   9.241  11.086  0.00  0.00    +0.000 F 
ENDBRANCH  15  22
ENDBRANCH  14  19
ENDBRANCH   1  14
TORSDOF 5
ENDMDL
MODEL 6
REMARK VINA RESULT:    -7.507      4.649      7.696
REMARK INTER + INTRA:         -10.606
REMARK INTER:                  -9.759
REMARK INTRA:                  -0.846
REMARK UNBOUND:                -0.904
REMARK  Name = 
REMARK  5 active torsions:
REMARK  status: ('A' for Active; 'I' for Inactive)
REMARK    1  A    between atoms: C_2  and  C_5
REMARK    2  A    between atoms: C_9  and  C_10
REMARK    3  A    between atoms: C_10  and  O_11
REMARK    4  A    between atoms: O_11  and  C_12
REMARK    5  A    between atoms: C_16  and  C_17
REMARK                            x       y       z     vdW  Elec       q    Type
REMARK                         _______ _______ _______ _____ _____    ______ ____
ROOT
ATOM      1  O   UNL     1      44.662   6.582  11.496  0.00  0.00    +0.000 OA
ENDROOT
BRANCH   1   2
ATOM      2  C   UNL     1      44.454   5.321  11.002  0.00  0.00    +0.000 A 
ATOM      3  C   UNL     1      43.509   4.551  11.661  0.00  0.00    +0.000 A 
ATOM      4  C   UNL     1      43.321   3.250  11.233  0.00  0.00    +0.000 A 
ATOM      5  N   UNL     1      44.001   2.684  10.211  0.00  0.00    +0.000 NA
ATOM      6  C   UNL     1      44.909   3.454   9.552  0.00  0.00    +0.000 A 
ATOM      7  C   UNL     1      45.130   4.782   9.913  0.00  0.00    +0.000 A 
BRANCH   6   8
ATOM      8  C   UNL     1      45.690   2.822   8.463  0.00  0.00    +0.000 A 
ATOM      9  C   UNL     1      46.072   3.512   7.314  0.00  0.00    +0.000 A 
ATOM     10  C   UNL     1      46.774   2.841   6.313  0.00  0.00    +0.000 A 
ATOM     11  C   UNL     1      47.078   1.496   6.478  0.00  0.00    +0.000 A 
ATOM     12  C   UNL     1      46.671   0.873   7.642  0.00  0.00    +0.000 A 
ATOM     13  N   UNL     1      45.992   1.499   8.627  0.00  0.00    +0.000 NA
ENDBRANCH   6   8
ENDBRANCH   1   2
BRANCH   1  14
ATOM     14  C   UNL     1      45.156   6.619  12.839  0.00  0.00    +0.000 C 
BRANCH  14  19
ATOM     15  C   UNL     1      48.751   7.137  14.012  0.00  0.00    +0.000 A 
ATOM     16  C   UNL     1      49.378   7.468  12.801  0.00  0.00    +0.000 A 
ATOM     17  C   UNL     1      48.642   7.543  11.619  0.00  0.00    +0.000 A 
ATOM     18  C   UNL     1      47.272   7.289  11.630  0.00  0.00    +0.000 A 
ATOM     19  C   UNL     1      46.624   6.963  12.827  0.00  0.00    +0.000 A 
ATOM     20  C   UNL     1      47.370   6.890  14.013  0.00  0.00    +0.000 A 
BRANCH  15  22
ATOM     21  F   UNL     1      50.878   6.952  15.117  0.00  0.00    +0.000 F 
ATOM     22  C   UNL     1      49.529   7.034  15.299  0.00  0.00    +0.000 C 
ATOM     23  F   UNL     1      49.187   5.934  16.026  0.00  0.00    +0.000 F 
ATOM     24  F   UNL     1      49.328   8.102  16.120  0.00  0.00    +0.000 F 
ENDBRANCH  15  22
ENDBRANCH  14  19
ENDBRANCH   1  14
TORSDOF 5
ENDMDL
MODEL 7
REMARK VINA RESULT:    -7.279      1.471      1.907
REMARK INTER + INTRA:         -10.311
REMARK INTER:                  -9.370
REMARK INTRA:                  -0.940
REMARK UNBOUND:                -0.904
REMARK  Name = 
REMARK  5 active torsions:
REMARK  status: ('A' for Active; 'I' for Inactive)
REMARK    1  A    between atoms: C_2  and  C_5
REMARK    2  A    between atoms: C_9  and  C_10
REMARK    3  A    between atoms: C_10  and  O_11
REMARK    4  A    between atoms: O_11  and  C_12
REMARK    5  A    between atoms: C_16  and  C_17
REMARK                            x       y       z     vdW  Elec       q    Type
REMARK                         _______ _______ _______ _____ _____    ______ ____
ROOT
ATOM      1  O   UNL     1      46.185   6.995  11.423  0.00  0.00    +0.000 OA
ENDROOT
BRANCH   1   2
ATOM      2  C   UNL     1      47.175   6.907  12.366  0.00  0.00    +0.000 A 
ATOM      3  C   UNL     1      48.357   7.572  12.079  0.00  0.00    +0.000 A 
ATOM      4  C   UNL     1      49.403   7.451  12.976  0.00  0.00    +0.000 A 
ATOM      5  N   UNL     1      49.342   6.724  14.115  0.00  0.00    +0.000 NA
ATOM      6  C   UNL     1      48.170   6.096  14.402  0.00  0.00    +0.000 A 
ATOM      7  C   UNL     1      47.067   6.197  13.556  0.00  0.00    +0.000 A 
BRANCH   6   8
ATOM      8  C   UNL     1      48.117   5.260  15.625  0.00  0.00    +0.000 A 
ATOM      9  C   UNL     1      47.160   4.265  15.813  0.00  0.00    +0.000 A 
ATOM     10  C   UNL     1      47.148   3.544  17.006  0.00  0.00    +0.000 A 
ATOM     11  C   UNL     1      48.088   3.831  17.987  0.00  0.00    +0.000 A 
ATOM     12  C   UNL     1      49.009   4.829  17.736  0.00  0.00    +0.000 A 
ATOM     13  N   UNL     1      49.044   5.543  16.589  0.00  0.00    +0.000 NA
ENDBRANCH   6   8
ENDBRANCH   1   2
BRANCH   1  14
ATOM     14  C   UNL     1      44.934   6.424  11.821  0.00  0.00    +0.000 C 
BRANCH  14  19
ATOM     15  C   UNL     1      45.234   3.673   9.193  0.00  0.00    +0.000 A 
ATOM     16  C   UNL     1      44.412   2.682   9.753  0.00  0.00    +0.000 A 
ATOM     17  C   UNL     1      43.751   2.910  10.960  0.00  0.00    +0.000 A 
ATOM     18  C   UNL     1      43.901   4.127  11.622  0.00  0.00    +0.000 A 
ATOM     19  C   UNL     1      44.710   5.131  11.080  0.00  0.00    +0.000 A 
ATOM     20  C   UNL     1      45.372   4.896   9.865  0.00  0.00    +0.000 A 
BRANCH  15  22
ATOM     21  F   UNL     1      46.732   2.311   7.896  0.00  0.00    +0.000 F 
ATOM     22  C   UNL     1      45.972   3.443   7.899  0.00  0.00    +0.000 C 
ATOM     23  F   UNL     1      46.825   4.462   7.598  0.00  0.00    +0.000 F 
ATOM     24  F   UNL     1      45.133   3.331   6.831  0.00  0.00    +0.000 F 
ENDBRANCH  15  22
ENDBRANCH  14  19
ENDBRANCH   1  14
TORSDOF 5
ENDMDL
MODEL 8
REMARK VINA RESULT:    -6.858      4.706      7.977
REMARK INTER + INTRA:          -9.767
REMARK INTER:                  -9.035
REMARK INTRA:                  -0.732
REMARK UNBOUND:                -0.904
REMARK  Name = 
REMARK  5 active torsions:
REMARK  status: ('A' for Active; 'I' for Inactive)
REMARK    1  A    between atoms: C_2  and  C_5
REMARK    2  A    between atoms: C_9  and  C_10
REMARK    3  A    between atoms: C_10  and  O_11
REMARK    4  A    between atoms: O_11  and  C_12
REMARK    5  A    between atoms: C_16  and  C_17
REMARK                            x       y       z     vdW  Elec       q    Type
REMARK                         _______ _______ _______ _____ _____    ______ ____
ROOT
ATOM      1  O   UNL     1      45.609   6.873  12.767  0.00  0.00    +0.000 OA
ENDROOT
BRANCH   1   2
ATOM      2  C   UNL     1      44.938   6.030  11.921  0.00  0.00    +0.000 A 
ATOM      3  C   UNL     1      43.590   5.843  12.183  0.00  0.00    +0.000 A 
ATOM      4  C   UNL     1      42.895   4.947  11.391  0.00  0.00    +0.000 A 
ATOM      5  N   UNL     1      43.450   4.243  10.379  0.00  0.00    +0.000 NA
ATOM      6  C   UNL     1      44.768   4.451  10.113  0.00  0.00    +0.000 A 
ATOM      7  C   UNL     1      45.522   5.359  10.853  0.00  0.00    +0.000 A 
BRANCH   6   8
ATOM      8  C   UNL     1      45.389   3.644   9.035  0.00  0.00    +0.000 A 
ATOM      9  C   UNL     1      45.460   2.253   9.084  0.00  0.00    +0.000 A 
ATOM     10  C   UNL     1      46.094   1.563   8.052  0.00  0.00    +0.000 A 
ATOM     11  C   UNL     1      46.645   2.274   6.994  0.00  0.00    +0.000 A 
ATOM     12  C   UNL     1      46.538   3.651   7.007  0.00  0.00    +0.000 A 
ATOM     13  N   UNL     1      45.929   4.345   7.993  0.00  0.00    +0.000 NA
ENDBRANCH   6   8
ENDBRANCH   1   2
BRANCH   1  14
ATOM     14  C   UNL     1      47.028   6.687  12.788  0.00  0.00    +0.000 C 
BRANCH  14  19
ATOM     15  C   UNL     1      48.656   5.915  16.153  0.00  0.00    +0.000 A 
ATOM     16  C   UNL     1      48.068   4.677  16.452  0.00  0.00    +0.000 A 
ATOM     17  C   UNL     1      47.168   4.087  15.564  0.00  0.00    +0.000 A 
ATOM     18  C   UNL     1      46.844   4.724  14.368  0.00  0.00    +0.000 A 
ATOM     19  C   UNL     1      47.423   5.957  14.046  0.00  0.00    +0.000 A 
ATOM     20  C   UNL     1      48.328   6.544  14.943  0.00  0.00    +0.000 A 
BRANCH  15  22
ATOM     21  F   UNL     1      49.024   7.057  18.235  0.00  0.00    +0.000 F 
ATOM     22  C   UNL     1      49.617   6.580  17.105  0.00  0.00    +0.000 C 
ATOM     23  F   UNL     1      50.253   7.645  16.542  0.00  0.00    +0.000 F 
ATOM     24  F   UNL     1      50.602   5.738  17.527  0.00  0.00    +0.000 F 
ENDBRANCH  15  22
ENDBRANCH  14  19
ENDBRANCH   1  14
TORSDOF 5
ENDMDL
MODEL 9
REMARK VINA RESULT:    -6.668      3.555      5.422
REMARK INTER + INTRA:          -9.521
REMARK INTER:                  -8.762
REMARK INTRA:                  -0.759
REMARK UNBOUND:                -0.904
REMARK  Name = 
REMARK  5 active torsions:
REMARK  status: ('A' for Active; 'I' for Inactive)
REMARK    1  A    between atoms: C_2  and  C_5
REMARK    2  A    between atoms: C_9  and  C_10
REMARK    3  A    between atoms: C_10  and  O_11
REMARK    4  A    between atoms: O_11  and  C_12
REMARK    5  A    between atoms: C_16  and  C_17
REMARK                            x       y       z     vdW  Elec       q    Type
REMARK                         _______ _______ _______ _____ _____    ______ ____
ROOT
ATOM      1  O   UNL     1      46.617   3.772  15.576  0.00  0.00    +0.000 OA
ENDROOT
BRANCH   1   2
ATOM      2  C   UNL     1      47.517   3.900  16.600  0.00  0.00    +0.000 A 
ATOM      3  C   UNL     1      47.190   4.808  17.595  0.00  0.00    +0.000 A 
ATOM      4  C   UNL     1      48.105   5.014  18.611  0.00  0.00    +0.000 A 
ATOM      5  N   UNL     1      49.298   4.383  18.693  0.00  0.00    +0.000 NA
ATOM      6  C   UNL     1      49.601   3.474  17.727  0.00  0.00    +0.000 A 
ATOM      7  C   UNL     1      48.714   3.198  16.689  0.00  0.00    +0.000 A 
BRANCH   6   8
ATOM      8  C   UNL     1      50.928   2.817  17.789  0.00  0.00    +0.000 A 
ATOM      9  C   UNL     1      51.138   1.507  17.364  0.00  0.00    +0.000 A 
ATOM     10  C   UNL     1      52.406   0.941  17.488  0.00  0.00    +0.000 A 
ATOM     11  C   UNL     1      53.438   1.693  18.034  0.00  0.00    +0.000 A 
ATOM     12  C   UNL     1      53.162   2.986  18.433  0.00  0.00    +0.000 A 
ATOM     13  N   UNL     1      51.944   3.559  18.324  0.00  0.00    +0.000 NA
ENDBRANCH   6   8
ENDBRANCH   1   2
BRANCH   1  14
ATOM     14  C   UNL     1      47.197   3.813  14.267  0.00  0.00    +0.000 C 
BRANCH  14  19
ATOM     15  C   UNL     1      44.487   5.168  11.947  0.00  0.00    +0.000 A 
ATOM     16  C   UNL     1      44.854   6.521  11.875  0.00  0.00    +0.000 A 
ATOM     17  C   UNL     1      45.980   6.986  12.554  0.00  0.00    +0.000 A 
ATOM     18  C   UNL     1      46.753   6.109  13.313  0.00  0.00    +0.000 A 
ATOM     19  C   UNL     1      46.409   4.755  13.395  0.00  0.00    +0.000 A 
ATOM     20  C   UNL     1      45.276   4.293  12.708  0.00  0.00    +0.000 A 
BRANCH  15  22
ATOM     21  F   UNL     1      43.370   4.673   9.877  0.00  0.00    +0.000 F 
ATOM     22  C   UNL     1      43.265   4.646  11.236  0.00  0.00    +0.000 C 
ATOM     23  F   UNL     1      42.144   5.360  11.535  0.00  0.00    +0.000 F 
ATOM     24  F   UNL     1      42.982   3.354  11.562  0.00  0.00    +0.000 F 
ENDBRANCH  15  22
ENDBRANCH  14  19
ENDBRANCH   1  14
TORSDOF 5
ENDMDL
