MODEL 1
REMARK VINA RESULT:    -7.649      0.000      0.000
REMARK INTER + INTRA:          -9.803
REMARK INTER:                 -10.332
REMARK INTRA:                   0.529
REMARK UNBOUND:                 0.529
REMARK  Name = 
REMARK  6 active torsions:
REMARK  status: ('A' for Active; 'I' for Inactive)
REMARK    1  A    between atoms: C_2  and  C_4
REMARK    2  A    between atoms: C_7  and  O_8
REMARK    3  A    between atoms: O_8  and  C_9
REMARK    4  A    between atoms: C_9  and  C_10
REMARK    5  A    between atoms: N_13  and  C_14
REMARK    6  A    between atoms: C_14  and  C_15
REMARK                            x       y       z     vdW  Elec       q    Type
REMARK                         _______ _______ _______ _____ _____    ______ ____
ROOT
ATOM      1  O   UNL     1      43.578   3.825   9.872  0.00  0.00    +0.000 OA
ENDROOT
BRANCH   1   5
ATOM      2  C   UNL     1      46.545   2.488   7.354  0.00  0.00    +0.000 A 
ATOM      3  C   UNL     1      46.033   1.637   8.334  0.00  0.00    +0.000 A 
ATOM      4  C   UNL     1      45.009   2.097   9.159  0.00  0.00    +0.000 A 
ATOM      5  C   UNL     1      44.531   3.385   8.966  0.00  0.00    +0.000 A 
ATOM      6  N   UNL     1      45.005   4.225   8.028  0.00  0.00    +0.000 NA
ATOM      7  C   UNL     1      46.012   3.763   7.248  0.00  0.00    +0.000 A 
BRANCH   2   9
ATOM      8  N   UNL     1      47.860   2.906   5.358  0.00  0.00    +0.000 N 
ATOM      9  C   UNL     1      47.647   2.109   6.445  0.00  0.00    +0.000 C 
ATOM     10  O   UNL     1      48.360   1.144   6.678  0.00  0.00    +0.000 OA
ATOM     11  H   UNL     1      48.688   2.700   4.813  0.00  0.00    +0.000 HD
ATOM     12  H   UNL     1      47.470   3.835   5.278  0.00  0.00    +0.000 HD
ENDBRANCH   2   9
ENDBRANCH   1   5
BRANCH   1  13
ATOM     13  C   UNL     1      44.013   4.142  11.213  0.00  0.00    +0.000 C 
ATOM     14  C   UNL     1      43.445   3.124  12.200  0.00  0.00    +0.000 C 
ATOM     15  C   UNL     1      43.014   4.550  12.278  0.00  0.00    +0.000 C 
BRANCH  13  16
ATOM     16  C   UNL     1      45.466   4.587  11.373  0.00  0.00    +0.000 C 
ATOM     17  C   UNL     1      45.934   4.741  12.828  0.00  0.00    +0.000 C 
ATOM     18  C   UNL     1      45.697   6.126  13.444  0.00  0.00    +0.000 C 
ATOM     19  N   UNL     1      46.153   7.211  12.561  0.00  0.00    +0.000 NA
ATOM     20  C   UNL     1      45.448   7.132  11.272  0.00  0.00    +0.000 C 
ATOM     21  C   UNL     1      45.811   5.835  10.557  0.00  0.00    +0.000 C 
BRANCH  19  22
ATOM     22  C   UNL     1      45.950   8.544  13.164  0.00  0.00    +0.000 C 
BRANCH  22  23
ATOM     23  C   UNL     1      45.614   9.653  12.166  0.00  0.00    +0.000 C 
ATOM     24  F   UNL     1      44.339  10.077  12.401  0.00  0.00    +0.000 F 
ENDBRANCH  22  23
ENDBRANCH  19  22
ENDBRANCH  13  16
ENDBRANCH   1  13
TORSDOF 6
ENDMDL
MODEL 2
REMARK VINA RESULT:    -7.329      1.224      1.303
REMARK INTER + INTRA:          -9.371
REMARK INTER:                  -9.807
REMARK INTRA:                   0.437
REMARK UNBOUND:                 0.529
REMARK  Name = 
REMARK  6 active torsions:
REMARK  status: ('A' for Active; 'I' for Inactive)
REMARK    1  A    between atoms: C_2  and  C_4
REMARK    2  A    between atoms: C_7  and  O_8
REMARK    3  A    between atoms: O_8  and  C_9
REMARK    4  A    between atoms: C_9  and  C_10
REMARK    5  A    between atoms: N_13  and  C_14
REMARK    6  A    between atoms: C_14  and  C_15
REMARK                            x       y       z     vdW  Elec       q    Type
REMARK                         _______ _______ _______ _____ _____    ______ ____
ROOT
ATOM      1  O   UNL     1      43.637   4.088   9.929  0.00  0.00    +0.000 OA
ENDROOT
BRANCH   1   5
ATOM      2  C   UNL     1      46.518   2.538   7.434  0.00  0.00    +0.000 A 
ATOM      3  C   UNL     1      45.913   1.717   8.387  0.00  0.00    +0.000 A 
ATOM      4  C   UNL     1      44.919   2.253   9.203  0.00  0.00    +0.000 A 
ATOM      5  C   UNL     1      44.563   3.582   9.030  0.00  0.00    +0.000 A 
ATOM      6  N   UNL     1      45.129   4.393   8.118  0.00  0.00    +0.000 NA
ATOM      7  C   UNL     1      46.105   3.858   7.346  0.00  0.00    +0.000 A 
BRANCH   2   9
ATOM      8  N   UNL     1      47.853   2.835   5.430  0.00  0.00    +0.000 N 
ATOM      9  C   UNL     1      47.598   2.078   6.536  0.00  0.00    +0.000 C 
ATOM     10  O   UNL     1      48.259   1.082   6.794  0.00  0.00    +0.000 OA
ATOM     11  H   UNL     1      48.669   2.572   4.891  0.00  0.00    +0.000 HD
ATOM     12  H   UNL     1      47.513   3.780   5.326  0.00  0.00    +0.000 HD
ENDBRANCH   2   9
ENDBRANCH   1   5
BRANCH   1  13
ATOM     13  C   UNL     1      44.104   4.465  11.244  0.00  0.00    +0.000 C 
ATOM     14  C   UNL     1      43.422   3.602  12.305  0.00  0.00    +0.000 C 
ATOM     15  C   UNL     1      43.156   5.070  12.260  0.00  0.00    +0.000 C 
BRANCH  13  16
ATOM     16  C   UNL     1      45.598   4.754  11.382  0.00  0.00    +0.000 C 
ATOM     17  C   UNL     1      46.129   4.712  12.822  0.00  0.00    +0.000 C 
ATOM     18  C   UNL     1      46.049   6.041  13.584  0.00  0.00    +0.000 C 
ATOM     19  N   UNL     1      46.576   7.165  12.795  0.00  0.00    +0.000 NA
ATOM     20  C   UNL     1      45.822   7.287  11.537  0.00  0.00    +0.000 C 
ATOM     21  C   UNL     1      46.032   6.043  10.680  0.00  0.00    +0.000 C 
BRANCH  19  22
ATOM     22  C   UNL     1      46.525   8.442  13.536  0.00  0.00    +0.000 C 
BRANCH  22  23
ATOM     23  C   UNL     1      47.883   8.962  14.008  0.00  0.00    +0.000 C 
ATOM     24  F   UNL     1      48.834   8.031  13.708  0.00  0.00    +0.000 F 
ENDBRANCH  22  23
ENDBRANCH  19  22
ENDBRANCH  13  16
ENDBRANCH   1  13
TORSDOF 6
ENDMDL
MODEL 3
REMARK VINA RESULT:    -7.062      2.304      2.790
REMARK INTER + INTRA:          -9.010
REMARK INTER:                  -9.349
REMARK INTRA:                   0.339
REMARK UNBOUND:                 0.529
REMARK  Name = 
REMARK  6 active torsions:
REMARK  status: ('A' for Active; 'I' for Inactive)
REMARK    1  A    between atoms: C_2  and  C_4
REMARK    2  A    between atoms: C_7  and  O_8
REMARK    3  A    between atoms: O_8  and  C_9
REMARK    4  A    between atoms: C_9  and  C_10
REMARK    5  A    between atoms: N_13  and  C_14
REMARK    6  A    between atoms: C_14  and  C_15
REMARK                            x       y       z     vdW  Elec       q    Type
REMARK                         _______ _______ _______ _____ _____    ______ ____
ROOT
ATOM      1  O   UNL     1      43.825   4.231  10.585  0.00  0.00    +0.000 OA
ENDROOT
BRANCH   1   5
ATOM      2  C   UNL     1      46.308   2.742   7.661  0.00  0.00    +0.000 A 
ATOM      3  C   UNL     1      45.667   1.865   8.538  0.00  0.00    +0.000 A 
ATOM      4  C   UNL     1      44.807   2.386   9.503  0.00  0.00    +0.000 A 
ATOM      5  C   UNL     1      44.615   3.759   9.548  0.00  0.00    +0.000 A 
ATOM      6  N   UNL     1      45.219   4.625   8.714  0.00  0.00    +0.000 NA
ATOM      7  C   UNL     1      46.063   4.100   7.794  0.00  0.00    +0.000 A 
BRANCH   2   9
ATOM      8  N   UNL     1      47.259   2.990   5.443  0.00  0.00    +0.000 N 
ATOM      9  C   UNL     1      47.257   2.297   6.619  0.00  0.00    +0.000 C 
ATOM     10  O   UNL     1      48.032   1.373   6.817  0.00  0.00    +0.000 OA
ATOM     11  H   UNL     1      47.992   2.747   4.787  0.00  0.00    +0.000 HD
ATOM     12  H   UNL     1      46.830   3.898   5.344  0.00  0.00    +0.000 HD
ENDBRANCH   2   9
ENDBRANCH   1   5
BRANCH   1  13
ATOM     13  C   UNL     1      44.486   4.751  11.759  0.00  0.00    +0.000 C 
ATOM     14  C   UNL     1      43.677   4.408  13.008  0.00  0.00    +0.000 C 
ATOM     15  C   UNL     1      43.838   5.834  12.600  0.00  0.00    +0.000 C 
BRANCH  13  16
ATOM     16  C   UNL     1      46.007   4.607  11.808  0.00  0.00    +0.000 C 
ATOM     17  C   UNL     1      46.517   3.510  12.754  0.00  0.00    +0.000 C 
ATOM     18  C   UNL     1      46.757   3.960  14.202  0.00  0.00    +0.000 C 
ATOM     19  N   UNL     1      47.533   5.208  14.273  0.00  0.00    +0.000 NA
ATOM     20  C   UNL     1      46.826   6.276  13.549  0.00  0.00    +0.000 C 
ATOM     21  C   UNL     1      46.732   5.929  12.068  0.00  0.00    +0.000 C 
BRANCH  19  22
ATOM     22  C   UNL     1      47.789   5.628  15.666  0.00  0.00    +0.000 C 
BRANCH  22  23
ATOM     23  C   UNL     1      47.888   4.481  16.672  0.00  0.00    +0.000 C 
ATOM     24  F   UNL     1      46.822   4.555  17.521  0.00  0.00    +0.000 F 
ENDBRANCH  22  23
ENDBRANCH  19  22
ENDBRANCH  13  16
ENDBRANCH   1  13
TORSDOF 6
ENDMDL
MODEL 4
REMARK VINA RESULT:    -6.769      2.153      2.565
REMARK INTER + INTRA:          -8.615
REMARK INTER:                  -8.300
REMARK INTRA:                  -0.315
REMARK UNBOUND:                 0.529
REMARK  Name = 
REMARK  6 active torsions:
REMARK  status: ('A' for Active; 'I' for Inactive)
REMARK    1  A    between atoms: C_2  and  C_4
REMARK    2  A    between atoms: C_7  and  O_8
REMARK    3  A    between atoms: O_8  and  C_9
REMARK    4  A    between atoms: C_9  and  C_10
REMARK    5  A    between atoms: N_13  and  C_14
REMARK    6  A    between atoms: C_14  and  C_15
REMARK                            x       y       z     vdW  Elec       q    Type
REMARK                         _______ _______ _______ _____ _____    ______ ____
ROOT
ATOM      1  O   UNL     1      44.235   3.963  11.572  0.00  0.00    +0.000 OA
ENDROOT
BRANCH   1   5
ATOM      2  C   UNL     1      45.945   3.231   7.902  0.00  0.00    +0.000 A 
ATOM      3  C   UNL     1      45.335   2.189   8.601  0.00  0.00    +0.000 A 
ATOM      4  C   UNL     1      44.736   2.462   9.830  0.00  0.00    +0.000 A 
ATOM      5  C   UNL     1      44.761   3.764  10.305  0.00  0.00    +0.000 A 
ATOM      6  N   UNL     1      45.341   4.787   9.650  0.00  0.00    +0.000 NA
ATOM      7  C   UNL     1      45.932   4.497   8.466  0.00  0.00    +0.000 A 
BRANCH   2   9
ATOM      8  N   UNL     1      47.197   1.827   6.370  0.00  0.00    +0.000 N 
ATOM      9  C   UNL     1      46.629   3.046   6.605  0.00  0.00    +0.000 C 
ATOM     10  O   UNL     1      46.654   3.934   5.766  0.00  0.00    +0.000 OA
ATOM     11  H   UNL     1      47.558   1.680   5.435  0.00  0.00    +0.000 HD
ATOM     12  H   UNL     1      46.975   1.007   6.916  0.00  0.00    +0.000 HD
ENDBRANCH   2   9
ENDBRANCH   1   5
BRANCH   1  13
ATOM     13  C   UNL     1      43.833   5.301  11.937  0.00  0.00    +0.000 C 
ATOM     14  C   UNL     1      42.312   5.426  11.868  0.00  0.00    +0.000 C 
ATOM     15  C   UNL     1      43.163   6.214  10.929  0.00  0.00    +0.000 C 
BRANCH  13  16
ATOM     16  C   UNL     1      44.568   5.938  13.116  0.00  0.00    +0.000 C 
ATOM     17  C   UNL     1      45.113   7.348  12.848  0.00  0.00    +0.000 C 
ATOM     18  C   UNL     1      46.526   7.397  12.253  0.00  0.00    +0.000 C 
ATOM     19  N   UNL     1      47.466   6.533  12.985  0.00  0.00    +0.000 NA
ATOM     20  C   UNL     1      46.983   5.143  12.963  0.00  0.00    +0.000 C 
ATOM     21  C   UNL     1      45.656   5.039  13.707  0.00  0.00    +0.000 C 
BRANCH  19  22
ATOM     22  C   UNL     1      48.833   6.599  12.432  0.00  0.00    +0.000 C 
BRANCH  22  23
ATOM     23  C   UNL     1      49.440   8.002  12.393  0.00  0.00    +0.000 C 
ATOM     24  F   UNL     1      49.677   8.336  11.091  0.00  0.00    +0.000 F 
ENDBRANCH  22  23
ENDBRANCH  19  22
ENDBRANCH  13  16
ENDBRANCH   1  13
TORSDOF 6
ENDMDL
MODEL 5
REMARK VINA RESULT:    -6.675      3.122      6.514
REMARK INTER + INTRA:          -8.488
REMARK INTER:                  -8.235
REMARK INTRA:                  -0.253
REMARK UNBOUND:                 0.529
REMARK  Name = 
REMARK  6 active torsions:
REMARK  status: ('A' for Active; 'I' for Inactive)
REMARK    1  A    between atoms: C_2  and  C_4
REMARK    2  A    between atoms: C_7  and  O_8
REMARK    3  A    between atoms: O_8  and  C_9
REMARK    4  A    between atoms: C_9  and  C_10
REMARK    5  A    between atoms: N_13  and  C_14
REMARK    6  A    between atoms: C_14  and  C_15
REMARK                            x       y       z     vdW  Elec       q    Type
REMARK                         _______ _______ _______ _____ _____    ______ ____
ROOT
ATOM      1  O   UNL     1      44.050   5.025  10.866  0.00  0.00    +0.000 OA
ENDROOT
BRANCH   1   5
ATOM      2  C   UNL     1      47.162   6.872  12.824  0.00  0.00    +0.000 A 
ATOM      3  C   UNL     1      47.204   6.731  11.437  0.00  0.00    +0.000 A 
ATOM      4  C   UNL     1      46.127   6.129  10.788  0.00  0.00    +0.000 A 
ATOM      5  C   UNL     1      45.050   5.700  11.549  0.00  0.00    +0.000 A 
ATOM      6  N   UNL     1      44.984   5.826  12.887  0.00  0.00    +0.000 NA
ATOM      7  C   UNL     1      46.047   6.399  13.500  0.00  0.00    +0.000 A 
BRANCH   2   9
ATOM      8  N   UNL     1      48.080   8.752  14.054  0.00  0.00    +0.000 N 
ATOM      9  C   UNL     1      48.259   7.473  13.612  0.00  0.00    +0.000 C 
ATOM     10  O   UNL     1      49.266   6.838  13.887  0.00  0.00    +0.000 OA
ATOM     11  H   UNL     1      48.787   9.105  14.687  0.00  0.00    +0.000 HD
ATOM     12  H   UNL     1      47.176   9.202  14.070  0.00  0.00    +0.000 HD
ENDBRANCH   2   9
ENDBRANCH   1   5
BRANCH   1  13
ATOM     13  C   UNL     1      44.200   3.600  10.679  0.00  0.00    +0.000 C 
ATOM     14  C   UNL     1      43.568   2.852  11.851  0.00  0.00    +0.000 C 
ATOM     15  C   UNL     1      45.042   2.776  11.633  0.00  0.00    +0.000 C 
BRANCH  13  16
ATOM     16  C   UNL     1      43.976   3.070   9.263  0.00  0.00    +0.000 C 
ATOM     17  C   UNL     1      44.513   1.652   9.017  0.00  0.00    +0.000 C 
ATOM     18  C   UNL     1      45.973   1.581   8.552  0.00  0.00    +0.000 C 
ATOM     19  N   UNL     1      46.250   2.515   7.449  0.00  0.00    +0.000 NA
ATOM     20  C   UNL     1      45.948   3.891   7.875  0.00  0.00    +0.000 C 
ATOM     21  C   UNL     1      44.460   4.030   8.174  0.00  0.00    +0.000 C 
BRANCH  19  22
ATOM     22  C   UNL     1      47.649   2.429   6.982  0.00  0.00    +0.000 C 
BRANCH  22  23
ATOM     23  C   UNL     1      47.820   2.485   5.463  0.00  0.00    +0.000 C 
ATOM     24  F   UNL     1      46.608   2.755   4.899  0.00  0.00    +0.000 F 
ENDBRANCH  22  23
ENDBRANCH  19  22
ENDBRANCH  13  16
ENDBRANCH   1  13
TORSDOF 6
ENDMDL
MODEL 6
REMARK VINA RESULT:    -6.360      4.577      7.789
REMARK INTER + INTRA:          -8.061
REMARK INTER:                  -8.451
REMARK INTRA:                   0.389
REMARK UNBOUND:                 0.529
REMARK  Name = 
REMARK  6 active torsions:
REMARK  status: ('A' for Active; 'I' for Inactive)
REMARK    1  A    between atoms: C_2  and  C_4
REMARK    2  A    between atoms: C_7  and  O_8
REMARK    3  A    between atoms: O_8  and  C_9
REMARK    4  A    between atoms: C_9  and  C_10
REMARK    5  A    between atoms: N_13  and  C_14
REMARK    6  A    between atoms: C_14  and  C_15
REMARK                            x       y       z     vdW  Elec       q    Type
REMARK                         _______ _______ _______ _____ _____    ______ ____
ROOT
ATOM      1  O   UNL     1      47.268   5.111  13.377  0.00  0.00    +0.000 OA
ENDROOT
BRANCH   1   5
ATOM      2  C   UNL     1      48.072   4.766  17.397  0.00  0.00    +0.000 A 
ATOM      3  C   UNL     1      48.667   5.789  16.657  0.00  0.00    +0.000 A 
ATOM      4  C   UNL     1      48.360   5.907  15.303  0.00  0.00    +0.000 A 
ATOM      5  C   UNL     1      47.466   5.007  14.745  0.00  0.00    +0.000 A 
ATOM      6  N   UNL     1      46.877   4.013  15.436  0.00  0.00    +0.000 NA
ATOM      7  C   UNL     1      47.201   3.906  16.747  0.00  0.00    +0.000 A 
BRANCH   2   9
ATOM      8  N   UNL     1      48.362   3.242  19.262  0.00  0.00    +0.000 N 
ATOM      9  C   UNL     1      48.347   4.537  18.831  0.00  0.00    +0.000 C 
ATOM     10  O   UNL     1      48.587   5.465  19.589  0.00  0.00    +0.000 OA
ATOM     11  H   UNL     1      48.666   3.097  20.218  0.00  0.00    +0.000 HD
ATOM     12  H   UNL     1      48.427   2.457  18.630  0.00  0.00    +0.000 HD
ENDBRANCH   2   9
ENDBRANCH   1   5
BRANCH   1  13
ATOM     13  C   UNL     1      46.441   6.192  12.891  0.00  0.00    +0.000 C 
ATOM     14  C   UNL     1      47.250   7.085  11.952  0.00  0.00    +0.000 C 
ATOM     15  C   UNL     1      46.756   7.631  13.249  0.00  0.00    +0.000 C 
BRANCH  13  16
ATOM     16  C   UNL     1      45.005   5.836  12.509  0.00  0.00    +0.000 C 
ATOM     17  C   UNL     1      44.542   4.449  12.976  0.00  0.00    +0.000 C 
ATOM     18  C   UNL     1      44.829   3.302  11.998  0.00  0.00    +0.000 C 
ATOM     19  N   UNL     1      44.415   3.629  10.624  0.00  0.00    +0.000 NA
ATOM     20  C   UNL     1      45.118   4.839  10.167  0.00  0.00    +0.000 C 
ATOM     21  C   UNL     1      44.708   6.034  11.020  0.00  0.00    +0.000 C 
BRANCH  19  22
ATOM     22  C   UNL     1      44.665   2.517   9.685  0.00  0.00    +0.000 C 
BRANCH  22  23
ATOM     23  C   UNL     1      45.427   2.909   8.418  0.00  0.00    +0.000 C 
ATOM     24  F   UNL     1      46.416   1.993   8.205  0.00  0.00    +0.000 F 
ENDBRANCH  22  23
ENDBRANCH  19  22
ENDBRANCH  13  16
ENDBRANCH   1  13
TORSDOF 6
ENDMDL
MODEL 7
REMARK VINA RESULT:    -6.146      4.662      7.726
REMARK INTER + INTRA:          -7.773
REMARK INTER:                  -7.062
REMARK INTRA:                  -0.711
REMARK UNBOUND:                 0.529
REMARK  Name = 
REMARK  6 active torsions:
REMARK  status: ('A' for Active; 'I' for Inactive)
REMARK    1  A    between atoms: C_2  and  C_4
REMARK    2  A    between atoms: C_7  and  O_8
REMARK    3  A    between atoms: O_8  and  C_9
REMARK    4  A    between atoms: C_9  and  C_10
REMARK    5  A    between atoms: N_13  and  C_14
REMARK    6  A    between atoms: C_14  and  C_15
REMARK                            x       y       z     vdW  Elec       q    Type
REMARK                         _______ _______ _______ _____ _____    ______ ____
ROOT
ATOM      1  O   UNL     1      49.384   7.292  14.236  0.00  0.00    +0.000 OA
ENDROOT
BRANCH   1   5
ATOM      2  C   UNL     1      48.049   4.447  16.892  0.00  0.00    +0.000 A 
ATOM      3  C   UNL     1      49.099   5.293  17.253  0.00  0.00    +0.000 A 
ATOM      4  C   UNL     1      49.518   6.269  16.351  0.00  0.00    +0.000 A 
ATOM      5  C   UNL     1      48.867   6.368  15.131  0.00  0.00    +0.000 A 
ATOM      6  N   UNL     1      47.851   5.566  14.759  0.00  0.00    +0.000 NA
ATOM      7  C   UNL     1      47.470   4.614  15.643  0.00  0.00    +0.000 A 
BRANCH   2   9
ATOM      8  N   UNL     1      48.296   3.043  18.855  0.00  0.00    +0.000 N 
ATOM      9  C   UNL     1      47.544   3.365  17.762  0.00  0.00    +0.000 C 
ATOM     10  O   UNL     1      46.480   2.807  17.533  0.00  0.00    +0.000 OA
ATOM     11  H   UNL     1      47.879   2.383  19.501  0.00  0.00    +0.000 HD
ATOM     12  H   UNL     1      49.025   3.643  19.211  0.00  0.00    +0.000 HD
ENDBRANCH   2   9
ENDBRANCH   1   5
BRANCH   1  13
ATOM     13  C   UNL     1      48.743   8.584  14.149  0.00  0.00    +0.000 C 
ATOM     14  C   UNL     1      49.631   9.649  14.791  0.00  0.00    +0.000 C 
ATOM     15  C   UNL     1      48.310   9.321  15.402  0.00  0.00    +0.000 C 
BRANCH  13  16
ATOM     16  C   UNL     1      48.039   8.911  12.834  0.00  0.00    +0.000 C 
ATOM     17  C   UNL     1      46.538   9.207  12.965  0.00  0.00    +0.000 C 
ATOM     18  C   UNL     1      45.622   7.980  12.870  0.00  0.00    +0.000 C 
ATOM     19  N   UNL     1      45.955   7.128  11.717  0.00  0.00    +0.000 NA
ATOM     20  C   UNL     1      47.352   6.678  11.818  0.00  0.00    +0.000 C 
ATOM     21  C   UNL     1      48.293   7.875  11.737  0.00  0.00    +0.000 C 
BRANCH  19  22
ATOM     22  C   UNL     1      45.057   5.961  11.607  0.00  0.00    +0.000 C 
BRANCH  22  23
ATOM     23  C   UNL     1      44.372   5.555  12.913  0.00  0.00    +0.000 C 
ATOM     24  F   UNL     1      44.980   4.433  13.392  0.00  0.00    +0.000 F 
ENDBRANCH  22  23
ENDBRANCH  19  22
ENDBRANCH  13  16
ENDBRANCH   1  13
TORSDOF 6
ENDMDL
MODEL 8
REMARK VINA RESULT:    -5.897      4.013      6.457
REMARK INTER + INTRA:          -7.436
REMARK INTER:                  -6.800
REMARK INTRA:                  -0.637
REMARK UNBOUND:                 0.529
REMARK  Name = 
REMARK  6 active torsions:
REMARK  status: ('A' for Active; 'I' for Inactive)
REMARK    1  A    between atoms: C_2  and  C_4
REMARK    2  A    between atoms: C_7  and  O_8
REMARK    3  A    between atoms: O_8  and  C_9
REMARK    4  A    between atoms: C_9  and  C_10
REMARK    5  A    between atoms: N_13  and  C_14
REMARK    6  A    between atoms: C_14  and  C_15
REMARK                            x       y       z     vdW  Elec       q    Type
REMARK                         _______ _______ _______ _____ _____    ______ ____
ROOT
ATOM      1  O   UNL     1      47.347   8.174  13.364  0.00  0.00    +0.000 OA
ENDROOT
BRANCH   1   5
ATOM      2  C   UNL     1      45.352   4.705  12.409  0.00  0.00    +0.000 A 
ATOM      3  C   UNL     1      45.075   5.878  11.707  0.00  0.00    +0.000 A 
ATOM      4  C   UNL     1      45.782   7.037  12.024  0.00  0.00    +0.000 A 
ATOM      5  C   UNL     1      46.741   6.975  13.024  0.00  0.00    +0.000 A 
ATOM      6  N   UNL     1      47.028   5.856  13.715  0.00  0.00    +0.000 NA
ATOM      7  C   UNL     1      46.319   4.746  13.402  0.00  0.00    +0.000 A 
BRANCH   2   9
ATOM      8  N   UNL     1      44.947   2.757  11.021  0.00  0.00    +0.000 N 
ATOM      9  C   UNL     1      44.645   3.430  12.169  0.00  0.00    +0.000 C 
ATOM     10  O   UNL     1      43.851   2.979  12.982  0.00  0.00    +0.000 OA
ATOM     11  H   UNL     1      44.542   1.833  10.929  0.00  0.00    +0.000 HD
ATOM     12  H   UNL     1      45.768   2.961  10.469  0.00  0.00    +0.000 HD
ENDBRANCH   2   9
ENDBRANCH   1   5
BRANCH   1  13
ATOM     13  C   UNL     1      48.740   8.352  13.022  0.00  0.00    +0.000 C 
ATOM     14  C   UNL     1      48.859   9.147  11.723  0.00  0.00    +0.000 C 
ATOM     15  C   UNL     1      49.316   7.727  11.766  0.00  0.00    +0.000 C 
BRANCH  13  16
ATOM     16  C   UNL     1      49.690   8.679  14.172  0.00  0.00    +0.000 C 
ATOM     17  C   UNL     1      50.380   7.460  14.802  0.00  0.00    +0.000 C 
ATOM     18  C   UNL     1      49.608   6.797  15.950  0.00  0.00    +0.000 C 
ATOM     19  N   UNL     1      49.130   7.778  16.937  0.00  0.00    +0.000 NA
ATOM     20  C   UNL     1      48.258   8.763  16.278  0.00  0.00    +0.000 C 
ATOM     21  C   UNL     1      49.054   9.560  15.251  0.00  0.00    +0.000 C 
BRANCH  19  22
ATOM     22  C   UNL     1      48.410   7.139  18.057  0.00  0.00    +0.000 C 
BRANCH  22  23
ATOM     23  C   UNL     1      48.197   5.632  17.904  0.00  0.00    +0.000 C 
ATOM     24  F   UNL     1      46.921   5.333  18.284  0.00  0.00    +0.000 F 
ENDBRANCH  22  23
ENDBRANCH  19  22
ENDBRANCH  13  16
ENDBRANCH   1  13
TORSDOF 6
ENDMDL
MODEL 9
REMARK VINA RESULT:    -5.582      5.169      7.075
REMARK INTER + INTRA:          -7.011
REMARK INTER:                  -7.074
REMARK INTRA:                   0.063
REMARK UNBOUND:                 0.529
REMARK  Name = 
REMARK  6 active torsions:
REMARK  status: ('A' for Active; 'I' for Inactive)
REMARK    1  A    between atoms: C_2  and  C_4
REMARK    2  A    between atoms: C_7  and  O_8
REMARK    3  A    between atoms: O_8  and  C_9
REMARK    4  A    between atoms: C_9  and  C_10
REMARK    5  A    between atoms: N_13  and  C_14
REMARK    6  A    between atoms: C_14  and  C_15
REMARK                            x       y       z     vdW  Elec       q    Type
REMARK                         _______ _______ _______ _____ _____    ______ ____
ROOT
ATOM      1  O   UNL     1      48.042   4.657  14.678  0.00  0.00    +0.000 OA
ENDROOT
BRANCH   1   5
ATOM      2  C   UNL     1      44.529   4.320  12.563  0.00  0.00    +0.000 A 
ATOM      3  C   UNL     1      44.919   5.563  13.063  0.00  0.00    +0.000 A 
ATOM      4  C   UNL     1      46.126   5.663  13.752  0.00  0.00    +0.000 A 
ATOM      5  C   UNL     1      46.899   4.522  13.906  0.00  0.00    +0.000 A 
ATOM      6  N   UNL     1      46.546   3.312  13.431  0.00  0.00    +0.000 NA
ATOM      7  C   UNL     1      45.362   3.233  12.779  0.00  0.00    +0.000 A 
BRANCH   2   9
ATOM      8  N   UNL     1      42.353   5.121  11.847  0.00  0.00    +0.000 N 
ATOM      9  C   UNL     1      43.258   4.099  11.841  0.00  0.00    +0.000 C 
ATOM     10  O   UNL     1      43.044   3.061  11.233  0.00  0.00    +0.000 OA
ATOM     11  H   UNL     1      41.542   4.998  11.253  0.00  0.00    +0.000 HD
ATOM     12  H   UNL     1      42.598   6.065  12.109  0.00  0.00    +0.000 HD
ENDBRANCH   2   9
ENDBRANCH   1   5
BRANCH   1  13
ATOM     13  C   UNL     1      47.898   4.622  16.115  0.00  0.00    +0.000 C 
ATOM     14  C   UNL     1      48.232   3.225  16.638  0.00  0.00    +0.000 C 
ATOM     15  C   UNL     1      46.842   3.752  16.768  0.00  0.00    +0.000 C 
BRANCH  13  16
ATOM     16  C   UNL     1      48.416   5.836  16.884  0.00  0.00    +0.000 C 
ATOM     17  C   UNL     1      48.739   7.058  16.013  0.00  0.00    +0.000 C 
ATOM     18  C   UNL     1      50.170   7.103  15.460  0.00  0.00    +0.000 C 
ATOM     19  N   UNL     1      51.175   6.840  16.502  0.00  0.00    +0.000 NA
ATOM     20  C   UNL     1      50.934   5.519  17.104  0.00  0.00    +0.000 C 
ATOM     21  C   UNL     1      49.586   5.508  17.816  0.00  0.00    +0.000 C 
BRANCH  19  22
ATOM     22  C   UNL     1      52.554   6.909  15.978  0.00  0.00    +0.000 C 
BRANCH  22  23
ATOM     23  C   UNL     1      53.555   5.996  16.688  0.00  0.00    +0.000 C 
ATOM     24  F   UNL     1      54.807   6.511  16.520  0.00  0.00    +0.000 F 
ENDBRANCH  22  23
ENDBRANCH  19  22
ENDBRANCH  13  16
ENDBRANCH   1  13
TORSDOF 6
ENDMDL
