MODEL 1
REMARK VINA RESULT:    -8.502      0.000      0.000
REMARK INTER + INTRA:         -13.500
REMARK INTER:                 -12.229
REMARK INTRA:                  -1.271
REMARK UNBOUND:                -1.271
REMARK  Name = 
REMARK  8 active torsions:
REMARK  status: ('A' for Active; 'I' for Inactive)
REMARK    1  A    between atoms: C_2  and  C_27
REMARK    2  A    between atoms: N_3  and  C_4
REMARK    3  A    between atoms: C_4  and  C_5
REMARK    4  A    between atoms: C_8  and  C_9
REMARK    5  A    between atoms: C_9  and  O_10
REMARK    6  A    between atoms: C_9  and  C_11
REMARK    7  A    between atoms: C_11  and  N_12
REMARK    8  A    between atoms: C_13  and  C_15
REMARK                            x       y       z     vdW  Elec       q    Type
REMARK                         _______ _______ _______ _____ _____    ______ ____
ROOT
ATOM      1  C   UNL     1      47.157   4.537  15.760  0.00  0.00    +0.000 C 
ENDROOT
BRANCH   1   5
ATOM      2  C   UNL     1      45.670   5.259  11.804  0.00  0.00    +0.000 A 
ATOM      3  C   UNL     1      46.630   6.119  12.342  0.00  0.00    +0.000 A 
ATOM      4  C   UNL     1      47.138   5.884  13.620  0.00  0.00    +0.000 A 
ATOM      5  C   UNL     1      46.688   4.776  14.333  0.00  0.00    +0.000 A 
ATOM      6  N   UNL     1      45.751   3.934  13.828  0.00  0.00    +0.000 NA
ATOM      7  C   UNL     1      45.281   4.179  12.583  0.00  0.00    +0.000 A 
BRANCH   2   8
ATOM      8  C   UNL     1      45.079   5.486  10.444  0.00  0.00    +0.000 C 
BRANCH   8  11
ATOM      9  O   UNL     1      44.258   3.009   9.477  0.00  0.00    +0.000 OA
ATOM     10  C   UNL     1      45.268   3.519   9.005  0.00  0.00    +0.000 C 
ATOM     11  N   UNL     1      45.770   4.735   9.421  0.00  0.00    +0.000 N 
ATOM     12  H   UNL     1      46.460   5.212   8.857  0.00  0.00    +0.000 HD
BRANCH  10  13
ATOM     13  C   UNL     1      45.995   2.850   7.895  0.00  0.00    +0.000 A 
ATOM     14  C   UNL     1      46.379   1.519   8.055  0.00  0.00    +0.000 A 
ATOM     15  C   UNL     1      47.047   0.908   7.010  0.00  0.00    +0.000 A 
ATOM     16  N   UNL     1      47.357   1.533   5.854  0.00  0.00    +0.000 NA
ATOM     17  C   UNL     1      46.998   2.830   5.739  0.00  0.00    +0.000 A 
ATOM     18  C   UNL     1      46.322   3.530   6.722  0.00  0.00    +0.000 A 
ENDBRANCH  10  13
ENDBRANCH   8  11
ENDBRANCH   2   8
ENDBRANCH   1   5
BRANCH   1  19
ATOM     19  O   UNL     1      47.647   3.193  15.864  0.00  0.00    +0.000 OA
ATOM     20  H   UNL     1      48.094   3.007  15.017  0.00  0.00    +0.000 HD
ENDBRANCH   1  19
BRANCH   1  21
ATOM     21  C   UNL     1      48.273   5.518  16.163  0.00  0.00    +0.000 C 
BRANCH  21  22
ATOM     22  N   UNL     1      49.495   4.862  16.609  0.00  0.00    +0.000 N 
ATOM     23  C   UNL     1      49.731   4.731  17.959  0.00  0.00    +0.000 C 
ATOM     24  O   UNL     1      48.890   5.061  18.793  0.00  0.00    +0.000 OA
ATOM     25  H   UNL     1      50.290   4.887  15.971  0.00  0.00    +0.000 HD
BRANCH  23  26
ATOM     26  C   UNL     1      51.001   4.126  18.374  0.00  0.00    +0.000 A 
ATOM     27  C   UNL     1      51.855   4.851  19.196  0.00  0.00    +0.000 A 
ATOM     28  S   UNL     1      53.282   4.016  19.610  0.00  0.00    +0.000 S 
ATOM     29  C   UNL     1      52.831   2.675  18.668  0.00  0.00    +0.000 A 
ATOM     30  N   UNL     1      53.649   1.594  18.559  0.00  0.00    +0.000 NA
ATOM     31  C   UNL     1      53.199   0.661  17.787  0.00  0.00    +0.000 A 
ATOM     32  N   UNL     1      52.000   0.707  17.124  0.00  0.00    +0.000 N 
ATOM     33  C   UNL     1      51.127   1.765  17.229  0.00  0.00    +0.000 A 
ATOM     34  O   UNL     1      50.041   1.761  16.659  0.00  0.00    +0.000 OA
ATOM     35  C   UNL     1      51.596   2.850  18.067  0.00  0.00    +0.000 A 
ATOM     36  H   UNL     1      51.701  -0.063  16.544  0.00  0.00    +0.000 HD
ENDBRANCH  23  26
ENDBRANCH  21  22
ENDBRANCH   1  21
TORSDOF 8
ENDMDL
MODEL 2
REMARK VINA RESULT:    -8.486      2.935      3.781
REMARK INTER + INTRA:         -13.478
REMARK INTER:                 -12.312
REMARK INTRA:                  -1.166
REMARK UNBOUND:                -1.271
REMARK  Name = 
REMARK  8 active torsions:
REMARK  status: ('A' for Active; 'I' for Inactive)
REMARK    1  A    between atoms: C_2  and  C_27
REMARK    2  A    between atoms: N_3  and  C_4
REMARK    3  A    between atoms: C_4  and  C_5
REMARK    4  A    between atoms: C_8  and  C_9
REMARK    5  A    between atoms: C_9  and  O_10
REMARK    6  A    between atoms: C_9  and  C_11
REMARK    7  A    between atoms: C_11  and  N_12
REMARK    8  A    between atoms: C_13  and  C_15
REMARK                            x       y       z     vdW  Elec       q    Type
REMARK                         _______ _______ _______ _____ _____    ______ ____
ROOT
ATOM      1  C   UNL     1      46.104   8.713  12.585  0.00  0.00    +0.000 C 
ENDROOT
BRANCH   1   5
ATOM      2  C   UNL     1      44.517   4.911  11.397  0.00  0.00    +0.000 A 
ATOM      3  C   UNL     1      43.744   6.061  11.219  0.00  0.00    +0.000 A 
ATOM      4  C   UNL     1      44.256   7.307  11.582  0.00  0.00    +0.000 A 
ATOM      5  C   UNL     1      45.546   7.383  12.101  0.00  0.00    +0.000 A 
ATOM      6  N   UNL     1      46.308   6.276  12.286  0.00  0.00    +0.000 NA
ATOM      7  C   UNL     1      45.791   5.080  11.919  0.00  0.00    +0.000 A 
BRANCH   2   8
ATOM      8  C   UNL     1      43.999   3.549  11.043  0.00  0.00    +0.000 C 
BRANCH   8  11
ATOM      9  O   UNL     1      44.382   4.276   8.385  0.00  0.00    +0.000 OA
ATOM     10  C   UNL     1      44.999   3.313   8.825  0.00  0.00    +0.000 C 
ATOM     11  N   UNL     1      44.873   2.860  10.122  0.00  0.00    +0.000 N 
ATOM     12  H   UNL     1      45.558   2.217  10.497  0.00  0.00    +0.000 HD
BRANCH  10  13
ATOM     13  C   UNL     1      45.976   2.595   7.967  0.00  0.00    +0.000 A 
ATOM     14  C   UNL     1      46.134   1.220   8.140  0.00  0.00    +0.000 A 
ATOM     15  C   UNL     1      47.041   0.566   7.328  0.00  0.00    +0.000 A 
ATOM     16  N   UNL     1      47.787   1.186   6.388  0.00  0.00    +0.000 NA
ATOM     17  C   UNL     1      47.634   2.522   6.263  0.00  0.00    +0.000 A 
ATOM     18  C   UNL     1      46.750   3.268   7.022  0.00  0.00    +0.000 A 
ENDBRANCH  10  13
ENDBRANCH   8  11
ENDBRANCH   2   8
ENDBRANCH   1   5
BRANCH   1  19
ATOM     19  O   UNL     1      45.293   9.186  13.669  0.00  0.00    +0.000 OA
ATOM     20  H   UNL     1      44.663   9.818  13.272  0.00  0.00    +0.000 HD
ENDBRANCH   1  19
BRANCH   1  21
ATOM     21  C   UNL     1      47.562   8.577  13.062  0.00  0.00    +0.000 C 
BRANCH  21  22
ATOM     22  N   UNL     1      47.687   8.050  14.414  0.00  0.00    +0.000 N 
ATOM     23  C   UNL     1      48.590   7.040  14.659  0.00  0.00    +0.000 C 
ATOM     24  O   UNL     1      49.364   6.645  13.788  0.00  0.00    +0.000 OA
ATOM     25  H   UNL     1      46.871   8.137  15.020  0.00  0.00    +0.000 HD
BRANCH  23  26
ATOM     26  C   UNL     1      48.643   6.486  16.016  0.00  0.00    +0.000 A 
ATOM     27  C   UNL     1      49.194   7.253  17.035  0.00  0.00    +0.000 A 
ATOM     28  S   UNL     1      49.172   6.489  18.558  0.00  0.00    +0.000 S 
ATOM     29  C   UNL     1      48.469   5.087  17.901  0.00  0.00    +0.000 A 
ATOM     30  N   UNL     1      48.212   4.005  18.684  0.00  0.00    +0.000 NA
ATOM     31  C   UNL     1      47.708   2.998  18.052  0.00  0.00    +0.000 A 
ATOM     32  N   UNL     1      47.428   2.980  16.710  0.00  0.00    +0.000 N 
ATOM     33  C   UNL     1      47.643   4.060  15.886  0.00  0.00    +0.000 A 
ATOM     34  O   UNL     1      47.342   4.031  14.696  0.00  0.00    +0.000 OA
ATOM     35  C   UNL     1      48.229   5.210  16.544  0.00  0.00    +0.000 A 
ATOM     36  H   UNL     1      47.023   2.162  16.278  0.00  0.00    +0.000 HD
ENDBRANCH  23  26
ENDBRANCH  21  22
ENDBRANCH   1  21
TORSDOF 8
ENDMDL
MODEL 3
REMARK VINA RESULT:    -7.983      2.532      3.467
REMARK INTER + INTRA:         -12.754
REMARK INTER:                 -11.308
REMARK INTRA:                  -1.446
REMARK UNBOUND:                -1.271
REMARK  Name = 
REMARK  8 active torsions:
REMARK  status: ('A' for Active; 'I' for Inactive)
REMARK    1  A    between atoms: C_2  and  C_27
REMARK    2  A    between atoms: N_3  and  C_4
REMARK    3  A    between atoms: C_4  and  C_5
REMARK    4  A    between atoms: C_8  and  C_9
REMARK    5  A    between atoms: C_9  and  O_10
REMARK    6  A    between atoms: C_9  and  C_11
REMARK    7  A    between atoms: C_11  and  N_12
REMARK    8  A    between atoms: C_13  and  C_15
REMARK                            x       y       z     vdW  Elec       q    Type
REMARK                         _______ _______ _______ _____ _____    ______ ____
ROOT
ATOM      1  C   UNL     1      47.837   9.051  13.611  0.00  0.00    +0.000 C 
ENDROOT
BRANCH   1   5
ATOM      2  C   UNL     1      45.368   6.373  11.350  0.00  0.00    +0.000 A 
ATOM      3  C   UNL     1      44.780   7.455  12.008  0.00  0.00    +0.000 A 
ATOM      4  C   UNL     1      45.573   8.347  12.730  0.00  0.00    +0.000 A 
ATOM      5  C   UNL     1      46.951   8.148  12.766  0.00  0.00    +0.000 A 
ATOM      6  N   UNL     1      47.539   7.099  12.138  0.00  0.00    +0.000 NA
ATOM      7  C   UNL     1      46.748   6.254  11.437  0.00  0.00    +0.000 A 
BRANCH   2   8
ATOM      8  C   UNL     1      44.552   5.377  10.581  0.00  0.00    +0.000 C 
BRANCH   8  11
ATOM      9  O   UNL     1      43.935   2.829   9.649  0.00  0.00    +0.000 OA
ATOM     10  C   UNL     1      44.948   3.378   9.231  0.00  0.00    +0.000 C 
ATOM     11  N   UNL     1      45.353   4.632   9.638  0.00  0.00    +0.000 N 
ATOM     12  H   UNL     1      46.057   5.129   9.107  0.00  0.00    +0.000 HD
BRANCH  10  13
ATOM     13  C   UNL     1      45.788   2.715   8.201  0.00  0.00    +0.000 A 
ATOM     14  C   UNL     1      46.183   3.451   7.084  0.00  0.00    +0.000 A 
ATOM     15  C   UNL     1      46.970   2.822   6.139  0.00  0.00    +0.000 A 
ATOM     16  N   UNL     1      47.366   1.534   6.233  0.00  0.00    +0.000 NA
ATOM     17  C   UNL     1      46.945   0.837   7.310  0.00  0.00    +0.000 A 
ATOM     18  C   UNL     1      46.160   1.375   8.314  0.00  0.00    +0.000 A 
ENDBRANCH  10  13
ENDBRANCH   8  11
ENDBRANCH   2   8
ENDBRANCH   1   5
BRANCH   1  19
ATOM     19  O   UNL     1      47.210   9.249  14.886  0.00  0.00    +0.000 OA
ATOM     20  H   UNL     1      47.696   8.679  15.512  0.00  0.00    +0.000 HD
ENDBRANCH   1  19
BRANCH   1  21
ATOM     21  C   UNL     1      49.235   8.439  13.821  0.00  0.00    +0.000 C 
BRANCH  21  22
ATOM     22  N   UNL     1      49.239   7.285  14.710  0.00  0.00    +0.000 N 
ATOM     23  C   UNL     1      49.505   7.471  16.048  0.00  0.00    +0.000 C 
ATOM     24  O   UNL     1      49.634   8.596  16.528  0.00  0.00    +0.000 OA
ATOM     25  H   UNL     1      49.449   6.380  14.289  0.00  0.00    +0.000 HD
BRANCH  23  26
ATOM     26  C   UNL     1      49.568   6.280  16.903  0.00  0.00    +0.000 A 
ATOM     27  C   UNL     1      50.541   6.213  17.893  0.00  0.00    +0.000 A 
ATOM     28  S   UNL     1      50.482   4.782  18.817  0.00  0.00    +0.000 S 
ATOM     29  C   UNL     1      49.185   4.181  17.896  0.00  0.00    +0.000 A 
ATOM     30  N   UNL     1      48.663   2.951  18.151  0.00  0.00    +0.000 NA
ATOM     31  C   UNL     1      47.705   2.605  17.357  0.00  0.00    +0.000 A 
ATOM     32  N   UNL     1      47.215   3.382  16.339  0.00  0.00    +0.000 N 
ATOM     33  C   UNL     1      47.692   4.643  16.065  0.00  0.00    +0.000 A 
ATOM     34  O   UNL     1      47.206   5.335  15.176  0.00  0.00    +0.000 OA
ATOM     35  C   UNL     1      48.784   5.071  16.915  0.00  0.00    +0.000 A 
ATOM     36  H   UNL     1      46.455   3.056  15.760  0.00  0.00    +0.000 HD
ENDBRANCH  23  26
ENDBRANCH  21  22
ENDBRANCH   1  21
TORSDOF 8
ENDMDL
MODEL 4
REMARK VINA RESULT:    -7.911      3.277      4.646
REMARK INTER + INTRA:         -12.650
REMARK INTER:                 -11.807
REMARK INTRA:                  -0.843
REMARK UNBOUND:                -1.271
REMARK  Name = 
REMARK  8 active torsions:
REMARK  status: ('A' for Active; 'I' for Inactive)
REMARK    1  A    between atoms: C_2  and  C_27
REMARK    2  A    between atoms: N_3  and  C_4
REMARK    3  A    between atoms: C_4  and  C_5
REMARK    4  A    between atoms: C_8  and  C_9
REMARK    5  A    between atoms: C_9  and  O_10
REMARK    6  A    between atoms: C_9  and  C_11
REMARK    7  A    between atoms: C_11  and  N_12
REMARK    8  A    between atoms: C_13  and  C_15
REMARK                            x       y       z     vdW  Elec       q    Type
REMARK                         _______ _______ _______ _____ _____    ______ ____
ROOT
ATOM      1  C   UNL     1      45.751   8.992  12.206  0.00  0.00    +0.000 C 
ENDROOT
BRANCH   1   5
ATOM      2  C   UNL     1      44.512   4.965  11.412  0.00  0.00    +0.000 A 
ATOM      3  C   UNL     1      45.809   5.204  11.873  0.00  0.00    +0.000 A 
ATOM      4  C   UNL     1      46.219   6.507  12.156  0.00  0.00    +0.000 A 
ATOM      5  C   UNL     1      45.313   7.551  11.988  0.00  0.00    +0.000 A 
ATOM      6  N   UNL     1      44.052   7.338  11.536  0.00  0.00    +0.000 NA
ATOM      7  C   UNL     1      43.677   6.064  11.278  0.00  0.00    +0.000 A 
BRANCH   2   8
ATOM      8  C   UNL     1      44.035   3.584  11.074  0.00  0.00    +0.000 C 
BRANCH   8  11
ATOM      9  O   UNL     1      44.240   3.998   8.330  0.00  0.00    +0.000 OA
ATOM     10  C   UNL     1      44.986   3.181   8.859  0.00  0.00    +0.000 C 
ATOM     11  N   UNL     1      44.958   2.890  10.206  0.00  0.00    +0.000 N 
ATOM     12  H   UNL     1      45.730   2.388  10.627  0.00  0.00    +0.000 HD
BRANCH  10  13
ATOM     13  C   UNL     1      46.017   2.479   8.052  0.00  0.00    +0.000 A 
ATOM     14  C   UNL     1      46.840   3.234   7.215  0.00  0.00    +0.000 A 
ATOM     15  C   UNL     1      47.799   2.566   6.477  0.00  0.00    +0.000 A 
ATOM     16  N   UNL     1      47.974   1.228   6.515  0.00  0.00    +0.000 NA
ATOM     17  C   UNL     1      47.145   0.520   7.312  0.00  0.00    +0.000 A 
ATOM     18  C   UNL     1      46.157   1.092   8.094  0.00  0.00    +0.000 A 
ENDBRANCH  10  13
ENDBRANCH   8  11
ENDBRANCH   2   8
ENDBRANCH   1   5
BRANCH   1  19
ATOM     19  O   UNL     1      44.797   9.639  13.059  0.00  0.00    +0.000 OA
ATOM     20  H   UNL     1      45.134   9.526  13.968  0.00  0.00    +0.000 HD
ENDBRANCH   1  19
BRANCH   1  21
ATOM     21  C   UNL     1      47.147   9.070  12.853  0.00  0.00    +0.000 C 
BRANCH  21  22
ATOM     22  N   UNL     1      47.134   8.867  14.296  0.00  0.00    +0.000 N 
ATOM     23  C   UNL     1      48.274   9.134  15.020  0.00  0.00    +0.000 C 
ATOM     24  O   UNL     1      49.266   9.636  14.494  0.00  0.00    +0.000 OA
ATOM     25  H   UNL     1      46.469   8.184  14.659  0.00  0.00    +0.000 HD
BRANCH  23  26
ATOM     26  C   UNL     1      48.249   8.855  16.460  0.00  0.00    +0.000 A 
ATOM     27  C   UNL     1      47.888   9.872  17.336  0.00  0.00    +0.000 A 
ATOM     28  S   UNL     1      47.886   9.398  18.973  0.00  0.00    +0.000 S 
ATOM     29  C   UNL     1      48.413   7.832  18.573  0.00  0.00    +0.000 A 
ATOM     30  N   UNL     1      48.649   6.909  19.544  0.00  0.00    +0.000 NA
ATOM     31  C   UNL     1      49.075   5.772  19.104  0.00  0.00    +0.000 A 
ATOM     32  N   UNL     1      49.277   5.472  17.781  0.00  0.00    +0.000 N 
ATOM     33  C   UNL     1      49.022   6.363  16.765  0.00  0.00    +0.000 A 
ATOM     34  O   UNL     1      49.170   6.054  15.587  0.00  0.00    +0.000 OA
ATOM     35  C   UNL     1      48.562   7.664  17.208  0.00  0.00    +0.000 A 
ATOM     36  H   UNL     1      49.602   4.558  17.503  0.00  0.00    +0.000 HD
ENDBRANCH  23  26
ENDBRANCH  21  22
ENDBRANCH   1  21
TORSDOF 8
ENDMDL
MODEL 5
REMARK VINA RESULT:    -7.898      3.167      4.590
REMARK INTER + INTRA:         -12.631
REMARK INTER:                 -11.500
REMARK INTRA:                  -1.131
REMARK UNBOUND:                -1.271
REMARK  Name = 
REMARK  8 active torsions:
REMARK  status: ('A' for Active; 'I' for Inactive)
REMARK    1  A    between atoms: C_2  and  C_27
REMARK    2  A    between atoms: N_3  and  C_4
REMARK    3  A    between atoms: C_4  and  C_5
REMARK    4  A    between atoms: C_8  and  C_9
REMARK    5  A    between atoms: C_9  and  O_10
REMARK    6  A    between atoms: C_9  and  C_11
REMARK    7  A    between atoms: C_11  and  N_12
REMARK    8  A    between atoms: C_13  and  C_15
REMARK                            x       y       z     vdW  Elec       q    Type
REMARK                         _______ _______ _______ _____ _____    ______ ____
ROOT
ATOM      1  C   UNL     1      47.642   7.897  13.509  0.00  0.00    +0.000 C 
ENDROOT
BRANCH   1   5
ATOM      2  C   UNL     1      44.907   5.392  11.357  0.00  0.00    +0.000 A 
ATOM      3  C   UNL     1      45.839   4.807  12.218  0.00  0.00    +0.000 A 
ATOM      4  C   UNL     1      46.721   5.611  12.941  0.00  0.00    +0.000 A 
ATOM      5  C   UNL     1      46.642   6.994  12.802  0.00  0.00    +0.000 A 
ATOM      6  N   UNL     1      45.748   7.579  11.966  0.00  0.00    +0.000 NA
ATOM      7  C   UNL     1      44.898   6.777  11.283  0.00  0.00    +0.000 A 
BRANCH   2   8
ATOM      8  C   UNL     1      43.956   4.566  10.543  0.00  0.00    +0.000 C 
BRANCH   8  11
ATOM      9  O   UNL     1      45.580   5.171   8.367  0.00  0.00    +0.000 OA
ATOM     10  C   UNL     1      45.436   3.996   8.684  0.00  0.00    +0.000 C 
ATOM     11  N   UNL     1      44.643   3.586   9.736  0.00  0.00    +0.000 N 
ATOM     12  H   UNL     1      44.734   2.644  10.095  0.00  0.00    +0.000 HD
BRANCH  10  13
ATOM     13  C   UNL     1      46.169   2.929   7.954  0.00  0.00    +0.000 A 
ATOM     14  C   UNL     1      46.936   3.284   6.845  0.00  0.00    +0.000 A 
ATOM     15  C   UNL     1      47.618   2.281   6.182  0.00  0.00    +0.000 A 
ATOM     16  N   UNL     1      47.571   0.981   6.542  0.00  0.00    +0.000 NA
ATOM     17  C   UNL     1      46.798   0.662   7.602  0.00  0.00    +0.000 A 
ATOM     18  C   UNL     1      46.081   1.591   8.336  0.00  0.00    +0.000 A 
ENDBRANCH  10  13
ENDBRANCH   8  11
ENDBRANCH   2   8
ENDBRANCH   1   5
BRANCH   1  19
ATOM     19  O   UNL     1      46.962   8.606  14.554  0.00  0.00    +0.000 OA
ATOM     20  H   UNL     1      46.323   7.973  14.933  0.00  0.00    +0.000 HD
ENDBRANCH   1  19
BRANCH   1  21
ATOM     21  C   UNL     1      48.805   7.090  14.115  0.00  0.00    +0.000 C 
BRANCH  21  22
ATOM     22  N   UNL     1      48.916   7.221  15.562  0.00  0.00    +0.000 N 
ATOM     23  C   UNL     1      48.594   6.146  16.359  0.00  0.00    +0.000 C 
ATOM     24  O   UNL     1      48.316   5.049  15.876  0.00  0.00    +0.000 OA
ATOM     25  H   UNL     1      48.829   8.162  15.947  0.00  0.00    +0.000 HD
BRANCH  23  26
ATOM     26  C   UNL     1      48.651   6.332  17.812  0.00  0.00    +0.000 A 
ATOM     27  C   UNL     1      49.027   5.262  18.614  0.00  0.00    +0.000 A 
ATOM     28  S   UNL     1      49.066   5.630  20.278  0.00  0.00    +0.000 S 
ATOM     29  C   UNL     1      48.536   7.220  19.990  0.00  0.00    +0.000 A 
ATOM     30  N   UNL     1      48.325   8.080  21.021  0.00  0.00    +0.000 NA
ATOM     31  C   UNL     1      47.893   9.244  20.664  0.00  0.00    +0.000 A 
ATOM     32  N   UNL     1      47.664   9.627  19.368  0.00  0.00    +0.000 N 
ATOM     33  C   UNL     1      47.893   8.802  18.292  0.00  0.00    +0.000 A 
ATOM     34  O   UNL     1      47.721   9.186  17.139  0.00  0.00    +0.000 OA
ATOM     35  C   UNL     1      48.359   7.475  18.641  0.00  0.00    +0.000 A 
ATOM     36  H   UNL     1      47.336  10.558  19.155  0.00  0.00    +0.000 HD
ENDBRANCH  23  26
ENDBRANCH  21  22
ENDBRANCH   1  21
TORSDOF 8
ENDMDL
MODEL 6
REMARK VINA RESULT:    -7.795      2.429      3.383
REMARK INTER + INTRA:         -12.483
REMARK INTER:                 -11.816
REMARK INTRA:                  -0.667
REMARK UNBOUND:                -1.271
REMARK  Name = 
REMARK  8 active torsions:
REMARK  status: ('A' for Active; 'I' for Inactive)
REMARK    1  A    between atoms: C_2  and  C_27
REMARK    2  A    between atoms: N_3  and  C_4
REMARK    3  A    between atoms: C_4  and  C_5
REMARK    4  A    between atoms: C_8  and  C_9
REMARK    5  A    between atoms: C_9  and  O_10
REMARK    6  A    between atoms: C_9  and  C_11
REMARK    7  A    between atoms: C_11  and  N_12
REMARK    8  A    between atoms: C_13  and  C_15
REMARK                            x       y       z     vdW  Elec       q    Type
REMARK                         _______ _______ _______ _____ _____    ______ ____
ROOT
ATOM      1  C   UNL     1      47.506   7.979  13.400  0.00  0.00    +0.000 C 
ENDROOT
BRANCH   1   5
ATOM      2  C   UNL     1      44.756   5.471  11.272  0.00  0.00    +0.000 A 
ATOM      3  C   UNL     1      45.736   4.885  12.076  0.00  0.00    +0.000 A 
ATOM      4  C   UNL     1      46.624   5.689  12.791  0.00  0.00    +0.000 A 
ATOM      5  C   UNL     1      46.504   7.073  12.702  0.00  0.00    +0.000 A 
ATOM      6  N   UNL     1      45.562   7.660  11.921  0.00  0.00    +0.000 NA
ATOM      7  C   UNL     1      44.708   6.858  11.244  0.00  0.00    +0.000 A 
BRANCH   2   8
ATOM      8  C   UNL     1      43.796   4.647  10.467  0.00  0.00    +0.000 C 
BRANCH   8  11
ATOM      9  O   UNL     1      45.592   5.210   8.418  0.00  0.00    +0.000 OA
ATOM     10  C   UNL     1      45.356   4.037   8.687  0.00  0.00    +0.000 C 
ATOM     11  N   UNL     1      44.472   3.648   9.673  0.00  0.00    +0.000 N 
ATOM     12  H   UNL     1      44.481   2.693  10.005  0.00  0.00    +0.000 HD
BRANCH  10  13
ATOM     13  C   UNL     1      46.067   2.948   7.970  0.00  0.00    +0.000 A 
ATOM     14  C   UNL     1      46.793   3.266   6.822  0.00  0.00    +0.000 A 
ATOM     15  C   UNL     1      47.455   2.242   6.171  0.00  0.00    +0.000 A 
ATOM     16  N   UNL     1      47.427   0.955   6.579  0.00  0.00    +0.000 NA
ATOM     17  C   UNL     1      46.693   0.672   7.676  0.00  0.00    +0.000 A 
ATOM     18  C   UNL     1      45.998   1.624   8.402  0.00  0.00    +0.000 A 
ENDBRANCH  10  13
ENDBRANCH   8  11
ENDBRANCH   2   8
ENDBRANCH   1   5
BRANCH   1  19
ATOM     19  O   UNL     1      46.859   8.608  14.515  0.00  0.00    +0.000 OA
ATOM     20  H   UNL     1      45.911   8.396  14.426  0.00  0.00    +0.000 HD
ENDBRANCH   1  19
BRANCH   1  21
ATOM     21  C   UNL     1      48.731   7.192  13.901  0.00  0.00    +0.000 C 
BRANCH  21  22
ATOM     22  N   UNL     1      48.933   7.278  15.341  0.00  0.00    +0.000 N 
ATOM     23  C   UNL     1      48.594   6.203  16.131  0.00  0.00    +0.000 C 
ATOM     24  O   UNL     1      48.225   5.136  15.640  0.00  0.00    +0.000 OA
ATOM     25  H   UNL     1      48.924   8.212  15.752  0.00  0.00    +0.000 HD
BRANCH  23  26
ATOM     26  C   UNL     1      48.746   6.347  17.582  0.00  0.00    +0.000 A 
ATOM     27  C   UNL     1      47.957   7.273  18.253  0.00  0.00    +0.000 A 
ATOM     28  S   UNL     1      48.230   7.318  19.935  0.00  0.00    +0.000 S 
ATOM     29  C   UNL     1      49.446   6.135  19.820  0.00  0.00    +0.000 A 
ATOM     30  N   UNL     1      50.130   5.731  20.923  0.00  0.00    +0.000 NA
ATOM     31  C   UNL     1      51.047   4.852  20.689  0.00  0.00    +0.000 A 
ATOM     32  N   UNL     1      51.335   4.334  19.453  0.00  0.00    +0.000 N 
ATOM     33  C   UNL     1      50.650   4.691  18.315  0.00  0.00    +0.000 A 
ATOM     34  O   UNL     1      50.899   4.179  17.228  0.00  0.00    +0.000 OA
ATOM     35  C   UNL     1      49.623   5.692  18.520  0.00  0.00    +0.000 A 
ATOM     36  H   UNL     1      52.059   3.640  19.339  0.00  0.00    +0.000 HD
ENDBRANCH  23  26
ENDBRANCH  21  22
ENDBRANCH   1  21
TORSDOF 8
ENDMDL
MODEL 7
REMARK VINA RESULT:    -7.417      2.491      3.246
REMARK INTER + INTRA:         -11.940
REMARK INTER:                 -10.772
REMARK INTRA:                  -1.168
REMARK UNBOUND:                -1.271
REMARK  Name = 
REMARK  8 active torsions:
REMARK  status: ('A' for Active; 'I' for Inactive)
REMARK    1  A    between atoms: C_2  and  C_27
REMARK    2  A    between atoms: N_3  and  C_4
REMARK    3  A    between atoms: C_4  and  C_5
REMARK    4  A    between atoms: C_8  and  C_9
REMARK    5  A    between atoms: C_9  and  O_10
REMARK    6  A    between atoms: C_9  and  C_11
REMARK    7  A    between atoms: C_11  and  N_12
REMARK    8  A    between atoms: C_13  and  C_15
REMARK                            x       y       z     vdW  Elec       q    Type
REMARK                         _______ _______ _______ _____ _____    ______ ____
ROOT
ATOM      1  C   UNL     1      47.888   8.852  13.393  0.00  0.00    +0.000 C 
ENDROOT
BRANCH   1   5
ATOM      2  C   UNL     1      45.377   5.851  11.640  0.00  0.00    +0.000 A 
ATOM      3  C   UNL     1      44.815   7.065  12.042  0.00  0.00    +0.000 A 
ATOM      4  C   UNL     1      45.623   8.058  12.595  0.00  0.00    +0.000 A 
ATOM      5  C   UNL     1      46.990   7.825  12.719  0.00  0.00    +0.000 A 
ATOM      6  N   UNL     1      47.552   6.650  12.340  0.00  0.00    +0.000 NA
ATOM      7  C   UNL     1      46.747   5.706  11.798  0.00  0.00    +0.000 A 
BRANCH   2   8
ATOM      8  C   UNL     1      44.543   4.747  11.062  0.00  0.00    +0.000 C 
BRANCH   8  11
ATOM      9  O   UNL     1      44.199   4.333   8.332  0.00  0.00    +0.000 OA
ATOM     10  C   UNL     1      45.084   3.715   8.913  0.00  0.00    +0.000 C 
ATOM     11  N   UNL     1      45.330   3.834  10.265  0.00  0.00    +0.000 N 
ATOM     12  H   UNL     1      46.198   3.485  10.650  0.00  0.00    +0.000 HD
BRANCH  10  13
ATOM     13  C   UNL     1      45.988   2.813   8.154  0.00  0.00    +0.000 A 
ATOM     14  C   UNL     1      46.821   3.366   7.181  0.00  0.00    +0.000 A 
ATOM     15  C   UNL     1      47.662   2.515   6.490  0.00  0.00    +0.000 A 
ATOM     16  N   UNL     1      47.712   1.182   6.697  0.00  0.00    +0.000 NA
ATOM     17  C   UNL     1      46.874   0.670   7.624  0.00  0.00    +0.000 A 
ATOM     18  C   UNL     1      45.999   1.436   8.374  0.00  0.00    +0.000 A 
ENDBRANCH  10  13
ENDBRANCH   8  11
ENDBRANCH   2   8
ENDBRANCH   1   5
BRANCH   1  19
ATOM     19  O   UNL     1      47.341  10.159  13.169  0.00  0.00    +0.000 OA
ATOM     20  H   UNL     1      47.935  10.587  12.523  0.00  0.00    +0.000 HD
ENDBRANCH   1  19
BRANCH   1  21
ATOM     21  C   UNL     1      48.000   8.600  14.909  0.00  0.00    +0.000 C 
BRANCH  21  22
ATOM     22  N   UNL     1      48.195   7.198  15.254  0.00  0.00    +0.000 N 
ATOM     23  C   UNL     1      48.649   6.876  16.513  0.00  0.00    +0.000 C 
ATOM     24  O   UNL     1      48.794   7.733  17.384  0.00  0.00    +0.000 OA
ATOM     25  H   UNL     1      48.382   6.556  14.485  0.00  0.00    +0.000 HD
BRANCH  23  26
ATOM     26  C   UNL     1      48.899   5.461  16.807  0.00  0.00    +0.000 A 
ATOM     27  C   UNL     1      47.828   4.575  16.811  0.00  0.00    +0.000 A 
ATOM     28  S   UNL     1      48.271   2.964  17.150  0.00  0.00    +0.000 S 
ATOM     29  C   UNL     1      49.902   3.401  17.350  0.00  0.00    +0.000 A 
ATOM     30  N   UNL     1      50.834   2.473  17.693  0.00  0.00    +0.000 NA
ATOM     31  C   UNL     1      52.027   2.946  17.844  0.00  0.00    +0.000 A 
ATOM     32  N   UNL     1      52.372   4.261  17.671  0.00  0.00    +0.000 N 
ATOM     33  C   UNL     1      51.470   5.229  17.295  0.00  0.00    +0.000 A 
ATOM     34  O   UNL     1      51.815   6.391  17.105  0.00  0.00    +0.000 OA
ATOM     35  C   UNL     1      50.111   4.753  17.134  0.00  0.00    +0.000 A 
ATOM     36  H   UNL     1      53.327   4.564  17.794  0.00  0.00    +0.000 HD
ENDBRANCH  23  26
ENDBRANCH  21  22
ENDBRANCH   1  21
TORSDOF 8
ENDMDL
MODEL 8
REMARK VINA RESULT:    -7.308      5.488      6.438
REMARK INTER + INTRA:         -11.783
REMARK INTER:                 -10.528
REMARK INTRA:                  -1.255
REMARK UNBOUND:                -1.271
REMARK  Name = 
REMARK  8 active torsions:
REMARK  status: ('A' for Active; 'I' for Inactive)
REMARK    1  A    between atoms: C_2  and  C_27
REMARK    2  A    between atoms: N_3  and  C_4
REMARK    3  A    between atoms: C_4  and  C_5
REMARK    4  A    between atoms: C_8  and  C_9
REMARK    5  A    between atoms: C_9  and  O_10
REMARK    6  A    between atoms: C_9  and  C_11
REMARK    7  A    between atoms: C_11  and  N_12
REMARK    8  A    between atoms: C_13  and  C_15
REMARK                            x       y       z     vdW  Elec       q    Type
REMARK                         _______ _______ _______ _____ _____    ______ ____
ROOT
ATOM      1  C   UNL     1      46.224   7.677  13.526  0.00  0.00    +0.000 C 
ENDROOT
BRANCH   1   5
ATOM      2  C   UNL     1      44.421   4.320  11.562  0.00  0.00    +0.000 A 
ATOM      3  C   UNL     1      45.520   4.114  12.399  0.00  0.00    +0.000 A 
ATOM      4  C   UNL     1      46.104   5.194  13.061  0.00  0.00    +0.000 A 
ATOM      5  C   UNL     1      45.563   6.466  12.887  0.00  0.00    +0.000 A 
ATOM      6  N   UNL     1      44.500   6.685  12.074  0.00  0.00    +0.000 NA
ATOM      7  C   UNL     1      43.947   5.618  11.450  0.00  0.00    +0.000 A 
BRANCH   2   8
ATOM      8  C   UNL     1      43.776   3.192  10.813  0.00  0.00    +0.000 C 
BRANCH   8  11
ATOM      9  O   UNL     1      44.574   4.385   8.429  0.00  0.00    +0.000 OA
ATOM     10  C   UNL     1      45.019   3.277   8.709  0.00  0.00    +0.000 C 
ATOM     11  N   UNL     1      44.677   2.592   9.857  0.00  0.00    +0.000 N 
ATOM     12  H   UNL     1      45.232   1.799  10.151  0.00  0.00    +0.000 HD
BRANCH  10  13
ATOM     13  C   UNL     1      46.011   2.622   7.819  0.00  0.00    +0.000 A 
ATOM     14  C   UNL     1      46.395   1.310   8.097  0.00  0.00    +0.000 A 
ATOM     15  C   UNL     1      47.313   0.712   7.254  0.00  0.00    +0.000 A 
ATOM     16  N   UNL     1      47.863   1.331   6.188  0.00  0.00    +0.000 NA
ATOM     17  C   UNL     1      47.494   2.610   5.960  0.00  0.00    +0.000 A 
ATOM     18  C   UNL     1      46.579   3.296   6.739  0.00  0.00    +0.000 A 
ENDBRANCH  10  13
ENDBRANCH   8  11
ENDBRANCH   2   8
ENDBRANCH   1   5
BRANCH   1  19
ATOM     19  O   UNL     1      47.567   7.330  13.892  0.00  0.00    +0.000 OA
ATOM     20  H   UNL     1      47.778   7.875  14.673  0.00  0.00    +0.000 HD
ENDBRANCH   1  19
BRANCH   1  21
ATOM     21  C   UNL     1      46.254   8.881  12.566  0.00  0.00    +0.000 C 
BRANCH  21  22
ATOM     22  N   UNL     1      47.527   9.048  11.879  0.00  0.00    +0.000 N 
ATOM     23  C   UNL     1      48.282  10.172  12.132  0.00  0.00    +0.000 C 
ATOM     24  O   UNL     1      47.957  10.983  12.998  0.00  0.00    +0.000 OA
ATOM     25  H   UNL     1      47.631   8.579  10.979  0.00  0.00    +0.000 HD
BRANCH  23  26
ATOM     26  C   UNL     1      49.526  10.343  11.374  0.00  0.00    +0.000 A 
ATOM     27  C   UNL     1      49.648  11.429  10.516  0.00  0.00    +0.000 A 
ATOM     28  S   UNL     1      51.152  11.508   9.719  0.00  0.00    +0.000 S 
ATOM     29  C   UNL     1      51.676  10.068  10.455  0.00  0.00    +0.000 A 
ATOM     30  N   UNL     1      52.897   9.544  10.168  0.00  0.00    +0.000 NA
ATOM     31  C   UNL     1      53.155   8.431  10.771  0.00  0.00    +0.000 A 
ATOM     32  N   UNL     1      52.305   7.802  11.643  0.00  0.00    +0.000 N 
ATOM     33  C   UNL     1      51.073   8.310  11.986  0.00  0.00    +0.000 A 
ATOM     34  O   UNL     1      50.351   7.748  12.803  0.00  0.00    +0.000 OA
ATOM     35  C   UNL     1      50.727   9.548  11.318  0.00  0.00    +0.000 A 
ATOM     36  H   UNL     1      52.572   6.937  12.091  0.00  0.00    +0.000 HD
ENDBRANCH  23  26
ENDBRANCH  21  22
ENDBRANCH   1  21
TORSDOF 8
ENDMDL
MODEL 9
REMARK VINA RESULT:    -6.900      4.888      6.573
REMARK INTER + INTRA:         -11.196
REMARK INTER:                 -10.074
REMARK INTRA:                  -1.122
REMARK UNBOUND:                -1.271
REMARK  Name = 
REMARK  8 active torsions:
REMARK  status: ('A' for Active; 'I' for Inactive)
REMARK    1  A    between atoms: C_2  and  C_27
REMARK    2  A    between atoms: N_3  and  C_4
REMARK    3  A    between atoms: C_4  and  C_5
REMARK    4  A    between atoms: C_8  and  C_9
REMARK    5  A    between atoms: C_9  and  O_10
REMARK    6  A    between atoms: C_9  and  C_11
REMARK    7  A    between atoms: C_11  and  N_12
REMARK    8  A    between atoms: C_13  and  C_15
REMARK                            x       y       z     vdW  Elec       q    Type
REMARK                         _______ _______ _______ _____ _____    ______ ____
ROOT
ATOM      1  C   UNL     1      47.451   6.792  14.248  0.00  0.00    +0.000 C 
ENDROOT
BRANCH   1   5
ATOM      2  C   UNL     1      44.719   5.059  11.435  0.00  0.00    +0.000 A 
ATOM      3  C   UNL     1      45.331   4.241  12.387  0.00  0.00    +0.000 A 
ATOM      4  C   UNL     1      46.206   4.795  13.322  0.00  0.00    +0.000 A 
ATOM      5  C   UNL     1      46.440   6.168  13.298  0.00  0.00    +0.000 A 
ATOM      6  N   UNL     1      45.858   6.976  12.377  0.00  0.00    +0.000 NA
ATOM      7  C   UNL     1      45.007   6.415  11.487  0.00  0.00    +0.000 A 
BRANCH   2   8
ATOM      8  C   UNL     1      43.790   4.504  10.396  0.00  0.00    +0.000 C 
BRANCH   8  11
ATOM      9  O   UNL     1      45.691   5.181   8.481  0.00  0.00    +0.000 OA
ATOM     10  C   UNL     1      45.390   4.001   8.619  0.00  0.00    +0.000 C 
ATOM     11  N   UNL     1      44.451   3.559   9.527  0.00  0.00    +0.000 N 
ATOM     12  H   UNL     1      44.403   2.575   9.760  0.00  0.00    +0.000 HD
BRANCH  10  13
ATOM     13  C   UNL     1      46.079   2.955   7.819  0.00  0.00    +0.000 A 
ATOM     14  C   UNL     1      46.116   1.651   8.313  0.00  0.00    +0.000 A 
ATOM     15  C   UNL     1      46.754   0.689   7.553  0.00  0.00    +0.000 A 
ATOM     16  N   UNL     1      47.350   0.946   6.369  0.00  0.00    +0.000 NA
ATOM     17  C   UNL     1      47.324   2.223   5.930  0.00  0.00    +0.000 A 
ATOM     18  C   UNL     1      46.707   3.257   6.611  0.00  0.00    +0.000 A 
ENDBRANCH  10  13
ENDBRANCH   8  11
ENDBRANCH   2   8
ENDBRANCH   1   5
BRANCH   1  19
ATOM     19  O   UNL     1      48.683   6.066  14.151  0.00  0.00    +0.000 OA
ATOM     20  H   UNL     1      49.196   6.507  13.447  0.00  0.00    +0.000 HD
ENDBRANCH   1  19
BRANCH   1  21
ATOM     21  C   UNL     1      47.705   8.274  13.912  0.00  0.00    +0.000 C 
BRANCH  21  22
ATOM     22  N   UNL     1      48.793   8.479  12.966  0.00  0.00    +0.000 N 
ATOM     23  C   UNL     1      50.014   8.913  13.433  0.00  0.00    +0.000 C 
ATOM     24  O   UNL     1      50.237   9.031  14.637  0.00  0.00    +0.000 OA
ATOM     25  H   UNL     1      48.533   8.689  12.002  0.00  0.00    +0.000 HD
BRANCH  23  26
ATOM     26  C   UNL     1      51.068   9.174  12.447  0.00  0.00    +0.000 A 
ATOM     27  C   UNL     1      52.314   8.586  12.621  0.00  0.00    +0.000 A 
ATOM     28  S   UNL     1      53.431   8.965  11.391  0.00  0.00    +0.000 S 
ATOM     29  C   UNL     1      52.303   9.967  10.606  0.00  0.00    +0.000 A 
ATOM     30  N   UNL     1      52.642  10.642   9.476  0.00  0.00    +0.000 NA
ATOM     31  C   UNL     1      51.702  11.391   9.002  0.00  0.00    +0.000 A 
ATOM     32  N   UNL     1      50.452  11.516   9.550  0.00  0.00    +0.000 N 
ATOM     33  C   UNL     1      50.056  10.829  10.674  0.00  0.00    +0.000 A 
ATOM     34  O   UNL     1      48.917  10.926  11.119  0.00  0.00    +0.000 OA
ATOM     35  C   UNL     1      51.083   9.990  11.258  0.00  0.00    +0.000 A 
ATOM     36  H   UNL     1      49.758  12.111   9.122  0.00  0.00    +0.000 HD
ENDBRANCH  23  26
ENDBRANCH  21  22
ENDBRANCH   1  21
TORSDOF 8
ENDMDL
