MODEL 1
REMARK VINA RESULT:    -8.051      0.000      0.000
REMARK INTER + INTRA:         -13.975
REMARK INTER:                 -12.758
REMARK INTRA:                  -1.218
REMARK UNBOUND:                -1.218
REMARK  Name = 
REMARK  11 active torsions:
REMARK  status: ('A' for Active; 'I' for Inactive)
REMARK    1  A    between atoms: C_1  and  C_2
REMARK    2  A    between atoms: C_2  and  O_3
REMARK    3  A    between atoms: O_3  and  C_4
REMARK    4  A    between atoms: C_4  and  C_5
REMARK    5  A    between atoms: C_5  and  N_6
REMARK    6  A    between atoms: C_5  and  C_28
REMARK    7  A    between atoms: N_6  and  C_7
REMARK    8  A    between atoms: C_7  and  C_8
REMARK    9  A    between atoms: C_11  and  C_12
REMARK   10  A    between atoms: C_12  and  N_13
REMARK   11  A    between atoms: C_14  and  C_16
REMARK                            x       y       z     vdW  Elec       q    Type
REMARK                         _______ _______ _______ _____ _____    ______ ____
ROOT
ATOM      1  C   UNL     1      46.058   6.709  11.143  0.00  0.00    +0.000 C 
ATOM      2  C   UNL     1      44.986   6.598  12.234  0.00  0.00    +0.000 C 
ATOM      3  C   UNL     1      45.310   5.523  13.267  0.00  0.00    +0.000 C 
ATOM      4  C   UNL     1      46.705   5.704  13.896  0.00  0.00    +0.000 C 
ATOM      5  C   UNL     1      47.796   5.916  12.833  0.00  0.00    +0.000 C 
ATOM      6  C   UNL     1      47.416   6.992  11.811  0.00  0.00    +0.000 C 
ENDROOT
BRANCH   1   7
ATOM      7  C   UNL     1      46.176   5.459  10.244  0.00  0.00    +0.000 C 
BRANCH   7   8
ATOM      8  N   UNL     1      45.341   5.519   9.041  0.00  0.00    +0.000 NA
ATOM      9  H   UNL     1      44.532   6.112   9.243  0.00  0.00    +0.000 HD
BRANCH   8  10
ATOM     10  C   UNL     1      44.769   4.181   8.694  0.00  0.00    +0.000 C 
BRANCH  10  11
ATOM     11  C   UNL     1      45.751   3.269   7.953  0.00  0.00    +0.000 A 
ATOM     12  C   UNL     1      45.945   1.957   8.385  0.00  0.00    +0.000 A 
ATOM     13  C   UNL     1      46.803   1.128   7.667  0.00  0.00    +0.000 A 
ATOM     14  C   UNL     1      47.454   1.628   6.546  0.00  0.00    +0.000 A 
ATOM     15  C   UNL     1      47.218   2.942   6.185  0.00  0.00    +0.000 A 
ATOM     16  N   UNL     1      46.386   3.765   6.858  0.00  0.00    +0.000 NA
ENDBRANCH  10  11
BRANCH  10  17
ATOM     17  C   UNL     1      44.134   3.450   9.910  0.00  0.00    +0.000 C 
BRANCH  17  18
ATOM     18  O   UNL     1      43.107   4.249  10.524  0.00  0.00    +0.000 OA
BRANCH  18  20
ATOM     19  C   UNL     1      43.692   2.549  12.117  0.00  0.00    +0.000 C 
ATOM     20  C   UNL     1      42.846   3.776  11.847  0.00  0.00    +0.000 C 
ENDBRANCH  18  20
ENDBRANCH  17  18
ENDBRANCH  10  17
ENDBRANCH   8  10
ENDBRANCH   7   8
ENDBRANCH   1   7
BRANCH   4  21
ATOM     21  C   UNL     1      47.085   4.512  14.789  0.00  0.00    +0.000 C 
BRANCH  21  22
ATOM     22  N   UNL     1      47.674   4.935  16.041  0.00  0.00    +0.000 N 
ATOM     23  C   UNL     1      47.306   4.389  17.245  0.00  0.00    +0.000 C 
ATOM     24  O   UNL     1      46.498   3.467  17.329  0.00  0.00    +0.000 OA
ATOM     25  H   UNL     1      48.116   5.849  16.054  0.00  0.00    +0.000 HD
BRANCH  23  26
ATOM     26  C   UNL     1      47.987   4.914  18.434  0.00  0.00    +0.000 A 
ATOM     27  C   UNL     1      47.284   5.717  19.320  0.00  0.00    +0.000 A 
ATOM     28  S   UNL     1      48.201   6.208  20.671  0.00  0.00    +0.000 S 
ATOM     29  C   UNL     1      49.583   5.406  20.093  0.00  0.00    +0.000 A 
ATOM     30  N   UNL     1      50.755   5.449  20.783  0.00  0.00    +0.000 NA
ATOM     31  C   UNL     1      51.730   4.820  20.216  0.00  0.00    +0.000 A 
ATOM     32  N   UNL     1      51.638   4.143  19.028  0.00  0.00    +0.000 N 
ATOM     33  C   UNL     1      50.467   4.043  18.315  0.00  0.00    +0.000 A 
ATOM     34  O   UNL     1      50.405   3.387  17.280  0.00  0.00    +0.000 OA
ATOM     35  C   UNL     1      49.343   4.750  18.898  0.00  0.00    +0.000 A 
ATOM     36  H   UNL     1      52.439   3.661  18.647  0.00  0.00    +0.000 HD
ENDBRANCH  23  26
ENDBRANCH  21  22
ENDBRANCH   4  21
TORSDOF 10
ENDMDL
MODEL 2
REMARK VINA RESULT:    -7.582      1.628      2.098
REMARK INTER + INTRA:         -13.231
REMARK INTER:                 -11.926
REMARK INTRA:                  -1.306
REMARK UNBOUND:                -1.218
REMARK  Name = 
REMARK  11 active torsions:
REMARK  status: ('A' for Active; 'I' for Inactive)
REMARK    1  A    between atoms: C_1  and  C_2
REMARK    2  A    between atoms: C_2  and  O_3
REMARK    3  A    between atoms: O_3  and  C_4
REMARK    4  A    between atoms: C_4  and  C_5
REMARK    5  A    between atoms: C_5  and  N_6
REMARK    6  A    between atoms: C_5  and  C_28
REMARK    7  A    between atoms: N_6  and  C_7
REMARK    8  A    between atoms: C_7  and  C_8
REMARK    9  A    between atoms: C_11  and  C_12
REMARK   10  A    between atoms: C_12  and  N_13
REMARK   11  A    between atoms: C_14  and  C_16
REMARK                            x       y       z     vdW  Elec       q    Type
REMARK                         _______ _______ _______ _____ _____    ______ ____
ROOT
ATOM      1  C   UNL     1      46.125   6.673  11.202  0.00  0.00    +0.000 C 
ATOM      2  C   UNL     1      45.065   6.580  12.307  0.00  0.00    +0.000 C 
ATOM      3  C   UNL     1      45.411   5.537  13.366  0.00  0.00    +0.000 C 
ATOM      4  C   UNL     1      46.810   5.750  13.974  0.00  0.00    +0.000 C 
ATOM      5  C   UNL     1      47.888   5.944  12.895  0.00  0.00    +0.000 C 
ATOM      6  C   UNL     1      47.487   6.988  11.849  0.00  0.00    +0.000 C 
ENDROOT
BRANCH   1   7
ATOM      7  C   UNL     1      46.248   5.399  10.336  0.00  0.00    +0.000 C 
BRANCH   7   8
ATOM      8  N   UNL     1      45.566   5.501   9.043  0.00  0.00    +0.000 NA
ATOM      9  H   UNL     1      44.820   6.196   9.128  0.00  0.00    +0.000 HD
BRANCH   8  10
ATOM     10  C   UNL     1      44.872   4.225   8.680  0.00  0.00    +0.000 C 
BRANCH  10  11
ATOM     11  C   UNL     1      45.764   3.236   7.924  0.00  0.00    +0.000 A 
ATOM     12  C   UNL     1      46.432   3.643   6.769  0.00  0.00    +0.000 A 
ATOM     13  C   UNL     1      47.278   2.744   6.125  0.00  0.00    +0.000 A 
ATOM     14  C   UNL     1      47.430   1.462   6.640  0.00  0.00    +0.000 A 
ATOM     15  C   UNL     1      46.728   1.131   7.783  0.00  0.00    +0.000 A 
ATOM     16  N   UNL     1      45.906   1.983   8.432  0.00  0.00    +0.000 NA
ENDBRANCH  10  11
BRANCH  10  17
ATOM     17  C   UNL     1      44.174   3.540   9.888  0.00  0.00    +0.000 C 
BRANCH  17  18
ATOM     18  O   UNL     1      43.031   4.294  10.329  0.00  0.00    +0.000 OA
BRANCH  18  20
ATOM     19  C   UNL     1      43.441   2.751  12.125  0.00  0.00    +0.000 C 
ATOM     20  C   UNL     1      42.804   4.064  11.722  0.00  0.00    +0.000 C 
ENDBRANCH  18  20
ENDBRANCH  17  18
ENDBRANCH  10  17
ENDBRANCH   8  10
ENDBRANCH   7   8
ENDBRANCH   1   7
BRANCH   4  21
ATOM     21  C   UNL     1      47.212   4.587  14.896  0.00  0.00    +0.000 C 
BRANCH  21  22
ATOM     22  N   UNL     1      47.459   5.026  16.253  0.00  0.00    +0.000 N 
ATOM     23  C   UNL     1      48.494   4.533  17.005  0.00  0.00    +0.000 C 
ATOM     24  O   UNL     1      49.311   3.732  16.555  0.00  0.00    +0.000 OA
ATOM     25  H   UNL     1      46.680   5.452  16.746  0.00  0.00    +0.000 HD
BRANCH  23  26
ATOM     26  C   UNL     1      48.625   5.069  18.364  0.00  0.00    +0.000 A 
ATOM     27  C   UNL     1      48.661   4.194  19.440  0.00  0.00    +0.000 A 
ATOM     28  S   UNL     1      48.861   4.969  20.945  0.00  0.00    +0.000 S 
ATOM     29  C   UNL     1      48.858   6.504  20.217  0.00  0.00    +0.000 A 
ATOM     30  N   UNL     1      48.971   7.634  20.967  0.00  0.00    +0.000 NA
ATOM     31  C   UNL     1      48.925   8.731  20.287  0.00  0.00    +0.000 A 
ATOM     32  N   UNL     1      48.787   8.803  18.926  0.00  0.00    +0.000 N 
ATOM     33  C   UNL     1      48.704   7.689  18.125  0.00  0.00    +0.000 A 
ATOM     34  O   UNL     1      48.633   7.785  16.904  0.00  0.00    +0.000 OA
ATOM     35  C   UNL     1      48.730   6.428  18.840  0.00  0.00    +0.000 A 
ATOM     36  H   UNL     1      48.771   9.696  18.457  0.00  0.00    +0.000 HD
ENDBRANCH  23  26
ENDBRANCH  21  22
ENDBRANCH   4  21
TORSDOF 10
ENDMDL
MODEL 3
REMARK VINA RESULT:    -7.268      1.906      2.762
REMARK INTER + INTRA:         -12.735
REMARK INTER:                 -11.599
REMARK INTRA:                  -1.136
REMARK UNBOUND:                -1.218
REMARK  Name = 
REMARK  11 active torsions:
REMARK  status: ('A' for Active; 'I' for Inactive)
REMARK    1  A    between atoms: C_1  and  C_2
REMARK    2  A    between atoms: C_2  and  O_3
REMARK    3  A    between atoms: O_3  and  C_4
REMARK    4  A    between atoms: C_4  and  C_5
REMARK    5  A    between atoms: C_5  and  N_6
REMARK    6  A    between atoms: C_5  and  C_28
REMARK    7  A    between atoms: N_6  and  C_7
REMARK    8  A    between atoms: C_7  and  C_8
REMARK    9  A    between atoms: C_11  and  C_12
REMARK   10  A    between atoms: C_12  and  N_13
REMARK   11  A    between atoms: C_14  and  C_16
REMARK                            x       y       z     vdW  Elec       q    Type
REMARK                         _______ _______ _______ _____ _____    ______ ____
ROOT
ATOM      1  C   UNL     1      44.855   6.647  11.148  0.00  0.00    +0.000 C 
ATOM      2  C   UNL     1      44.736   6.323  12.642  0.00  0.00    +0.000 C 
ATOM      3  C   UNL     1      45.986   6.708  13.428  0.00  0.00    +0.000 C 
ATOM      4  C   UNL     1      46.384   8.183  13.224  0.00  0.00    +0.000 C 
ATOM      5  C   UNL     1      46.421   8.573  11.737  0.00  0.00    +0.000 C 
ATOM      6  C   UNL     1      45.152   8.150  10.991  0.00  0.00    +0.000 C 
ENDROOT
BRANCH   1   7
ATOM      7  C   UNL     1      45.936   5.828  10.408  0.00  0.00    +0.000 C 
BRANCH   7   8
ATOM      8  N   UNL     1      45.571   5.483   9.031  0.00  0.00    +0.000 NA
ATOM      9  H   UNL     1      44.795   6.087   8.745  0.00  0.00    +0.000 HD
BRANCH   8  10
ATOM     10  C   UNL     1      45.039   4.088   8.930  0.00  0.00    +0.000 C 
BRANCH  10  11
ATOM     11  C   UNL     1      45.866   3.182   8.013  0.00  0.00    +0.000 A 
ATOM     12  C   UNL     1      46.419   3.696   6.840  0.00  0.00    +0.000 A 
ATOM     13  C   UNL     1      47.210   2.870   6.047  0.00  0.00    +0.000 A 
ATOM     14  C   UNL     1      47.423   1.552   6.435  0.00  0.00    +0.000 A 
ATOM     15  C   UNL     1      46.835   1.114   7.606  0.00  0.00    +0.000 A 
ATOM     16  N   UNL     1      46.069   1.894   8.398  0.00  0.00    +0.000 NA
ENDBRANCH  10  11
BRANCH  10  17
ATOM     17  C   UNL     1      44.801   3.419  10.312  0.00  0.00    +0.000 C 
BRANCH  17  18
ATOM     18  O   UNL     1      43.418   3.069  10.494  0.00  0.00    +0.000 OA
BRANCH  18  20
ATOM     19  C   UNL     1      43.798   2.851  12.856  0.00  0.00    +0.000 C 
ATOM     20  C   UNL     1      42.966   3.512  11.776  0.00  0.00    +0.000 C 
ENDBRANCH  18  20
ENDBRANCH  17  18
ENDBRANCH  10  17
ENDBRANCH   8  10
ENDBRANCH   7   8
ENDBRANCH   1   7
BRANCH   4  21
ATOM     21  C   UNL     1      47.744   8.499  13.870  0.00  0.00    +0.000 C 
BRANCH  21  22
ATOM     22  N   UNL     1      47.984   7.701  15.053  0.00  0.00    +0.000 N 
ATOM     23  C   UNL     1      49.139   6.982  15.229  0.00  0.00    +0.000 C 
ATOM     24  O   UNL     1      50.065   7.018  14.422  0.00  0.00    +0.000 OA
ATOM     25  H   UNL     1      47.169   7.422  15.591  0.00  0.00    +0.000 HD
BRANCH  23  26
ATOM     26  C   UNL     1      49.247   6.219  16.477  0.00  0.00    +0.000 A 
ATOM     27  C   UNL     1      50.077   6.682  17.487  0.00  0.00    +0.000 A 
ATOM     28  S   UNL     1      50.059   5.709  18.887  0.00  0.00    +0.000 S 
ATOM     29  C   UNL     1      48.979   4.607  18.173  0.00  0.00    +0.000 A 
ATOM     30  N   UNL     1      48.563   3.500  18.846  0.00  0.00    +0.000 NA
ATOM     31  C   UNL     1      47.766   2.737  18.175  0.00  0.00    +0.000 A 
ATOM     32  N   UNL     1      47.338   2.984  16.897  0.00  0.00    +0.000 N 
ATOM     33  C   UNL     1      47.704   4.106  16.192  0.00  0.00    +0.000 A 
ATOM     34  O   UNL     1      47.263   4.325  15.068  0.00  0.00    +0.000 OA
ATOM     35  C   UNL     1      48.616   4.989  16.893  0.00  0.00    +0.000 A 
ATOM     36  H   UNL     1      46.704   2.350  16.436  0.00  0.00    +0.000 HD
ENDBRANCH  23  26
ENDBRANCH  21  22
ENDBRANCH   4  21
TORSDOF 10
ENDMDL
MODEL 4
REMARK VINA RESULT:    -7.181      2.485      3.133
REMARK INTER + INTRA:         -12.597
REMARK INTER:                 -11.365
REMARK INTRA:                  -1.232
REMARK UNBOUND:                -1.218
REMARK  Name = 
REMARK  11 active torsions:
REMARK  status: ('A' for Active; 'I' for Inactive)
REMARK    1  A    between atoms: C_1  and  C_2
REMARK    2  A    between atoms: C_2  and  O_3
REMARK    3  A    between atoms: O_3  and  C_4
REMARK    4  A    between atoms: C_4  and  C_5
REMARK    5  A    between atoms: C_5  and  N_6
REMARK    6  A    between atoms: C_5  and  C_28
REMARK    7  A    between atoms: N_6  and  C_7
REMARK    8  A    between atoms: C_7  and  C_8
REMARK    9  A    between atoms: C_11  and  C_12
REMARK   10  A    between atoms: C_12  and  N_13
REMARK   11  A    between atoms: C_14  and  C_16
REMARK                            x       y       z     vdW  Elec       q    Type
REMARK                         _______ _______ _______ _____ _____    ______ ____
ROOT
ATOM      1  C   UNL     1      45.525   6.171  11.918  0.00  0.00    +0.000 C 
ATOM      2  C   UNL     1      46.235   5.702  13.194  0.00  0.00    +0.000 C 
ATOM      3  C   UNL     1      47.706   6.108  13.231  0.00  0.00    +0.000 C 
ATOM      4  C   UNL     1      47.909   7.622  13.023  0.00  0.00    +0.000 C 
ATOM      5  C   UNL     1      47.132   8.149  11.805  0.00  0.00    +0.000 C 
ATOM      6  C   UNL     1      45.667   7.700  11.807  0.00  0.00    +0.000 C 
ENDROOT
BRANCH   1   7
ATOM      7  C   UNL     1      46.048   5.510  10.624  0.00  0.00    +0.000 C 
BRANCH   7   8
ATOM      8  N   UNL     1      45.031   5.382   9.577  0.00  0.00    +0.000 NA
ATOM      9  H   UNL     1      44.163   5.802   9.920  0.00  0.00    +0.000 HD
BRANCH   8  10
ATOM     10  C   UNL     1      44.690   3.950   9.305  0.00  0.00    +0.000 C 
BRANCH  10  11
ATOM     11  C   UNL     1      45.626   3.280   8.295  0.00  0.00    +0.000 A 
ATOM     12  C   UNL     1      45.993   1.945   8.464  0.00  0.00    +0.000 A 
ATOM     13  C   UNL     1      46.803   1.340   7.506  0.00  0.00    +0.000 A 
ATOM     14  C   UNL     1      47.235   2.080   6.412  0.00  0.00    +0.000 A 
ATOM     15  C   UNL     1      46.836   3.400   6.319  0.00  0.00    +0.000 A 
ATOM     16  N   UNL     1      46.047   4.010   7.227  0.00  0.00    +0.000 NA
ENDBRANCH  10  11
BRANCH  10  17
ATOM     17  C   UNL     1      44.554   3.095  10.595  0.00  0.00    +0.000 C 
BRANCH  17  18
ATOM     18  O   UNL     1      43.245   3.227  11.176  0.00  0.00    +0.000 OA
BRANCH  18  20
ATOM     19  C   UNL     1      42.778   4.770  12.957  0.00  0.00    +0.000 C 
ATOM     20  C   UNL     1      43.354   3.419  12.589  0.00  0.00    +0.000 C 
ENDBRANCH  18  20
ENDBRANCH  17  18
ENDBRANCH  10  17
ENDBRANCH   8  10
ENDBRANCH   7   8
ENDBRANCH   1   7
BRANCH   4  21
ATOM     21  C   UNL     1      49.397   7.980  12.876  0.00  0.00    +0.000 C 
BRANCH  21  22
ATOM     22  N   UNL     1      50.224   7.276  13.832  0.00  0.00    +0.000 N 
ATOM     23  C   UNL     1      50.718   7.884  14.958  0.00  0.00    +0.000 C 
ATOM     24  O   UNL     1      50.441   9.044  15.256  0.00  0.00    +0.000 OA
ATOM     25  H   UNL     1      50.696   6.441  13.502  0.00  0.00    +0.000 HD
BRANCH  23  26
ATOM     26  C   UNL     1      51.542   7.049  15.840  0.00  0.00    +0.000 A 
ATOM     27  C   UNL     1      52.917   7.234  15.860  0.00  0.00    +0.000 A 
ATOM     28  S   UNL     1      53.726   6.220  16.967  0.00  0.00    +0.000 S 
ATOM     29  C   UNL     1      52.273   5.465  17.422  0.00  0.00    +0.000 A 
ATOM     30  N   UNL     1      52.265   4.462  18.340  0.00  0.00    +0.000 NA
ATOM     31  C   UNL     1      51.097   3.961  18.571  0.00  0.00    +0.000 A 
ATOM     32  N   UNL     1      49.935   4.377  17.974  0.00  0.00    +0.000 N 
ATOM     33  C   UNL     1      49.891   5.409  17.067  0.00  0.00    +0.000 A 
ATOM     34  O   UNL     1      48.828   5.792  16.590  0.00  0.00    +0.000 OA
ATOM     35  C   UNL     1      51.180   5.996  16.757  0.00  0.00    +0.000 A 
ATOM     36  H   UNL     1      49.054   3.948  18.211  0.00  0.00    +0.000 HD
ENDBRANCH  23  26
ENDBRANCH  21  22
ENDBRANCH   4  21
TORSDOF 10
ENDMDL
MODEL 5
REMARK VINA RESULT:    -7.004      2.763      4.508
REMARK INTER + INTRA:         -12.317
REMARK INTER:                 -10.012
REMARK INTRA:                  -2.305
REMARK UNBOUND:                -1.218
REMARK  Name = 
REMARK  11 active torsions:
REMARK  status: ('A' for Active; 'I' for Inactive)
REMARK    1  A    between atoms: C_1  and  C_2
REMARK    2  A    between atoms: C_2  and  O_3
REMARK    3  A    between atoms: O_3  and  C_4
REMARK    4  A    between atoms: C_4  and  C_5
REMARK    5  A    between atoms: C_5  and  N_6
REMARK    6  A    between atoms: C_5  and  C_28
REMARK    7  A    between atoms: N_6  and  C_7
REMARK    8  A    between atoms: C_7  and  C_8
REMARK    9  A    between atoms: C_11  and  C_12
REMARK   10  A    between atoms: C_12  and  N_13
REMARK   11  A    between atoms: C_14  and  C_16
REMARK                            x       y       z     vdW  Elec       q    Type
REMARK                         _______ _______ _______ _____ _____    ______ ____
ROOT
ATOM      1  C   UNL     1      47.258   8.464  12.167  0.00  0.00    +0.000 C 
ATOM      2  C   UNL     1      47.881   9.778  12.656  0.00  0.00    +0.000 C 
ATOM      3  C   UNL     1      49.111   9.554  13.531  0.00  0.00    +0.000 C 
ATOM      4  C   UNL     1      50.173   8.672  12.847  0.00  0.00    +0.000 C 
ATOM      5  C   UNL     1      49.568   7.386  12.259  0.00  0.00    +0.000 C 
ATOM      6  C   UNL     1      48.328   7.663  11.403  0.00  0.00    +0.000 C 
ENDROOT
BRANCH   1   7
ATOM      7  C   UNL     1      46.666   7.589  13.294  0.00  0.00    +0.000 C 
BRANCH   7   8
ATOM      8  N   UNL     1      45.365   7.002  12.960  0.00  0.00    +0.000 NA
ATOM      9  H   UNL     1      44.698   7.265  13.690  0.00  0.00    +0.000 HD
BRANCH   8  10
ATOM     10  C   UNL     1      45.406   5.506  12.988  0.00  0.00    +0.000 C 
BRANCH  10  11
ATOM     11  C   UNL     1      45.101   4.860  11.634  0.00  0.00    +0.000 A 
ATOM     12  C   UNL     1      45.546   5.462  10.457  0.00  0.00    +0.000 A 
ATOM     13  C   UNL     1      45.302   4.832   9.240  0.00  0.00    +0.000 A 
ATOM     14  C   UNL     1      44.613   3.625   9.223  0.00  0.00    +0.000 A 
ATOM     15  C   UNL     1      44.195   3.095  10.430  0.00  0.00    +0.000 A 
ATOM     16  N   UNL     1      44.424   3.680  11.624  0.00  0.00    +0.000 NA
ENDBRANCH  10  11
BRANCH  10  17
ATOM     17  C   UNL     1      46.719   4.939  13.596  0.00  0.00    +0.000 C 
BRANCH  17  18
ATOM     18  O   UNL     1      46.445   4.007  14.657  0.00  0.00    +0.000 OA
BRANCH  18  20
ATOM     19  C   UNL     1      47.948   3.026  16.254  0.00  0.00    +0.000 C 
ATOM     20  C   UNL     1      47.271   4.298  15.788  0.00  0.00    +0.000 C 
ENDBRANCH  18  20
ENDBRANCH  17  18
ENDBRANCH  10  17
ENDBRANCH   8  10
ENDBRANCH   7   8
ENDBRANCH   1   7
BRANCH   4  21
ATOM     21  C   UNL     1      51.314   8.305  13.812  0.00  0.00    +0.000 C 
BRANCH  21  22
ATOM     22  N   UNL     1      50.874   7.410  14.861  0.00  0.00    +0.000 N 
ATOM     23  C   UNL     1      51.602   7.211  16.006  0.00  0.00    +0.000 C 
ATOM     24  O   UNL     1      52.641   7.824  16.240  0.00  0.00    +0.000 OA
ATOM     25  H   UNL     1      50.199   6.697  14.602  0.00  0.00    +0.000 HD
BRANCH  23  26
ATOM     26  C   UNL     1      51.035   6.276  16.984  0.00  0.00    +0.000 A 
ATOM     27  C   UNL     1      51.762   5.153  17.351  0.00  0.00    +0.000 A 
ATOM     28  S   UNL     1      50.988   4.192  18.527  0.00  0.00    +0.000 S 
ATOM     29  C   UNL     1      49.632   5.216  18.550  0.00  0.00    +0.000 A 
ATOM     30  N   UNL     1      48.564   4.944  19.348  0.00  0.00    +0.000 NA
ATOM     31  C   UNL     1      47.593   5.790  19.246  0.00  0.00    +0.000 A 
ATOM     32  N   UNL     1      47.596   6.888  18.426  0.00  0.00    +0.000 N 
ATOM     33  C   UNL     1      48.665   7.221  17.629  0.00  0.00    +0.000 A 
ATOM     34  O   UNL     1      48.657   8.239  16.944  0.00  0.00    +0.000 OA
ATOM     35  C   UNL     1      49.777   6.292  17.691  0.00  0.00    +0.000 A 
ATOM     36  H   UNL     1      46.806   7.515  18.404  0.00  0.00    +0.000 HD
ENDBRANCH  23  26
ENDBRANCH  21  22
ENDBRANCH   4  21
TORSDOF 10
ENDMDL
MODEL 6
REMARK VINA RESULT:    -6.773      3.457      9.884
REMARK INTER + INTRA:         -11.950
REMARK INTER:                 -10.221
REMARK INTRA:                  -1.729
REMARK UNBOUND:                -1.218
REMARK  Name = 
REMARK  11 active torsions:
REMARK  status: ('A' for Active; 'I' for Inactive)
REMARK    1  A    between atoms: C_1  and  C_2
REMARK    2  A    between atoms: C_2  and  O_3
REMARK    3  A    between atoms: O_3  and  C_4
REMARK    4  A    between atoms: C_4  and  C_5
REMARK    5  A    between atoms: C_5  and  N_6
REMARK    6  A    between atoms: C_5  and  C_28
REMARK    7  A    between atoms: N_6  and  C_7
REMARK    8  A    between atoms: C_7  and  C_8
REMARK    9  A    between atoms: C_11  and  C_12
REMARK   10  A    between atoms: C_12  and  N_13
REMARK   11  A    between atoms: C_14  and  C_16
REMARK                            x       y       z     vdW  Elec       q    Type
REMARK                         _______ _______ _______ _____ _____    ______ ____
ROOT
ATOM      1  C   UNL     1      49.360   4.970  19.885  0.00  0.00    +0.000 C 
ATOM      2  C   UNL     1      48.414   6.143  19.601  0.00  0.00    +0.000 C 
ATOM      3  C   UNL     1      48.542   6.667  18.173  0.00  0.00    +0.000 C 
ATOM      4  C   UNL     1      48.364   5.560  17.117  0.00  0.00    +0.000 C 
ATOM      5  C   UNL     1      49.228   4.325  17.421  0.00  0.00    +0.000 C 
ATOM      6  C   UNL     1      49.076   3.849  18.869  0.00  0.00    +0.000 C 
ENDROOT
BRANCH   1   7
ATOM      7  C   UNL     1      50.859   5.341  19.838  0.00  0.00    +0.000 C 
BRANCH   7   8
ATOM      8  N   UNL     1      51.751   4.222  20.155  0.00  0.00    +0.000 NA
ATOM      9  H   UNL     1      52.206   4.420  21.050  0.00  0.00    +0.000 HD
BRANCH   8  10
ATOM     10  C   UNL     1      52.867   4.105  19.165  0.00  0.00    +0.000 C 
BRANCH  10  11
ATOM     11  C   UNL     1      53.160   2.664  18.740  0.00  0.00    +0.000 A 
ATOM     12  C   UNL     1      52.344   2.035  17.799  0.00  0.00    +0.000 A 
ATOM     13  C   UNL     1      52.657   0.743  17.387  0.00  0.00    +0.000 A 
ATOM     14  C   UNL     1      53.766   0.104  17.930  0.00  0.00    +0.000 A 
ATOM     15  C   UNL     1      54.521   0.788  18.864  0.00  0.00    +0.000 A 
ATOM     16  N   UNL     1      54.245   2.044  19.276  0.00  0.00    +0.000 NA
ENDBRANCH  10  11
BRANCH  10  17
ATOM     17  C   UNL     1      52.692   5.030  17.928  0.00  0.00    +0.000 C 
BRANCH  17  18
ATOM     18  O   UNL     1      53.937   5.213  17.230  0.00  0.00    +0.000 OA
BRANCH  18  20
ATOM     19  C   UNL     1      52.379   6.769  16.270  0.00  0.00    +0.000 C 
ATOM     20  C   UNL     1      53.798   6.240  16.246  0.00  0.00    +0.000 C 
ENDBRANCH  18  20
ENDBRANCH  17  18
ENDBRANCH  10  17
ENDBRANCH   8  10
ENDBRANCH   7   8
ENDBRANCH   1   7
BRANCH   4  21
ATOM     21  C   UNL     1      48.682   6.070  15.701  0.00  0.00    +0.000 C 
BRANCH  21  22
ATOM     22  N   UNL     1      47.535   5.991  14.823  0.00  0.00    +0.000 N 
ATOM     23  C   UNL     1      47.644   6.126  13.462  0.00  0.00    +0.000 C 
ATOM     24  O   UNL     1      48.728   6.263  12.900  0.00  0.00    +0.000 OA
ATOM     25  H   UNL     1      46.625   6.158  15.241  0.00  0.00    +0.000 HD
BRANCH  23  26
ATOM     26  C   UNL     1      46.398   6.023  12.695  0.00  0.00    +0.000 A 
ATOM     27  C   UNL     1      45.868   7.159  12.102  0.00  0.00    +0.000 A 
ATOM     28  S   UNL     1      44.445   6.866  11.211  0.00  0.00    +0.000 S 
ATOM     29  C   UNL     1      44.459   5.218  11.627  0.00  0.00    +0.000 A 
ATOM     30  N   UNL     1      43.477   4.380  11.197  0.00  0.00    +0.000 NA
ATOM     31  C   UNL     1      43.598   3.162  11.610  0.00  0.00    +0.000 A 
ATOM     32  N   UNL     1      44.615   2.703  12.405  0.00  0.00    +0.000 N 
ATOM     33  C   UNL     1      45.646   3.504  12.835  0.00  0.00    +0.000 A 
ATOM     34  O   UNL     1      46.569   3.051  13.503  0.00  0.00    +0.000 OA
ATOM     35  C   UNL     1      45.549   4.889  12.415  0.00  0.00    +0.000 A 
ATOM     36  H   UNL     1      44.654   1.734  12.681  0.00  0.00    +0.000 HD
ENDBRANCH  23  26
ENDBRANCH  21  22
ENDBRANCH   4  21
TORSDOF 10
ENDMDL
MODEL 7
REMARK VINA RESULT:    -6.731      3.202      9.276
REMARK INTER + INTRA:         -11.883
REMARK INTER:                 -10.396
REMARK INTRA:                  -1.487
REMARK UNBOUND:                -1.218
REMARK  Name = 
REMARK  11 active torsions:
REMARK  status: ('A' for Active; 'I' for Inactive)
REMARK    1  A    between atoms: C_1  and  C_2
REMARK    2  A    between atoms: C_2  and  O_3
REMARK    3  A    between atoms: O_3  and  C_4
REMARK    4  A    between atoms: C_4  and  C_5
REMARK    5  A    between atoms: C_5  and  N_6
REMARK    6  A    between atoms: C_5  and  C_28
REMARK    7  A    between atoms: N_6  and  C_7
REMARK    8  A    between atoms: C_7  and  C_8
REMARK    9  A    between atoms: C_11  and  C_12
REMARK   10  A    between atoms: C_12  and  N_13
REMARK   11  A    between atoms: C_14  and  C_16
REMARK                            x       y       z     vdW  Elec       q    Type
REMARK                         _______ _______ _______ _____ _____    ______ ____
ROOT
ATOM      1  C   UNL     1      50.139   8.497  13.528  0.00  0.00    +0.000 C 
ATOM      2  C   UNL     1      49.834   7.486  12.415  0.00  0.00    +0.000 C 
ATOM      3  C   UNL     1      48.339   7.222  12.257  0.00  0.00    +0.000 C 
ATOM      4  C   UNL     1      47.525   8.514  12.053  0.00  0.00    +0.000 C 
ATOM      5  C   UNL     1      47.875   9.589  13.096  0.00  0.00    +0.000 C 
ATOM      6  C   UNL     1      49.385   9.806  13.227  0.00  0.00    +0.000 C 
ENDROOT
BRANCH   1   7
ATOM      7  C   UNL     1      49.773   8.005  14.946  0.00  0.00    +0.000 C 
BRANCH   7   8
ATOM      8  N   UNL     1      50.247   6.649  15.238  0.00  0.00    +0.000 NA
ATOM      9  H   UNL     1      49.633   5.986  14.758  0.00  0.00    +0.000 HD
BRANCH   8  10
ATOM     10  C   UNL     1      50.121   6.318  16.692  0.00  0.00    +0.000 C 
BRANCH  10  11
ATOM     11  C   UNL     1      49.174   5.148  16.974  0.00  0.00    +0.000 A 
ATOM     12  C   UNL     1      49.273   4.445  18.174  0.00  0.00    +0.000 A 
ATOM     13  C   UNL     1      48.370   3.418  18.433  0.00  0.00    +0.000 A 
ATOM     14  C   UNL     1      47.399   3.109  17.487  0.00  0.00    +0.000 A 
ATOM     15  C   UNL     1      47.371   3.844  16.317  0.00  0.00    +0.000 A 
ATOM     16  N   UNL     1      48.229   4.849  16.043  0.00  0.00    +0.000 NA
ENDBRANCH  10  11
BRANCH  10  17
ATOM     17  C   UNL     1      51.491   6.113  17.397  0.00  0.00    +0.000 C 
BRANCH  17  18
ATOM     18  O   UNL     1      52.557   5.980  16.440  0.00  0.00    +0.000 OA
BRANCH  18  20
ATOM     19  C   UNL     1      53.808   7.474  15.036  0.00  0.00    +0.000 C 
ATOM     20  C   UNL     1      53.372   7.154  16.451  0.00  0.00    +0.000 C 
ENDBRANCH  18  20
ENDBRANCH  17  18
ENDBRANCH  10  17
ENDBRANCH   8  10
ENDBRANCH   7   8
ENDBRANCH   1   7
BRANCH   4  21
ATOM     21  C   UNL     1      46.012   8.243  12.085  0.00  0.00    +0.000 C 
BRANCH  21  22
ATOM     22  N   UNL     1      45.699   6.862  11.790  0.00  0.00    +0.000 N 
ATOM     23  C   UNL     1      44.437   6.457  11.434  0.00  0.00    +0.000 C 
ATOM     24  O   UNL     1      43.509   7.249  11.287  0.00  0.00    +0.000 OA
ATOM     25  H   UNL     1      46.332   6.159  12.159  0.00  0.00    +0.000 HD
BRANCH  23  26
ATOM     26  C   UNL     1      44.265   5.026  11.163  0.00  0.00    +0.000 A 
ATOM     27  C   UNL     1      43.494   4.258  12.024  0.00  0.00    +0.000 A 
ATOM     28  S   UNL     1      43.354   2.628  11.547  0.00  0.00    +0.000 S 
ATOM     29  C   UNL     1      44.359   2.879  10.199  0.00  0.00    +0.000 A 
ATOM     30  N   UNL     1      44.673   1.854   9.361  0.00  0.00    +0.000 NA
ATOM     31  C   UNL     1      45.467   2.180   8.396  0.00  0.00    +0.000 A 
ATOM     32  N   UNL     1      45.968   3.438   8.186  0.00  0.00    +0.000 N 
ATOM     33  C   UNL     1      45.652   4.510   8.986  0.00  0.00    +0.000 A 
ATOM     34  O   UNL     1      46.076   5.635   8.742  0.00  0.00    +0.000 OA
ATOM     35  C   UNL     1      44.777   4.195  10.099  0.00  0.00    +0.000 A 
ATOM     36  H   UNL     1      46.576   3.626   7.403  0.00  0.00    +0.000 HD
ENDBRANCH  23  26
ENDBRANCH  21  22
ENDBRANCH   4  21
TORSDOF 10
ENDMDL
MODEL 8
REMARK VINA RESULT:    -6.704      2.172      2.711
REMARK INTER + INTRA:         -11.841
REMARK INTER:                 -10.609
REMARK INTRA:                  -1.232
REMARK UNBOUND:                -1.218
REMARK  Name = 
REMARK  11 active torsions:
REMARK  status: ('A' for Active; 'I' for Inactive)
REMARK    1  A    between atoms: C_1  and  C_2
REMARK    2  A    between atoms: C_2  and  O_3
REMARK    3  A    between atoms: O_3  and  C_4
REMARK    4  A    between atoms: C_4  and  C_5
REMARK    5  A    between atoms: C_5  and  N_6
REMARK    6  A    between atoms: C_5  and  C_28
REMARK    7  A    between atoms: N_6  and  C_7
REMARK    8  A    between atoms: C_7  and  C_8
REMARK    9  A    between atoms: C_11  and  C_12
REMARK   10  A    between atoms: C_12  and  N_13
REMARK   11  A    between atoms: C_14  and  C_16
REMARK                            x       y       z     vdW  Elec       q    Type
REMARK                         _______ _______ _______ _____ _____    ______ ____
ROOT
ATOM      1  C   UNL     1      47.276   7.303  11.384  0.00  0.00    +0.000 C 
ATOM      2  C   UNL     1      46.873   8.539  12.199  0.00  0.00    +0.000 C 
ATOM      3  C   UNL     1      46.842   8.267  13.700  0.00  0.00    +0.000 C 
ATOM      4  C   UNL     1      48.167   7.680  14.225  0.00  0.00    +0.000 C 
ATOM      5  C   UNL     1      48.654   6.496  13.373  0.00  0.00    +0.000 C 
ATOM      6  C   UNL     1      48.651   6.814  11.875  0.00  0.00    +0.000 C 
ENDROOT
BRANCH   1   7
ATOM      7  C   UNL     1      46.260   6.141  11.455  0.00  0.00    +0.000 C 
BRANCH   7   8
ATOM      8  N   UNL     1      45.505   5.945  10.214  0.00  0.00    +0.000 NA
ATOM      9  H   UNL     1      44.677   6.546  10.245  0.00  0.00    +0.000 HD
BRANCH   8  10
ATOM     10  C   UNL     1      44.972   4.551  10.103  0.00  0.00    +0.000 C 
BRANCH  10  11
ATOM     11  C   UNL     1      45.645   3.724   9.004  0.00  0.00    +0.000 A 
ATOM     12  C   UNL     1      45.635   2.331   9.074  0.00  0.00    +0.000 A 
ATOM     13  C   UNL     1      46.208   1.597   8.039  0.00  0.00    +0.000 A 
ATOM     14  C   UNL     1      46.786   2.267   6.967  0.00  0.00    +0.000 A 
ATOM     15  C   UNL     1      46.765   3.649   6.973  0.00  0.00    +0.000 A 
ATOM     16  N   UNL     1      46.211   4.386   7.958  0.00  0.00    +0.000 NA
ENDBRANCH  10  11
BRANCH  10  17
ATOM     17  C   UNL     1      44.965   3.786  11.455  0.00  0.00    +0.000 C 
BRANCH  17  18
ATOM     18  O   UNL     1      43.626   3.454  11.863  0.00  0.00    +0.000 OA
BRANCH  18  20
ATOM     19  C   UNL     1      42.340   5.476  12.025  0.00  0.00    +0.000 C 
ATOM     20  C   UNL     1      43.138   4.434  12.782  0.00  0.00    +0.000 C 
ENDBRANCH  18  20
ENDBRANCH  17  18
ENDBRANCH  10  17
ENDBRANCH   8  10
ENDBRANCH   7   8
ENDBRANCH   1   7
BRANCH   4  21
ATOM     21  C   UNL     1      48.051   7.240  15.694  0.00  0.00    +0.000 C 
BRANCH  21  22
ATOM     22  N   UNL     1      49.141   6.376  16.092  0.00  0.00    +0.000 N 
ATOM     23  C   UNL     1      49.592   6.315  17.386  0.00  0.00    +0.000 C 
ATOM     24  O   UNL     1      49.060   6.944  18.298  0.00  0.00    +0.000 OA
ATOM     25  H   UNL     1      49.772   6.066  15.359  0.00  0.00    +0.000 HD
BRANCH  23  26
ATOM     26  C   UNL     1      50.704   5.395  17.646  0.00  0.00    +0.000 A 
ATOM     27  C   UNL     1      51.914   5.901  18.097  0.00  0.00    +0.000 A 
ATOM     28  S   UNL     1      53.089   4.702  18.394  0.00  0.00    +0.000 S 
ATOM     29  C   UNL     1      52.038   3.468  17.883  0.00  0.00    +0.000 A 
ATOM     30  N   UNL     1      52.441   2.169  17.866  0.00  0.00    +0.000 NA
ATOM     31  C   UNL     1      51.551   1.341  17.430  0.00  0.00    +0.000 A 
ATOM     32  N   UNL     1      50.292   1.691  17.017  0.00  0.00    +0.000 N 
ATOM     33  C   UNL     1      49.830   2.985  17.049  0.00  0.00    +0.000 A 
ATOM     34  O   UNL     1      48.680   3.259  16.722  0.00  0.00    +0.000 OA
ATOM     35  C   UNL     1      50.798   3.960  17.514  0.00  0.00    +0.000 A 
ATOM     36  H   UNL     1      49.642   0.989  16.699  0.00  0.00    +0.000 HD
ENDBRANCH  23  26
ENDBRANCH  21  22
ENDBRANCH   4  21
TORSDOF 10
ENDMDL
MODEL 9
REMARK VINA RESULT:    -6.603      3.590      5.962
REMARK INTER + INTRA:         -11.682
REMARK INTER:                  -9.609
REMARK INTRA:                  -2.073
REMARK UNBOUND:                -1.218
REMARK  Name = 
REMARK  11 active torsions:
REMARK  status: ('A' for Active; 'I' for Inactive)
REMARK    1  A    between atoms: C_1  and  C_2
REMARK    2  A    between atoms: C_2  and  O_3
REMARK    3  A    between atoms: O_3  and  C_4
REMARK    4  A    between atoms: C_4  and  C_5
REMARK    5  A    between atoms: C_5  and  N_6
REMARK    6  A    between atoms: C_5  and  C_28
REMARK    7  A    between atoms: N_6  and  C_7
REMARK    8  A    between atoms: C_7  and  C_8
REMARK    9  A    between atoms: C_11  and  C_12
REMARK   10  A    between atoms: C_12  and  N_13
REMARK   11  A    between atoms: C_14  and  C_16
REMARK                            x       y       z     vdW  Elec       q    Type
REMARK                         _______ _______ _______ _____ _____    ______ ____
ROOT
ATOM      1  C   UNL     1      48.103   2.731  16.535  0.00  0.00    +0.000 C 
ATOM      2  C   UNL     1      49.560   2.726  17.014  0.00  0.00    +0.000 C 
ATOM      3  C   UNL     1      49.928   3.989  17.788  0.00  0.00    +0.000 C 
ATOM      4  C   UNL     1      48.972   4.263  18.965  0.00  0.00    +0.000 C 
ATOM      5  C   UNL     1      47.495   4.182  18.543  0.00  0.00    +0.000 C 
ATOM      6  C   UNL     1      47.182   2.906  17.757  0.00  0.00    +0.000 C 
ENDROOT
BRANCH   1   7
ATOM      7  C   UNL     1      47.785   3.823  15.490  0.00  0.00    +0.000 C 
BRANCH   7   8
ATOM      8  N   UNL     1      47.190   3.301  14.256  0.00  0.00    +0.000 NA
ATOM      9  H   UNL     1      47.869   2.676  13.813  0.00  0.00    +0.000 HD
BRANCH   8  10
ATOM     10  C   UNL     1      46.946   4.386  13.255  0.00  0.00    +0.000 C 
BRANCH  10  11
ATOM     11  C   UNL     1      45.501   4.437  12.749  0.00  0.00    +0.000 A 
ATOM     12  C   UNL     1      44.971   5.637  12.274  0.00  0.00    +0.000 A 
ATOM     13  C   UNL     1      43.673   5.650  11.771  0.00  0.00    +0.000 A 
ATOM     14  C   UNL     1      42.933   4.474  11.762  0.00  0.00    +0.000 A 
ATOM     15  C   UNL     1      43.524   3.327  12.257  0.00  0.00    +0.000 A 
ATOM     16  N   UNL     1      44.781   3.283  12.745  0.00  0.00    +0.000 NA
ENDBRANCH  10  11
BRANCH  10  17
ATOM     17  C   UNL     1      47.420   5.785  13.736  0.00  0.00    +0.000 C 
BRANCH  17  18
ATOM     18  O   UNL     1      48.575   6.228  13.001  0.00  0.00    +0.000 OA
BRANCH  18  20
ATOM     19  C   UNL     1      47.526   8.373  12.737  0.00  0.00    +0.000 C 
ATOM     20  C   UNL     1      48.192   7.209  12.034  0.00  0.00    +0.000 C 
ENDBRANCH  18  20
ENDBRANCH  17  18
ENDBRANCH  10  17
ENDBRANCH   8  10
ENDBRANCH   7   8
ENDBRANCH   1   7
BRANCH   4  21
ATOM     21  C   UNL     1      49.245   5.631  19.611  0.00  0.00    +0.000 C 
BRANCH  21  22
ATOM     22  N   UNL     1      49.491   6.661  18.624  0.00  0.00    +0.000 N 
ATOM     23  C   UNL     1      48.548   7.602  18.299  0.00  0.00    +0.000 C 
ATOM     24  O   UNL     1      47.459   7.666  18.866  0.00  0.00    +0.000 OA
ATOM     25  H   UNL     1      50.231   6.485  17.953  0.00  0.00    +0.000 HD
BRANCH  23  26
ATOM     26  C   UNL     1      48.933   8.586  17.281  0.00  0.00    +0.000 A 
ATOM     27  C   UNL     1      48.497   9.897  17.404  0.00  0.00    +0.000 A 
ATOM     28  S   UNL     1      49.065  10.925  16.169  0.00  0.00    +0.000 S 
ATOM     29  C   UNL     1      49.875   9.643  15.400  0.00  0.00    +0.000 A 
ATOM     30  N   UNL     1      50.561   9.844  14.242  0.00  0.00    +0.000 NA
ATOM     31  C   UNL     1      51.104   8.779  13.754  0.00  0.00    +0.000 A 
ATOM     32  N   UNL     1      51.032   7.534  14.321  0.00  0.00    +0.000 N 
ATOM     33  C   UNL     1      50.380   7.291  15.506  0.00  0.00    +0.000 A 
ATOM     34  O   UNL     1      50.378   6.174  16.015  0.00  0.00    +0.000 OA
ATOM     35  C   UNL     1      49.734   8.451  16.089  0.00  0.00    +0.000 A 
ATOM     36  H   UNL     1      51.492   6.746  13.890  0.00  0.00    +0.000 HD
ENDBRANCH  23  26
ENDBRANCH  21  22
ENDBRANCH   4  21
TORSDOF 10
ENDMDL
