MODEL 1
REMARK VINA RESULT:    -7.374      0.000      0.000
REMARK INTER + INTRA:         -10.417
REMARK INTER:                  -9.960
REMARK INTRA:                  -0.457
REMARK UNBOUND:                -0.457
REMARK  Name = 
REMARK  7 active torsions:
REMARK  status: ('A' for Active; 'I' for Inactive)
REMARK    1  A    between atoms: N_1  and  C_2
REMARK    2  A    between atoms: C_2  and  C_3
REMARK    3  A    between atoms: C_6  and  S_7
REMARK    4  A    between atoms: S_7  and  C_8
REMARK    5  A    between atoms: C_8  and  C_9
REMARK    6  A    between atoms: C_13  and  C_14
REMARK    7  A    between atoms: C_14  and  O_15
REMARK                            x       y       z     vdW  Elec       q    Type
REMARK                         _______ _______ _______ _____ _____    ______ ____
ROOT
ATOM      1  S   UNL     1      44.040   3.101  10.646  0.00  0.00    +0.000 S 
ENDROOT
BRANCH   1   5
ATOM      2  C   UNL     1      46.626   2.753   6.828  0.00  0.00    +0.000 A 
ATOM      3  C   UNL     1      46.399   1.614   7.614  0.00  0.00    +0.000 A 
ATOM      4  C   UNL     1      45.638   1.684   8.790  0.00  0.00    +0.000 A 
ATOM      5  C   UNL     1      45.094   2.901   9.211  0.00  0.00    +0.000 A 
ATOM      6  C   UNL     1      45.320   4.039   8.426  0.00  0.00    +0.000 A 
ATOM      7  C   UNL     1      46.078   3.968   7.251  0.00  0.00    +0.000 A 
BRANCH   2   8
ATOM      8  C   UNL     1      47.446   2.679   5.563  0.00  0.00    +0.000 C 
BRANCH   8   9
ATOM      9  N   UNL     1      48.562   1.748   5.690  0.00  0.00    +0.000 NA
ATOM     10  H   UNL     1      49.430   2.242   5.490  0.00  0.00    +0.000 HD
ATOM     11  H   UNL     1      48.471   1.030   4.972  0.00  0.00    +0.000 HD
ENDBRANCH   8   9
ENDBRANCH   2   8
ENDBRANCH   1   5
BRANCH   1  12
ATOM     12  C   UNL     1      44.060   4.901  10.946  0.00  0.00    +0.000 C 
BRANCH  12  13
ATOM     13  C   UNL     1      45.256   5.310  11.771  0.00  0.00    +0.000 A 
ATOM     14  C   UNL     1      46.087   6.345  11.355  0.00  0.00    +0.000 A 
ATOM     15  N   UNL     1      47.174   6.771  12.039  0.00  0.00    +0.000 NA
ATOM     16  C   UNL     1      47.461   6.126  13.189  0.00  0.00    +0.000 A 
ATOM     17  C   UNL     1      46.706   5.078  13.709  0.00  0.00    +0.000 A 
ATOM     18  C   UNL     1      45.594   4.660  12.965  0.00  0.00    +0.000 A 
BRANCH  17  19
ATOM     19  C   UNL     1      47.148   4.394  14.971  0.00  0.00    +0.000 C 
BRANCH  19  20
ATOM     20  O   UNL     1      47.548   3.052  14.729  0.00  0.00    +0.000 OA
ATOM     21  H   UNL     1      48.404   3.093  14.269  0.00  0.00    +0.000 HD
ENDBRANCH  19  20
ENDBRANCH  17  19
ENDBRANCH  12  13
ENDBRANCH   1  12
TORSDOF 7
ENDMDL
MODEL 2
REMARK VINA RESULT:    -7.192      2.615      6.610
REMARK INTER + INTRA:         -10.172
REMARK INTER:                  -9.724
REMARK INTRA:                  -0.448
REMARK UNBOUND:                -0.457
REMARK  Name = 
REMARK  7 active torsions:
REMARK  status: ('A' for Active; 'I' for Inactive)
REMARK    1  A    between atoms: N_1  and  C_2
REMARK    2  A    between atoms: C_2  and  C_3
REMARK    3  A    between atoms: C_6  and  S_7
REMARK    4  A    between atoms: S_7  and  C_8
REMARK    5  A    between atoms: C_8  and  C_9
REMARK    6  A    between atoms: C_13  and  C_14
REMARK    7  A    between atoms: C_14  and  O_15
REMARK                            x       y       z     vdW  Elec       q    Type
REMARK                         _______ _______ _______ _____ _____    ______ ____
ROOT
ATOM      1  S   UNL     1      43.894   3.890  10.746  0.00  0.00    +0.000 S 
ENDROOT
BRANCH   1   5
ATOM      2  C   UNL     1      47.121   6.295  13.024  0.00  0.00    +0.000 A 
ATOM      3  C   UNL     1      46.543   5.170  13.631  0.00  0.00    +0.000 A 
ATOM      4  C   UNL     1      45.545   4.429  12.980  0.00  0.00    +0.000 A 
ATOM      5  C   UNL     1      45.099   4.802  11.709  0.00  0.00    +0.000 A 
ATOM      6  C   UNL     1      45.678   5.925  11.103  0.00  0.00    +0.000 A 
ATOM      7  C   UNL     1      46.674   6.664  11.751  0.00  0.00    +0.000 A 
BRANCH   2   8
ATOM      8  C   UNL     1      48.193   7.095  13.724  0.00  0.00    +0.000 C 
BRANCH   8   9
ATOM      9  N   UNL     1      48.889   6.307  14.734  0.00  0.00    +0.000 NA
ATOM     10  H   UNL     1      48.921   5.335  14.432  0.00  0.00    +0.000 HD
ATOM     11  H   UNL     1      48.341   6.320  15.594  0.00  0.00    +0.000 HD
ENDBRANCH   8   9
ENDBRANCH   2   8
ENDBRANCH   1   5
BRANCH   1  12
ATOM     12  C   UNL     1      44.320   4.306   9.021  0.00  0.00    +0.000 C 
BRANCH  12  13
ATOM     13  C   UNL     1      45.200   3.250   8.401  0.00  0.00    +0.000 A 
ATOM     14  C   UNL     1      45.286   1.977   8.956  0.00  0.00    +0.000 A 
ATOM     15  N   UNL     1      46.049   0.977   8.458  0.00  0.00    +0.000 NA
ATOM     16  C   UNL     1      46.779   1.259   7.358  0.00  0.00    +0.000 A 
ATOM     17  C   UNL     1      46.778   2.492   6.712  0.00  0.00    +0.000 A 
ATOM     18  C   UNL     1      45.981   3.504   7.265  0.00  0.00    +0.000 A 
BRANCH  17  19
ATOM     19  C   UNL     1      47.672   2.714   5.525  0.00  0.00    +0.000 C 
BRANCH  19  20
ATOM     20  O   UNL     1      48.669   1.706   5.423  0.00  0.00    +0.000 OA
ATOM     21  H   UNL     1      49.285   1.844   6.163  0.00  0.00    +0.000 HD
ENDBRANCH  19  20
ENDBRANCH  17  19
ENDBRANCH  12  13
ENDBRANCH   1  12
TORSDOF 7
ENDMDL
MODEL 3
REMARK VINA RESULT:    -7.174      1.844      2.225
REMARK INTER + INTRA:         -10.147
REMARK INTER:                  -9.670
REMARK INTRA:                  -0.477
REMARK UNBOUND:                -0.457
REMARK  Name = 
REMARK  7 active torsions:
REMARK  status: ('A' for Active; 'I' for Inactive)
REMARK    1  A    between atoms: N_1  and  C_2
REMARK    2  A    between atoms: C_2  and  C_3
REMARK    3  A    between atoms: C_6  and  S_7
REMARK    4  A    between atoms: S_7  and  C_8
REMARK    5  A    between atoms: C_8  and  C_9
REMARK    6  A    between atoms: C_13  and  C_14
REMARK    7  A    between atoms: C_14  and  O_15
REMARK                            x       y       z     vdW  Elec       q    Type
REMARK                         _______ _______ _______ _____ _____    ______ ____
ROOT
ATOM      1  S   UNL     1      43.739   4.455  10.481  0.00  0.00    +0.000 S 
ENDROOT
BRANCH   1   5
ATOM      2  C   UNL     1      46.608   2.363   7.518  0.00  0.00    +0.000 A 
ATOM      3  C   UNL     1      45.897   1.592   8.451  0.00  0.00    +0.000 A 
ATOM      4  C   UNL     1      45.035   2.193   9.380  0.00  0.00    +0.000 A 
ATOM      5  C   UNL     1      44.870   3.582   9.400  0.00  0.00    +0.000 A 
ATOM      6  C   UNL     1      45.579   4.350   8.468  0.00  0.00    +0.000 A 
ATOM      7  C   UNL     1      46.439   3.751   7.541  0.00  0.00    +0.000 A 
BRANCH   2   8
ATOM      8  C   UNL     1      47.538   1.717   6.520  0.00  0.00    +0.000 C 
BRANCH   8   9
ATOM      9  N   UNL     1      48.670   2.577   6.195  0.00  0.00    +0.000 NA
ATOM     10  H   UNL     1      49.498   2.232   6.679  0.00  0.00    +0.000 HD
ATOM     11  H   UNL     1      48.491   3.509   6.568  0.00  0.00    +0.000 HD
ENDBRANCH   8   9
ENDBRANCH   2   8
ENDBRANCH   1   5
BRANCH   1  12
ATOM     12  C   UNL     1      44.207   3.878  12.148  0.00  0.00    +0.000 C 
BRANCH  12  13
ATOM     13  C   UNL     1      45.384   4.652  12.689  0.00  0.00    +0.000 A 
ATOM     14  C   UNL     1      46.390   4.010  13.405  0.00  0.00    +0.000 A 
ATOM     15  N   UNL     1      47.476   4.632  13.918  0.00  0.00    +0.000 NA
ATOM     16  C   UNL     1      47.562   5.965  13.724  0.00  0.00    +0.000 A 
ATOM     17  C   UNL     1      46.623   6.718  13.025  0.00  0.00    +0.000 A 
ATOM     18  C   UNL     1      45.507   6.037  12.517  0.00  0.00    +0.000 A 
BRANCH  17  19
ATOM     19  C   UNL     1      46.790   8.206  12.915  0.00  0.00    +0.000 C 
BRANCH  19  20
ATOM     20  O   UNL     1      46.665   8.843  14.180  0.00  0.00    +0.000 OA
ATOM     21  H   UNL     1      47.555   9.144  14.432  0.00  0.00    +0.000 HD
ENDBRANCH  19  20
ENDBRANCH  17  19
ENDBRANCH  12  13
ENDBRANCH   1  12
TORSDOF 7
ENDMDL
MODEL 4
REMARK VINA RESULT:    -6.733      1.588      1.802
REMARK INTER + INTRA:          -9.552
REMARK INTER:                  -9.131
REMARK INTRA:                  -0.420
REMARK UNBOUND:                -0.457
REMARK  Name = 
REMARK  7 active torsions:
REMARK  status: ('A' for Active; 'I' for Inactive)
REMARK    1  A    between atoms: N_1  and  C_2
REMARK    2  A    between atoms: C_2  and  C_3
REMARK    3  A    between atoms: C_6  and  S_7
REMARK    4  A    between atoms: S_7  and  C_8
REMARK    5  A    between atoms: C_8  and  C_9
REMARK    6  A    between atoms: C_13  and  C_14
REMARK    7  A    between atoms: C_14  and  O_15
REMARK                            x       y       z     vdW  Elec       q    Type
REMARK                         _______ _______ _______ _____ _____    ______ ____
ROOT
ATOM      1  S   UNL     1      43.697   4.375  10.652  0.00  0.00    +0.000 S 
ENDROOT
BRANCH   1   5
ATOM      2  C   UNL     1      46.496   2.455   7.512  0.00  0.00    +0.000 A 
ATOM      3  C   UNL     1      45.835   1.636   8.439  0.00  0.00    +0.000 A 
ATOM      4  C   UNL     1      44.995   2.183   9.420  0.00  0.00    +0.000 A 
ATOM      5  C   UNL     1      44.805   3.567   9.500  0.00  0.00    +0.000 A 
ATOM      6  C   UNL     1      45.464   4.384   8.573  0.00  0.00    +0.000 A 
ATOM      7  C   UNL     1      46.301   3.837   7.593  0.00  0.00    +0.000 A 
BRANCH   2   8
ATOM      8  C   UNL     1      47.402   1.867   6.457  0.00  0.00    +0.000 C 
BRANCH   8   9
ATOM      9  N   UNL     1      48.663   2.591   6.356  0.00  0.00    +0.000 NA
ATOM     10  H   UNL     1      49.305   2.060   5.770  0.00  0.00    +0.000 HD
ATOM     11  H   UNL     1      49.092   2.632   7.281  0.00  0.00    +0.000 HD
ENDBRANCH   8   9
ENDBRANCH   2   8
ENDBRANCH   1   5
BRANCH   1  12
ATOM     12  C   UNL     1      44.606   4.318  12.233  0.00  0.00    +0.000 C 
BRANCH  12  13
ATOM     13  C   UNL     1      45.353   5.604  12.487  0.00  0.00    +0.000 A 
ATOM     14  C   UNL     1      44.819   6.827  12.093  0.00  0.00    +0.000 A 
ATOM     15  N   UNL     1      45.425   8.021  12.288  0.00  0.00    +0.000 NA
ATOM     16  C   UNL     1      46.632   8.000  12.891  0.00  0.00    +0.000 A 
ATOM     17  C   UNL     1      47.268   6.843  13.331  0.00  0.00    +0.000 A 
ATOM     18  C   UNL     1      46.612   5.625  13.102  0.00  0.00    +0.000 A 
BRANCH  17  19
ATOM     19  C   UNL     1      48.637   6.929  13.942  0.00  0.00    +0.000 C 
BRANCH  19  20
ATOM     20  O   UNL     1      49.658   6.718  12.976  0.00  0.00    +0.000 OA
ATOM     21  H   UNL     1      50.485   6.572  13.468  0.00  0.00    +0.000 HD
ENDBRANCH  19  20
ENDBRANCH  17  19
ENDBRANCH  12  13
ENDBRANCH   1  12
TORSDOF 7
ENDMDL
MODEL 5
REMARK VINA RESULT:    -6.125      3.145      7.033
REMARK INTER + INTRA:          -8.730
REMARK INTER:                  -8.378
REMARK INTRA:                  -0.352
REMARK UNBOUND:                -0.457
REMARK  Name = 
REMARK  7 active torsions:
REMARK  status: ('A' for Active; 'I' for Inactive)
REMARK    1  A    between atoms: N_1  and  C_2
REMARK    2  A    between atoms: C_2  and  C_3
REMARK    3  A    between atoms: C_6  and  S_7
REMARK    4  A    between atoms: S_7  and  C_8
REMARK    5  A    between atoms: C_8  and  C_9
REMARK    6  A    between atoms: C_13  and  C_14
REMARK    7  A    between atoms: C_14  and  O_15
REMARK                            x       y       z     vdW  Elec       q    Type
REMARK                         _______ _______ _______ _____ _____    ______ ____
ROOT
ATOM      1  S   UNL     1      46.854   6.652  11.621  0.00  0.00    +0.000 S 
ENDROOT
BRANCH   1   5
ATOM      2  C   UNL     1      47.589   4.727  15.761  0.00  0.00    +0.000 A 
ATOM      3  C   UNL     1      48.233   5.930  15.435  0.00  0.00    +0.000 A 
ATOM      4  C   UNL     1      48.052   6.533  14.182  0.00  0.00    +0.000 A 
ATOM      5  C   UNL     1      47.227   5.939  13.221  0.00  0.00    +0.000 A 
ATOM      6  C   UNL     1      46.583   4.738  13.547  0.00  0.00    +0.000 A 
ATOM      7  C   UNL     1      46.763   4.138  14.799  0.00  0.00    +0.000 A 
BRANCH   2   8
ATOM      8  C   UNL     1      47.784   4.077  17.109  0.00  0.00    +0.000 C 
BRANCH   8   9
ATOM      9  N   UNL     1      46.666   3.210  17.464  0.00  0.00    +0.000 NA
ATOM     10  H   UNL     1      46.570   3.192  18.478  0.00  0.00    +0.000 HD
ATOM     11  H   UNL     1      46.890   2.256  17.183  0.00  0.00    +0.000 HD
ENDBRANCH   8   9
ENDBRANCH   2   8
ENDBRANCH   1   5
BRANCH   1  12
ATOM     12  C   UNL     1      45.083   6.282  11.388  0.00  0.00    +0.000 C 
BRANCH  12  13
ATOM     13  C   UNL     1      44.883   5.030  10.571  0.00  0.00    +0.000 A 
ATOM     14  C   UNL     1      44.017   4.030  11.000  0.00  0.00    +0.000 A 
ATOM     15  N   UNL     1      43.782   2.882  10.323  0.00  0.00    +0.000 NA
ATOM     16  C   UNL     1      44.455   2.710   9.165  0.00  0.00    +0.000 A 
ATOM     17  C   UNL     1      45.346   3.636   8.632  0.00  0.00    +0.000 A 
ATOM     18  C   UNL     1      45.569   4.808   9.369  0.00  0.00    +0.000 A 
BRANCH  17  19
ATOM     19  C   UNL     1      46.083   3.319   7.362  0.00  0.00    +0.000 C 
BRANCH  19  20
ATOM     20  O   UNL     1      46.851   4.426   6.910  0.00  0.00    +0.000 OA
ATOM     21  H   UNL     1      47.073   4.252   5.979  0.00  0.00    +0.000 HD
ENDBRANCH  19  20
ENDBRANCH  17  19
ENDBRANCH  12  13
ENDBRANCH   1  12
TORSDOF 7
ENDMDL
MODEL 6
REMARK VINA RESULT:    -5.912      2.316      6.432
REMARK INTER + INTRA:          -8.443
REMARK INTER:                  -7.998
REMARK INTRA:                  -0.445
REMARK UNBOUND:                -0.457
REMARK  Name = 
REMARK  7 active torsions:
REMARK  status: ('A' for Active; 'I' for Inactive)
REMARK    1  A    between atoms: N_1  and  C_2
REMARK    2  A    between atoms: C_2  and  C_3
REMARK    3  A    between atoms: C_6  and  S_7
REMARK    4  A    between atoms: S_7  and  C_8
REMARK    5  A    between atoms: C_8  and  C_9
REMARK    6  A    between atoms: C_13  and  C_14
REMARK    7  A    between atoms: C_14  and  O_15
REMARK                            x       y       z     vdW  Elec       q    Type
REMARK                         _______ _______ _______ _____ _____    ______ ____
ROOT
ATOM      1  S   UNL     1      44.265   3.853  11.766  0.00  0.00    +0.000 S 
ENDROOT
BRANCH   1   5
ATOM      2  C   UNL     1      47.671   6.397  13.587  0.00  0.00    +0.000 A 
ATOM      3  C   UNL     1      47.085   6.794  12.376  0.00  0.00    +0.000 A 
ATOM      4  C   UNL     1      46.065   6.037  11.781  0.00  0.00    +0.000 A 
ATOM      5  C   UNL     1      45.613   4.858  12.384  0.00  0.00    +0.000 A 
ATOM      6  C   UNL     1      46.197   4.463  13.594  0.00  0.00    +0.000 A 
ATOM      7  C   UNL     1      47.214   5.220  14.188  0.00  0.00    +0.000 A 
BRANCH   2   8
ATOM      8  C   UNL     1      48.770   7.210  14.226  0.00  0.00    +0.000 C 
BRANCH   8   9
ATOM      9  N   UNL     1      48.423   7.628  15.579  0.00  0.00    +0.000 NA
ATOM     10  H   UNL     1      48.440   8.646  15.627  0.00  0.00    +0.000 HD
ATOM     11  H   UNL     1      49.149   7.302  16.218  0.00  0.00    +0.000 HD
ENDBRANCH   8   9
ENDBRANCH   2   8
ENDBRANCH   1   5
BRANCH   1  12
ATOM     12  C   UNL     1      44.010   4.474  10.069  0.00  0.00    +0.000 C 
BRANCH  12  13
ATOM     13  C   UNL     1      44.989   3.854   9.102  0.00  0.00    +0.000 A 
ATOM     14  C   UNL     1      45.752   4.649   8.254  0.00  0.00    +0.000 A 
ATOM     15  N   UNL     1      46.651   4.170   7.364  0.00  0.00    +0.000 NA
ATOM     16  C   UNL     1      46.789   2.829   7.300  0.00  0.00    +0.000 A 
ATOM     17  C   UNL     1      46.085   1.930   8.096  0.00  0.00    +0.000 A 
ATOM     18  C   UNL     1      45.156   2.466   8.999  0.00  0.00    +0.000 A 
BRANCH  17  19
ATOM     19  C   UNL     1      46.277   0.453   7.905  0.00  0.00    +0.000 C 
BRANCH  19  20
ATOM     20  O   UNL     1      47.655   0.102   7.872  0.00  0.00    +0.000 OA
ATOM     21  H   UNL     1      47.786  -0.446   7.079  0.00  0.00    +0.000 HD
ENDBRANCH  19  20
ENDBRANCH  17  19
ENDBRANCH  12  13
ENDBRANCH   1  12
TORSDOF 7
ENDMDL
MODEL 7
REMARK VINA RESULT:    -5.831      1.512      2.232
REMARK INTER + INTRA:          -8.332
REMARK INTER:                  -7.828
REMARK INTRA:                  -0.505
REMARK UNBOUND:                -0.457
REMARK  Name = 
REMARK  7 active torsions:
REMARK  status: ('A' for Active; 'I' for Inactive)
REMARK    1  A    between atoms: N_1  and  C_2
REMARK    2  A    between atoms: C_2  and  C_3
REMARK    3  A    between atoms: C_6  and  S_7
REMARK    4  A    between atoms: S_7  and  C_8
REMARK    5  A    between atoms: C_8  and  C_9
REMARK    6  A    between atoms: C_13  and  C_14
REMARK    7  A    between atoms: C_14  and  O_15
REMARK                            x       y       z     vdW  Elec       q    Type
REMARK                         _______ _______ _______ _____ _____    ______ ____
ROOT
ATOM      1  S   UNL     1      43.515   5.845  11.385  0.00  0.00    +0.000 S 
ENDROOT
BRANCH   1   5
ATOM      2  C   UNL     1      45.421   2.470   8.863  0.00  0.00    +0.000 A 
ATOM      3  C   UNL     1      45.721   3.807   8.564  0.00  0.00    +0.000 A 
ATOM      4  C   UNL     1      45.145   4.859   9.293  0.00  0.00    +0.000 A 
ATOM      5  C   UNL     1      44.249   4.594  10.333  0.00  0.00    +0.000 A 
ATOM      6  C   UNL     1      43.951   3.258  10.632  0.00  0.00    +0.000 A 
ATOM      7  C   UNL     1      44.527   2.209   9.906  0.00  0.00    +0.000 A 
BRANCH   2   8
ATOM      8  C   UNL     1      46.039   1.338   8.078  0.00  0.00    +0.000 C 
BRANCH   8   9
ATOM      9  N   UNL     1      47.224   1.765   7.345  0.00  0.00    +0.000 NA
ATOM     10  H   UNL     1      48.043   1.648   7.941  0.00  0.00    +0.000 HD
ATOM     11  H   UNL     1      47.150   2.765   7.158  0.00  0.00    +0.000 HD
ENDBRANCH   8   9
ENDBRANCH   2   8
ENDBRANCH   1   5
BRANCH   1  12
ATOM     12  C   UNL     1      44.754   7.184  11.388  0.00  0.00    +0.000 C 
BRANCH  12  13
ATOM     13  C   UNL     1      45.881   6.891  12.348  0.00  0.00    +0.000 A 
ATOM     14  C   UNL     1      46.946   7.775  12.487  0.00  0.00    +0.000 A 
ATOM     15  N   UNL     1      47.990   7.584  13.327  0.00  0.00    +0.000 NA
ATOM     16  C   UNL     1      47.985   6.449  14.056  0.00  0.00    +0.000 A 
ATOM     17  C   UNL     1      46.977   5.490  14.007  0.00  0.00    +0.000 A 
ATOM     18  C   UNL     1      45.918   5.720  13.117  0.00  0.00    +0.000 A 
BRANCH  17  19
ATOM     19  C   UNL     1      47.099   4.236  14.824  0.00  0.00    +0.000 C 
BRANCH  19  20
ATOM     20  O   UNL     1      47.257   3.087  14.002  0.00  0.00    +0.000 OA
ATOM     21  H   UNL     1      46.588   3.151  13.298  0.00  0.00    +0.000 HD
ENDBRANCH  19  20
ENDBRANCH  17  19
ENDBRANCH  12  13
ENDBRANCH   1  12
TORSDOF 7
ENDMDL
MODEL 8
REMARK VINA RESULT:    -5.672      2.843      6.242
REMARK INTER + INTRA:          -8.118
REMARK INTER:                  -7.599
REMARK INTRA:                  -0.520
REMARK UNBOUND:                -0.457
REMARK  Name = 
REMARK  7 active torsions:
REMARK  status: ('A' for Active; 'I' for Inactive)
REMARK    1  A    between atoms: N_1  and  C_2
REMARK    2  A    between atoms: C_2  and  C_3
REMARK    3  A    between atoms: C_6  and  S_7
REMARK    4  A    between atoms: S_7  and  C_8
REMARK    5  A    between atoms: C_8  and  C_9
REMARK    6  A    between atoms: C_13  and  C_14
REMARK    7  A    between atoms: C_14  and  O_15
REMARK                            x       y       z     vdW  Elec       q    Type
REMARK                         _______ _______ _______ _____ _____    ______ ____
ROOT
ATOM      1  S   UNL     1      44.137   5.406  12.706  0.00  0.00    +0.000 S 
ENDROOT
BRANCH   1   5
ATOM      2  C   UNL     1      48.252   7.514  12.645  0.00  0.00    +0.000 A 
ATOM      3  C   UNL     1      47.125   8.187  12.150  0.00  0.00    +0.000 A 
ATOM      4  C   UNL     1      45.864   7.572  12.131  0.00  0.00    +0.000 A 
ATOM      5  C   UNL     1      45.705   6.265  12.602  0.00  0.00    +0.000 A 
ATOM      6  C   UNL     1      46.831   5.594  13.098  0.00  0.00    +0.000 A 
ATOM      7  C   UNL     1      48.088   6.208  13.117  0.00  0.00    +0.000 A 
BRANCH   2   8
ATOM      8  C   UNL     1      49.609   8.174  12.663  0.00  0.00    +0.000 C 
BRANCH   8   9
ATOM      9  N   UNL     1      50.627   7.345  12.028  0.00  0.00    +0.000 NA
ATOM     10  H   UNL     1      51.521   7.833  12.063  0.00  0.00    +0.000 HD
ATOM     11  H   UNL     1      50.397   7.245  11.039  0.00  0.00    +0.000 HD
ENDBRANCH   8   9
ENDBRANCH   2   8
ENDBRANCH   1   5
BRANCH   1  12
ATOM     12  C   UNL     1      43.536   5.401  10.983  0.00  0.00    +0.000 C 
BRANCH  12  13
ATOM     13  C   UNL     1      44.112   4.246  10.201  0.00  0.00    +0.000 A 
ATOM     14  C   UNL     1      43.821   2.932  10.553  0.00  0.00    +0.000 A 
ATOM     15  N   UNL     1      44.295   1.846   9.901  0.00  0.00    +0.000 NA
ATOM     16  C   UNL     1      45.115   2.074   8.853  0.00  0.00    +0.000 A 
ATOM     17  C   UNL     1      45.478   3.341   8.405  0.00  0.00    +0.000 A 
ATOM     18  C   UNL     1      44.974   4.440   9.113  0.00  0.00    +0.000 A 
BRANCH  17  19
ATOM     19  C   UNL     1      46.442   3.480   7.261  0.00  0.00    +0.000 C 
BRANCH  19  20
ATOM     20  O   UNL     1      47.083   4.748   7.266  0.00  0.00    +0.000 OA
ATOM     21  H   UNL     1      47.601   4.798   8.087  0.00  0.00    +0.000 HD
ENDBRANCH  19  20
ENDBRANCH  17  19
ENDBRANCH  12  13
ENDBRANCH   1  12
TORSDOF 7
ENDMDL
MODEL 9
REMARK VINA RESULT:    -5.577      3.024      6.931
REMARK INTER + INTRA:          -7.990
REMARK INTER:                  -7.669
REMARK INTRA:                  -0.321
REMARK UNBOUND:                -0.457
REMARK  Name = 
REMARK  7 active torsions:
REMARK  status: ('A' for Active; 'I' for Inactive)
REMARK    1  A    between atoms: N_1  and  C_2
REMARK    2  A    between atoms: C_2  and  C_3
REMARK    3  A    between atoms: C_6  and  S_7
REMARK    4  A    between atoms: S_7  and  C_8
REMARK    5  A    between atoms: C_8  and  C_9
REMARK    6  A    between atoms: C_13  and  C_14
REMARK    7  A    between atoms: C_14  and  O_15
REMARK                            x       y       z     vdW  Elec       q    Type
REMARK                         _______ _______ _______ _____ _____    ______ ____
ROOT
ATOM      1  S   UNL     1      47.809   7.033  12.409  0.00  0.00    +0.000 S 
ENDROOT
BRANCH   1   5
ATOM      2  C   UNL     1      47.773   4.723  16.415  0.00  0.00    +0.000 A 
ATOM      3  C   UNL     1      48.536   5.895  16.301  0.00  0.00    +0.000 A 
ATOM      4  C   UNL     1      48.590   6.611  15.096  0.00  0.00    +0.000 A 
ATOM      5  C   UNL     1      47.885   6.164  13.974  0.00  0.00    +0.000 A 
ATOM      6  C   UNL     1      47.122   4.995  14.088  0.00  0.00    +0.000 A 
ATOM      7  C   UNL     1      47.068   4.281  15.291  0.00  0.00    +0.000 A 
BRANCH   2   8
ATOM      8  C   UNL     1      47.717   3.951  17.711  0.00  0.00    +0.000 C 
BRANCH   8   9
ATOM      9  N   UNL     1      46.661   2.946  17.701  0.00  0.00    +0.000 NA
ATOM     10  H   UNL     1      46.808   2.303  18.479  0.00  0.00    +0.000 HD
ATOM     11  H   UNL     1      46.748   2.388  16.852  0.00  0.00    +0.000 HD
ENDBRANCH   8   9
ENDBRANCH   2   8
ENDBRANCH   1   5
BRANCH   1  12
ATOM     12  C   UNL     1      46.022   7.115  12.050  0.00  0.00    +0.000 C 
BRANCH  12  13
ATOM     13  C   UNL     1      45.584   5.975  11.164  0.00  0.00    +0.000 A 
ATOM     14  C   UNL     1      45.969   5.923   9.828  0.00  0.00    +0.000 A 
ATOM     15  N   UNL     1      45.621   4.935   8.973  0.00  0.00    +0.000 NA
ATOM     16  C   UNL     1      44.835   3.953   9.464  0.00  0.00    +0.000 A 
ATOM     17  C   UNL     1      44.387   3.893  10.780  0.00  0.00    +0.000 A 
ATOM     18  C   UNL     1      44.762   4.942  11.632  0.00  0.00    +0.000 A 
BRANCH  17  19
ATOM     19  C   UNL     1      43.471   2.783  11.208  0.00  0.00    +0.000 C 
BRANCH  19  20
ATOM     20  O   UNL     1      43.770   2.331  12.522  0.00  0.00    +0.000 OA
ATOM     21  H   UNL     1      44.537   1.737  12.447  0.00  0.00    +0.000 HD
ENDBRANCH  19  20
ENDBRANCH  17  19
ENDBRANCH  12  13
ENDBRANCH   1  12
TORSDOF 7
ENDMDL
