MODEL 1
REMARK VINA RESULT:    -9.033      0.000      0.000
REMARK INTER + INTRA:         -11.830
REMARK INTER:                 -11.409
REMARK INTRA:                  -0.421
REMARK UNBOUND:                -0.421
REMARK  Name = 
REMARK  5 active torsions:
REMARK  status: ('A' for Active; 'I' for Inactive)
REMARK    1  A    between atoms: C_2  and  C_4
REMARK    2  A    between atoms: C_7  and  S_8
REMARK    3  A    between atoms: S_8  and  C_9
REMARK    4  A    between atoms: C_9  and  C_10
REMARK    5  A    between atoms: C_18  and  O_19
REMARK                            x       y       z     vdW  Elec       q    Type
REMARK                         _______ _______ _______ _____ _____    ______ ____
ROOT
ATOM      1  C   UNL     1      45.675   4.428  12.971  0.00  0.00    +0.000 A 
ATOM      2  C   UNL     1      46.092   5.541  12.273  0.00  0.00    +0.000 A 
ATOM      3  C   UNL     1      47.060   6.300  12.878  0.00  0.00    +0.000 A 
ATOM      4  N   UNL     1      47.574   6.020  14.086  0.00  0.00    +0.000 NA
ATOM      5  C   UNL     1      47.120   4.932  14.725  0.00  0.00    +0.000 A 
ATOM      6  N   UNL     1      47.626   4.638  15.968  0.00  0.00    +0.000 N 
ATOM      7  C   UNL     1      47.217   3.440  16.677  0.00  0.00    +0.000 C 
ATOM      8  C   UNL     1      48.465   2.644  17.056  0.00  0.00    +0.000 C 
ATOM      9  C   UNL     1      49.494   3.505  17.791  0.00  0.00    +0.000 C 
ATOM     10  C   UNL     1      49.795   4.813  17.057  0.00  0.00    +0.000 C 
ATOM     11  C   UNL     1      48.524   5.556  16.650  0.00  0.00    +0.000 C 
ATOM     12  N   UNL     1      46.184   4.126  14.190  0.00  0.00    +0.000 NA
ENDROOT
BRANCH   9  13
ATOM     13  O   UNL     1      49.061   3.767  19.127  0.00  0.00    +0.000 OA
ATOM     14  H   UNL     1      48.553   4.594  19.137  0.00  0.00    +0.000 HD
ENDBRANCH   9  13
BRANCH   1  15
ATOM     15  C   UNL     1      44.560   3.545  12.452  0.00  0.00    +0.000 C 
BRANCH  15  16
ATOM     16  S   UNL     1      43.792   4.179  10.920  0.00  0.00    +0.000 S 
BRANCH  16  20
ATOM     17  C   UNL     1      46.488   2.661   7.498  0.00  0.00    +0.000 A 
ATOM     18  C   UNL     1      45.890   1.719   8.343  0.00  0.00    +0.000 A 
ATOM     19  C   UNL     1      45.045   2.136   9.387  0.00  0.00    +0.000 A 
ATOM     20  C   UNL     1      44.789   3.496   9.599  0.00  0.00    +0.000 A 
ATOM     21  C   UNL     1      45.373   4.426   8.726  0.00  0.00    +0.000 A 
ATOM     22  C   UNL     1      46.220   4.017   7.691  0.00  0.00    +0.000 A 
BRANCH  17  24
ATOM     23  N   UNL     1      47.463   3.034   5.290  0.00  0.00    +0.000 N 
ATOM     24  C   UNL     1      47.453   2.280   6.432  0.00  0.00    +0.000 C 
ATOM     25  O   UNL     1      48.229   1.346   6.574  0.00  0.00    +0.000 OA
ATOM     26  H   UNL     1      48.193   2.811   4.623  0.00  0.00    +0.000 HD
ATOM     27  H   UNL     1      47.046   3.949   5.241  0.00  0.00    +0.000 HD
ENDBRANCH  17  24
ENDBRANCH  16  20
ENDBRANCH  15  16
ENDBRANCH   1  15
TORSDOF 5
ENDMDL
MODEL 2
REMARK VINA RESULT:    -8.087      2.656      3.684
REMARK INTER + INTRA:         -10.635
REMARK INTER:                 -10.135
REMARK INTRA:                  -0.500
REMARK UNBOUND:                -0.421
REMARK  Name = 
REMARK  5 active torsions:
REMARK  status: ('A' for Active; 'I' for Inactive)
REMARK    1  A    between atoms: C_2  and  C_4
REMARK    2  A    between atoms: C_7  and  S_8
REMARK    3  A    between atoms: S_8  and  C_9
REMARK    4  A    between atoms: C_9  and  C_10
REMARK    5  A    between atoms: C_18  and  O_19
REMARK                            x       y       z     vdW  Elec       q    Type
REMARK                         _______ _______ _______ _____ _____    ______ ____
ROOT
ATOM      1  C   UNL     1      45.520   5.602  12.264  0.00  0.00    +0.000 A 
ATOM      2  C   UNL     1      45.663   4.478  13.050  0.00  0.00    +0.000 A 
ATOM      3  C   UNL     1      46.756   4.460  13.876  0.00  0.00    +0.000 A 
ATOM      4  N   UNL     1      47.665   5.447  13.925  0.00  0.00    +0.000 NA
ATOM      5  C   UNL     1      47.482   6.510  13.128  0.00  0.00    +0.000 A 
ATOM      6  N   UNL     1      48.409   7.522  13.155  0.00  0.00    +0.000 N 
ATOM      7  C   UNL     1      48.229   8.724  12.360  0.00  0.00    +0.000 C 
ATOM      8  C   UNL     1      48.315   9.938  13.282  0.00  0.00    +0.000 C 
ATOM      9  C   UNL     1      49.581   9.921  14.140  0.00  0.00    +0.000 C 
ATOM     10  C   UNL     1      49.784   8.587  14.859  0.00  0.00    +0.000 C 
ATOM     11  C   UNL     1      49.641   7.392  13.916  0.00  0.00    +0.000 C 
ATOM     12  N   UNL     1      46.424   6.610  12.301  0.00  0.00    +0.000 NA
ENDROOT
BRANCH   9  13
ATOM     13  O   UNL     1      50.725  10.243  13.347  0.00  0.00    +0.000 OA
ATOM     14  H   UNL     1      50.953  11.176  13.487  0.00  0.00    +0.000 HD
ENDBRANCH   9  13
BRANCH   1  15
ATOM     15  C   UNL     1      44.399   5.719  11.252  0.00  0.00    +0.000 C 
BRANCH  15  16
ATOM     16  S   UNL     1      43.655   4.109  10.812  0.00  0.00    +0.000 S 
BRANCH  16  20
ATOM     17  C   UNL     1      46.525   2.666   7.501  0.00  0.00    +0.000 A 
ATOM     18  C   UNL     1      45.913   1.708   8.316  0.00  0.00    +0.000 A 
ATOM     19  C   UNL     1      45.016   2.101   9.325  0.00  0.00    +0.000 A 
ATOM     20  C   UNL     1      44.722   3.454   9.532  0.00  0.00    +0.000 A 
ATOM     21  C   UNL     1      45.321   4.401   8.689  0.00  0.00    +0.000 A 
ATOM     22  C   UNL     1      46.220   4.015   7.688  0.00  0.00    +0.000 A 
BRANCH  17  24
ATOM     23  N   UNL     1      47.491   2.975   5.279  0.00  0.00    +0.000 N 
ATOM     24  C   UNL     1      47.542   2.312   6.475  0.00  0.00    +0.000 C 
ATOM     25  O   UNL     1      48.410   1.479   6.694  0.00  0.00    +0.000 OA
ATOM     26  H   UNL     1      48.250   2.782   4.636  0.00  0.00    +0.000 HD
ATOM     27  H   UNL     1      46.980   3.834   5.157  0.00  0.00    +0.000 HD
ENDBRANCH  17  24
ENDBRANCH  16  20
ENDBRANCH  15  16
ENDBRANCH   1  15
TORSDOF 5
ENDMDL
MODEL 3
REMARK VINA RESULT:    -6.930      3.018      4.093
REMARK INTER + INTRA:          -9.175
REMARK INTER:                  -8.555
REMARK INTRA:                  -0.620
REMARK UNBOUND:                -0.421
REMARK  Name = 
REMARK  5 active torsions:
REMARK  status: ('A' for Active; 'I' for Inactive)
REMARK    1  A    between atoms: C_2  and  C_4
REMARK    2  A    between atoms: C_7  and  S_8
REMARK    3  A    between atoms: S_8  and  C_9
REMARK    4  A    between atoms: C_9  and  C_10
REMARK    5  A    between atoms: C_18  and  O_19
REMARK                            x       y       z     vdW  Elec       q    Type
REMARK                         _______ _______ _______ _____ _____    ______ ____
ROOT
ATOM      1  C   UNL     1      48.969   7.596  13.269  0.00  0.00    +0.000 A 
ATOM      2  C   UNL     1      50.075   8.311  13.677  0.00  0.00    +0.000 A 
ATOM      3  C   UNL     1      50.575   7.988  14.911  0.00  0.00    +0.000 A 
ATOM      4  N   UNL     1      50.031   7.055  15.710  0.00  0.00    +0.000 NA
ATOM      5  C   UNL     1      48.948   6.402  15.267  0.00  0.00    +0.000 A 
ATOM      6  N   UNL     1      48.371   5.454  16.076  0.00  0.00    +0.000 N 
ATOM      7  C   UNL     1      47.235   4.673  15.622  0.00  0.00    +0.000 C 
ATOM      8  C   UNL     1      47.569   3.190  15.774  0.00  0.00    +0.000 C 
ATOM      9  C   UNL     1      48.057   2.852  17.184  0.00  0.00    +0.000 C 
ATOM     10  C   UNL     1      49.172   3.786  17.657  0.00  0.00    +0.000 C 
ATOM     11  C   UNL     1      48.825   5.258  17.444  0.00  0.00    +0.000 C 
ATOM     12  N   UNL     1      48.408   6.649  14.059  0.00  0.00    +0.000 NA
ENDROOT
BRANCH   9  13
ATOM     13  O   UNL     1      46.966   2.864  18.106  0.00  0.00    +0.000 OA
ATOM     14  H   UNL     1      46.548   3.740  18.086  0.00  0.00    +0.000 HD
ENDBRANCH   9  13
BRANCH   1  15
ATOM     15  C   UNL     1      48.271   7.903  11.960  0.00  0.00    +0.000 C 
BRANCH  15  16
ATOM     16  S   UNL     1      46.503   8.316  12.166  0.00  0.00    +0.000 S 
BRANCH  16  20
ATOM     17  C   UNL     1      44.457   4.262  11.349  0.00  0.00    +0.000 A 
ATOM     18  C   UNL     1      44.355   4.814  12.631  0.00  0.00    +0.000 A 
ATOM     19  C   UNL     1      44.946   6.057  12.919  0.00  0.00    +0.000 A 
ATOM     20  C   UNL     1      45.646   6.761  11.932  0.00  0.00    +0.000 A 
ATOM     21  C   UNL     1      45.716   6.209  10.645  0.00  0.00    +0.000 A 
ATOM     22  C   UNL     1      45.136   4.969  10.355  0.00  0.00    +0.000 A 
BRANCH  17  24
ATOM     23  N   UNL     1      44.529   2.231   9.995  0.00  0.00    +0.000 N 
ATOM     24  C   UNL     1      43.922   2.916  11.012  0.00  0.00    +0.000 C 
ATOM     25  O   UNL     1      42.991   2.423  11.633  0.00  0.00    +0.000 OA
ATOM     26  H   UNL     1      44.206   1.281   9.850  0.00  0.00    +0.000 HD
ATOM     27  H   UNL     1      45.442   2.473   9.647  0.00  0.00    +0.000 HD
ENDBRANCH  17  24
ENDBRANCH  16  20
ENDBRANCH  15  16
ENDBRANCH   1  15
TORSDOF 5
ENDMDL
MODEL 4
REMARK VINA RESULT:    -6.368      3.795      8.638
REMARK INTER + INTRA:          -8.464
REMARK INTER:                  -8.171
REMARK INTRA:                  -0.294
REMARK UNBOUND:                -0.421
REMARK  Name = 
REMARK  5 active torsions:
REMARK  status: ('A' for Active; 'I' for Inactive)
REMARK    1  A    between atoms: C_2  and  C_4
REMARK    2  A    between atoms: C_7  and  S_8
REMARK    3  A    between atoms: S_8  and  C_9
REMARK    4  A    between atoms: C_9  and  C_10
REMARK    5  A    between atoms: C_18  and  O_19
REMARK                            x       y       z     vdW  Elec       q    Type
REMARK                         _______ _______ _______ _____ _____    ______ ____
ROOT
ATOM      1  C   UNL     1      47.886   5.343  15.371  0.00  0.00    +0.000 A 
ATOM      2  C   UNL     1      48.382   6.609  15.145  0.00  0.00    +0.000 A 
ATOM      3  C   UNL     1      47.974   7.214  13.985  0.00  0.00    +0.000 A 
ATOM      4  N   UNL     1      47.162   6.630  13.090  0.00  0.00    +0.000 NA
ATOM      5  C   UNL     1      46.721   5.392  13.356  0.00  0.00    +0.000 A 
ATOM      6  N   UNL     1      45.900   4.774  12.445  0.00  0.00    +0.000 N 
ATOM      7  C   UNL     1      45.343   3.460  12.709  0.00  0.00    +0.000 C 
ATOM      8  C   UNL     1      43.825   3.532  12.564  0.00  0.00    +0.000 C 
ATOM      9  C   UNL     1      43.404   4.149  11.228  0.00  0.00    +0.000 C 
ATOM     10  C   UNL     1      44.115   5.474  10.945  0.00  0.00    +0.000 C 
ATOM     11  C   UNL     1      45.626   5.377  11.150  0.00  0.00    +0.000 C 
ATOM     12  N   UNL     1      47.062   4.737  14.482  0.00  0.00    +0.000 NA
ENDROOT
BRANCH   9  13
ATOM     13  O   UNL     1      43.623   3.225  10.161  0.00  0.00    +0.000 OA
ATOM     14  H   UNL     1      44.031   3.695   9.416  0.00  0.00    +0.000 HD
ENDBRANCH   9  13
BRANCH   1  15
ATOM     15  C   UNL     1      48.314   4.531  16.576  0.00  0.00    +0.000 C 
BRANCH  15  16
ATOM     16  S   UNL     1      49.785   5.215  17.418  0.00  0.00    +0.000 S 
BRANCH  16  20
ATOM     17  C   UNL     1      52.448   1.463  17.766  0.00  0.00    +0.000 A 
ATOM     18  C   UNL     1      53.006   2.708  18.077  0.00  0.00    +0.000 A 
ATOM     19  C   UNL     1      52.226   3.876  18.004  0.00  0.00    +0.000 A 
ATOM     20  C   UNL     1      50.882   3.814  17.618  0.00  0.00    +0.000 A 
ATOM     21  C   UNL     1      50.328   2.556  17.338  0.00  0.00    +0.000 A 
ATOM     22  C   UNL     1      51.102   1.392  17.402  0.00  0.00    +0.000 A 
BRANCH  17  24
ATOM     23  N   UNL     1      53.884  -0.118  16.581  0.00  0.00    +0.000 N 
ATOM     24  C   UNL     1      53.247   0.210  17.748  0.00  0.00    +0.000 C 
ATOM     25  O   UNL     1      53.358  -0.494  18.741  0.00  0.00    +0.000 OA
ATOM     26  H   UNL     1      54.495  -0.925  16.625  0.00  0.00    +0.000 HD
ATOM     27  H   UNL     1      54.040   0.549  15.844  0.00  0.00    +0.000 HD
ENDBRANCH  17  24
ENDBRANCH  16  20
ENDBRANCH  15  16
ENDBRANCH   1  15
TORSDOF 5
ENDMDL
MODEL 5
REMARK VINA RESULT:    -6.215      3.642      4.741
REMARK INTER + INTRA:          -8.271
REMARK INTER:                  -7.822
REMARK INTRA:                  -0.449
REMARK UNBOUND:                -0.421
REMARK  Name = 
REMARK  5 active torsions:
REMARK  status: ('A' for Active; 'I' for Inactive)
REMARK    1  A    between atoms: C_2  and  C_4
REMARK    2  A    between atoms: C_7  and  S_8
REMARK    3  A    between atoms: S_8  and  C_9
REMARK    4  A    between atoms: C_9  and  C_10
REMARK    5  A    between atoms: C_18  and  O_19
REMARK                            x       y       z     vdW  Elec       q    Type
REMARK                         _______ _______ _______ _____ _____    ______ ____
ROOT
ATOM      1  C   UNL     1      49.113   7.675  14.835  0.00  0.00    +0.000 A 
ATOM      2  C   UNL     1      48.855   9.001  15.110  0.00  0.00    +0.000 A 
ATOM      3  C   UNL     1      48.498   9.286  16.402  0.00  0.00    +0.000 A 
ATOM      4  N   UNL     1      48.372   8.353  17.360  0.00  0.00    +0.000 NA
ATOM      5  C   UNL     1      48.622   7.078  17.031  0.00  0.00    +0.000 A 
ATOM      6  N   UNL     1      48.485   6.109  17.995  0.00  0.00    +0.000 N 
ATOM      7  C   UNL     1      48.803   4.721  17.711  0.00  0.00    +0.000 C 
ATOM      8  C   UNL     1      49.814   4.229  18.744  0.00  0.00    +0.000 C 
ATOM      9  C   UNL     1      49.351   4.501  20.177  0.00  0.00    +0.000 C 
ATOM     10  C   UNL     1      48.913   5.951  20.386  0.00  0.00    +0.000 C 
ATOM     11  C   UNL     1      47.942   6.425  19.306  0.00  0.00    +0.000 C 
ATOM     12  N   UNL     1      48.995   6.719  15.788  0.00  0.00    +0.000 NA
ENDROOT
BRANCH   9  13
ATOM     13  O   UNL     1      48.302   3.602  20.541  0.00  0.00    +0.000 OA
ATOM     14  H   UNL     1      48.349   2.817  19.972  0.00  0.00    +0.000 HD
ENDBRANCH   9  13
BRANCH   1  15
ATOM     15  C   UNL     1      49.445   7.211  13.432  0.00  0.00    +0.000 C 
BRANCH  15  16
ATOM     16  S   UNL     1      48.212   7.737  12.189  0.00  0.00    +0.000 S 
BRANCH  16  20
ATOM     17  C   UNL     1      44.924   4.504  12.042  0.00  0.00    +0.000 A 
ATOM     18  C   UNL     1      45.877   4.440  13.065  0.00  0.00    +0.000 A 
ATOM     19  C   UNL     1      46.885   5.415  13.160  0.00  0.00    +0.000 A 
ATOM     20  C   UNL     1      46.954   6.464  12.235  0.00  0.00    +0.000 A 
ATOM     21  C   UNL     1      45.975   6.531  11.232  0.00  0.00    +0.000 A 
ATOM     22  C   UNL     1      44.974   5.559  11.129  0.00  0.00    +0.000 A 
BRANCH  17  24
ATOM     23  N   UNL     1      43.986   2.320  12.603  0.00  0.00    +0.000 N 
ATOM     24  C   UNL     1      43.887   3.456  11.847  0.00  0.00    +0.000 C 
ATOM     25  O   UNL     1      42.963   3.608  11.060  0.00  0.00    +0.000 OA
ATOM     26  H   UNL     1      43.217   1.666  12.517  0.00  0.00    +0.000 HD
ATOM     27  H   UNL     1      44.555   2.269  13.432  0.00  0.00    +0.000 HD
ENDBRANCH  17  24
ENDBRANCH  16  20
ENDBRANCH  15  16
ENDBRANCH   1  15
TORSDOF 5
ENDMDL
