MODEL 1
REMARK VINA RESULT:    -8.142      0.000      0.000
REMARK INTER + INTRA:         -14.008
REMARK INTER:                 -12.901
REMARK INTRA:                  -1.106
REMARK UNBOUND:                -1.106
REMARK  Name = 
REMARK  11 active torsions:
REMARK  status: ('A' for Active; 'I' for Inactive)
REMARK    1  A    between atoms: N_1  and  CA_2
REMARK    2  A    between atoms: CA_2  and  C_3
REMARK    3  A    between atoms: CA_2  and  C_5
REMARK    4  A    between atoms: C_3  and  O_4
REMARK    5  A    between atoms: C_5  and  C_6
REMARK    6  A    between atoms: C_6  and  N_7
REMARK    7  A    between atoms: C_6  and  C_14
REMARK    8  A    between atoms: N_7  and  C_8
REMARK    9  A    between atoms: C_17  and  C_18
REMARK   10  A    between atoms: C_18  and  N_19
REMARK   11  A    between atoms: C_20  and  C_22
REMARK                            x       y       z     vdW  Elec       q    Type
REMARK                         _______ _______ _______ _____ _____    ______ ____
ROOT
ATOM      1  C   UNL     1      44.961   6.198  10.770  0.00  0.00    +0.000 A 
ATOM      2  C   UNL     1      44.442   7.351  11.374  0.00  0.00    +0.000 A 
ATOM      3  C   UNL     1      45.245   8.171  12.153  0.00  0.00    +0.000 A 
ATOM      4  C   UNL     1      46.562   7.799  12.361  0.00  0.00    +0.000 A 
ATOM      5  N   UNL     1      47.127   6.728  11.746  0.00  0.00    +0.000 NA
ATOM      6  C   UNL     1      46.323   5.964  10.965  0.00  0.00    +0.000 A 
ENDROOT
BRANCH   1   7
ATOM      7  C   UNL     1      44.099   5.148  10.087  0.00  0.00    +0.000 C 
BRANCH   7   8
ATOM      8  N   UNL     1      44.604   4.823   8.720  0.00  0.00    +0.000 NA
ATOM      9  H   UNL     1      43.806   4.539   8.149  0.00  0.00    +0.000 HD
BRANCH   8  10
ATOM     10  C   UNL     1      45.673   3.806   8.583  0.00  0.00    +0.000 C 
ATOM     11  C   UNL     1      46.551   3.995   7.334  0.00  0.00    +0.000 C 
ATOM     12  C   UNL     1      47.549   2.877   7.091  0.00  0.00    +0.000 C 
ATOM     13  C   UNL     1      46.848   1.537   7.016  0.00  0.00    +0.000 C 
ATOM     14  C   UNL     1      46.043   1.292   8.285  0.00  0.00    +0.000 C 
ATOM     15  C   UNL     1      45.020   2.406   8.536  0.00  0.00    +0.000 C 
ENDBRANCH   8  10
ENDBRANCH   7   8
BRANCH   7  16
ATOM     16  C   UNL     1      43.810   3.845  10.881  0.00  0.00    +0.000 C 
BRANCH  16  17
ATOM     17  CA  UNL     1      44.251   3.805  12.365  0.00  0.00    +0.000 C 
BRANCH  17  18
ATOM     18  N   UNL     1      45.035   2.566  12.577  0.00  0.00    +0.000 NA
ATOM     19  H1  UNL     1      45.563   2.661  13.447  0.00  0.00    +0.000 HD
ATOM     20  H2  UNL     1      45.746   2.489  11.850  0.00  0.00    +0.000 HD
ENDBRANCH  17  18
BRANCH  17  21
ATOM     21  C   UNL     1      43.101   3.887  13.377  0.00  0.00    +0.000 C 
BRANCH  21  22
ATOM     22  O   UNL     1      42.658   5.232  13.519  0.00  0.00    +0.000 OA
ATOM     23  H   UNL     1      42.328   5.476  12.635  0.00  0.00    +0.000 HD
ENDBRANCH  21  22
ENDBRANCH  17  21
ENDBRANCH  16  17
ENDBRANCH   7  16
ENDBRANCH   1   7
BRANCH   4  24
ATOM     24  C   UNL     1      47.400   8.587  13.332  0.00  0.00    +0.000 C 
BRANCH  24  25
ATOM     25  N   UNL     1      47.678   7.828  14.524  0.00  0.00    +0.000 N 
ATOM     26  C   UNL     1      48.922   7.328  14.798  0.00  0.00    +0.000 C 
ATOM     27  O   UNL     1      49.892   7.550  14.078  0.00  0.00    +0.000 OA
ATOM     28  H   UNL     1      46.862   7.413  14.966  0.00  0.00    +0.000 HD
BRANCH  26  29
ATOM     29  C   UNL     1      49.051   6.568  16.045  0.00  0.00    +0.000 A 
ATOM     30  C   UNL     1      49.914   7.018  17.035  0.00  0.00    +0.000 A 
ATOM     31  S   UNL     1      49.908   6.051  18.437  0.00  0.00    +0.000 S 
ATOM     32  C   UNL     1      48.788   4.967  17.752  0.00  0.00    +0.000 A 
ATOM     33  N   UNL     1      48.368   3.870  18.438  0.00  0.00    +0.000 NA
ATOM     34  C   UNL     1      47.540   3.123  17.788  0.00  0.00    +0.000 A 
ATOM     35  N   UNL     1      47.086   3.374  16.520  0.00  0.00    +0.000 N 
ATOM     36  C   UNL     1      47.441   4.497  15.810  0.00  0.00    +0.000 A 
ATOM     37  O   UNL     1      46.944   4.735  14.718  0.00  0.00    +0.000 OA
ATOM     38  C   UNL     1      48.400   5.354  16.481  0.00  0.00    +0.000 A 
ATOM     39  H   UNL     1      46.419   2.761  16.076  0.00  0.00    +0.000 HD
ENDBRANCH  26  29
ENDBRANCH  24  25
ENDBRANCH   4  24
TORSDOF 11
ENDMDL
MODEL 2
REMARK VINA RESULT:    -7.910      2.919      4.149
REMARK INTER + INTRA:         -13.641
REMARK INTER:                 -12.069
REMARK INTRA:                  -1.572
REMARK UNBOUND:                -1.106
REMARK  Name = 
REMARK  11 active torsions:
REMARK  status: ('A' for Active; 'I' for Inactive)
REMARK    1  A    between atoms: N_1  and  CA_2
REMARK    2  A    between atoms: CA_2  and  C_3
REMARK    3  A    between atoms: CA_2  and  C_5
REMARK    4  A    between atoms: C_3  and  O_4
REMARK    5  A    between atoms: C_5  and  C_6
REMARK    6  A    between atoms: C_6  and  N_7
REMARK    7  A    between atoms: C_6  and  C_14
REMARK    8  A    between atoms: N_7  and  C_8
REMARK    9  A    between atoms: C_17  and  C_18
REMARK   10  A    between atoms: C_18  and  N_19
REMARK   11  A    between atoms: C_20  and  C_22
REMARK                            x       y       z     vdW  Elec       q    Type
REMARK                         _______ _______ _______ _____ _____    ______ ____
ROOT
ATOM      1  C   UNL     1      46.368   5.439  12.337  0.00  0.00    +0.000 A 
ATOM      2  C   UNL     1      47.450   5.988  13.039  0.00  0.00    +0.000 A 
ATOM      3  C   UNL     1      47.750   5.569  14.327  0.00  0.00    +0.000 A 
ATOM      4  C   UNL     1      46.928   4.628  14.923  0.00  0.00    +0.000 A 
ATOM      5  N   UNL     1      45.908   4.022  14.262  0.00  0.00    +0.000 NA
ATOM      6  C   UNL     1      45.660   4.431  12.992  0.00  0.00    +0.000 A 
ENDROOT
BRANCH   1   7
ATOM      7  C   UNL     1      45.853   5.996  11.020  0.00  0.00    +0.000 C 
BRANCH   7   8
ATOM      8  N   UNL     1      44.582   5.336  10.599  0.00  0.00    +0.000 NA
ATOM      9  H   UNL     1      44.167   4.897  11.423  0.00  0.00    +0.000 HD
BRANCH   8  10
ATOM     10  C   UNL     1      44.629   4.340   9.503  0.00  0.00    +0.000 C 
ATOM     11  C   UNL     1      44.690   2.883   9.991  0.00  0.00    +0.000 C 
ATOM     12  C   UNL     1      44.897   1.857   8.891  0.00  0.00    +0.000 C 
ATOM     13  C   UNL     1      46.142   2.173   8.090  0.00  0.00    +0.000 C 
ATOM     14  C   UNL     1      46.060   3.584   7.522  0.00  0.00    +0.000 C 
ATOM     15  C   UNL     1      45.866   4.632   8.624  0.00  0.00    +0.000 C 
ENDBRANCH   8  10
ENDBRANCH   7   8
BRANCH   7  16
ATOM     16  C   UNL     1      45.724   7.539  10.906  0.00  0.00    +0.000 C 
BRANCH  16  17
ATOM     17  CA  UNL     1      44.651   8.228  11.785  0.00  0.00    +0.000 C 
BRANCH  17  18
ATOM     18  N   UNL     1      43.357   8.162  11.066  0.00  0.00    +0.000 NA
ATOM     19  H1  UNL     1      43.451   8.666  10.182  0.00  0.00    +0.000 HD
ATOM     20  H2  UNL     1      42.655   8.685  11.589  0.00  0.00    +0.000 HD
ENDBRANCH  17  18
BRANCH  17  21
ATOM     21  C   UNL     1      44.972   9.678  12.170  0.00  0.00    +0.000 C 
BRANCH  21  22
ATOM     22  O   UNL     1      43.781  10.453  12.231  0.00  0.00    +0.000 OA
ATOM     23  H   UNL     1      44.063  11.309  12.601  0.00  0.00    +0.000 HD
ENDBRANCH  21  22
ENDBRANCH  17  21
ENDBRANCH  16  17
ENDBRANCH   7  16
ENDBRANCH   1   7
BRANCH   4  24
ATOM     24  C   UNL     1      47.142   4.283  16.372  0.00  0.00    +0.000 C 
BRANCH  24  25
ATOM     25  N   UNL     1      48.538   4.081  16.665  0.00  0.00    +0.000 N 
ATOM     26  C   UNL     1      49.102   4.478  17.845  0.00  0.00    +0.000 C 
ATOM     27  O   UNL     1      48.441   4.973  18.756  0.00  0.00    +0.000 OA
ATOM     28  H   UNL     1      49.128   3.939  15.849  0.00  0.00    +0.000 HD
BRANCH  26  29
ATOM     29  C   UNL     1      50.537   4.213  17.997  0.00  0.00    +0.000 A 
ATOM     30  C   UNL     1      51.375   5.222  18.451  0.00  0.00    +0.000 A 
ATOM     31  S   UNL     1      52.999   4.735  18.619  0.00  0.00    +0.000 S 
ATOM     32  C   UNL     1      52.648   3.173  18.042  0.00  0.00    +0.000 A 
ATOM     33  N   UNL     1      53.630   2.240  17.910  0.00  0.00    +0.000 NA
ATOM     34  C   UNL     1      53.227   1.109  17.436  0.00  0.00    +0.000 A 
ATOM     35  N   UNL     1      51.933   0.820  17.092  0.00  0.00    +0.000 N 
ATOM     36  C   UNL     1      50.900   1.712  17.257  0.00  0.00    +0.000 A 
ATOM     37  O   UNL     1      49.743   1.387  17.026  0.00  0.00    +0.000 OA
ATOM     38  C   UNL     1      51.304   3.014  17.754  0.00  0.00    +0.000 A 
ATOM     39  H   UNL     1      51.679  -0.095  16.749  0.00  0.00    +0.000 HD
ENDBRANCH  26  29
ENDBRANCH  24  25
ENDBRANCH   4  24
TORSDOF 11
ENDMDL
MODEL 3
REMARK VINA RESULT:    -7.512      2.429      4.042
REMARK INTER + INTRA:         -13.010
REMARK INTER:                 -11.649
REMARK INTRA:                  -1.361
REMARK UNBOUND:                -1.106
REMARK  Name = 
REMARK  11 active torsions:
REMARK  status: ('A' for Active; 'I' for Inactive)
REMARK    1  A    between atoms: N_1  and  CA_2
REMARK    2  A    between atoms: CA_2  and  C_3
REMARK    3  A    between atoms: CA_2  and  C_5
REMARK    4  A    between atoms: C_3  and  O_4
REMARK    5  A    between atoms: C_5  and  C_6
REMARK    6  A    between atoms: C_6  and  N_7
REMARK    7  A    between atoms: C_6  and  C_14
REMARK    8  A    between atoms: N_7  and  C_8
REMARK    9  A    between atoms: C_17  and  C_18
REMARK   10  A    between atoms: C_18  and  N_19
REMARK   11  A    between atoms: C_20  and  C_22
REMARK                            x       y       z     vdW  Elec       q    Type
REMARK                         _______ _______ _______ _____ _____    ______ ____
ROOT
ATOM      1  C   UNL     1      45.566   5.350  12.040  0.00  0.00    +0.000 A 
ATOM      2  C   UNL     1      46.693   6.049  12.494  0.00  0.00    +0.000 A 
ATOM      3  C   UNL     1      47.402   5.613  13.603  0.00  0.00    +0.000 A 
ATOM      4  C   UNL     1      46.944   4.496  14.282  0.00  0.00    +0.000 A 
ATOM      5  N   UNL     1      45.897   3.751  13.844  0.00  0.00    +0.000 NA
ATOM      6  C   UNL     1      45.244   4.186  12.738  0.00  0.00    +0.000 A 
ENDROOT
BRANCH   1   7
ATOM      7  C   UNL     1      44.622   5.883  10.973  0.00  0.00    +0.000 C 
BRANCH   7   8
ATOM      8  N   UNL     1      43.796   4.794  10.373  0.00  0.00    +0.000 NA
ATOM      9  H   UNL     1      43.572   4.124  11.111  0.00  0.00    +0.000 HD
BRANCH   8  10
ATOM     10  C   UNL     1      44.336   4.053   9.208  0.00  0.00    +0.000 C 
ATOM     11  C   UNL     1      44.644   2.576   9.502  0.00  0.00    +0.000 C 
ATOM     12  C   UNL     1      45.343   1.841   8.372  0.00  0.00    +0.000 C 
ATOM     13  C   UNL     1      46.620   2.553   7.976  0.00  0.00    +0.000 C 
ATOM     14  C   UNL     1      46.321   3.998   7.595  0.00  0.00    +0.000 C 
ATOM     15  C   UNL     1      45.628   4.756   8.733  0.00  0.00    +0.000 C 
ENDBRANCH   8  10
ENDBRANCH   7   8
BRANCH   7  16
ATOM     16  C   UNL     1      43.726   7.090  11.360  0.00  0.00    +0.000 C 
BRANCH  16  17
ATOM     17  CA  UNL     1      44.342   8.504  11.221  0.00  0.00    +0.000 C 
BRANCH  17  18
ATOM     18  N   UNL     1      44.811   8.934  12.559  0.00  0.00    +0.000 NA
ATOM     19  H1  UNL     1      45.814   8.749  12.626  0.00  0.00    +0.000 HD
ATOM     20  H2  UNL     1      44.389   8.338  13.271  0.00  0.00    +0.000 HD
ENDBRANCH  17  18
BRANCH  17  21
ATOM     21  C   UNL     1      43.400   9.558  10.624  0.00  0.00    +0.000 C 
BRANCH  21  22
ATOM     22  O   UNL     1      42.043   9.209  10.872  0.00  0.00    +0.000 OA
ATOM     23  H   UNL     1      42.046   8.838  11.773  0.00  0.00    +0.000 HD
ENDBRANCH  21  22
ENDBRANCH  17  21
ENDBRANCH  16  17
ENDBRANCH   7  16
ENDBRANCH   1   7
BRANCH   4  24
ATOM     24  C   UNL     1      47.605   4.107  15.577  0.00  0.00    +0.000 C 
BRANCH  24  25
ATOM     25  N   UNL     1      47.535   5.171  16.545  0.00  0.00    +0.000 N 
ATOM     26  C   UNL     1      48.652   5.806  17.015  0.00  0.00    +0.000 C 
ATOM     27  O   UNL     1      49.778   5.554  16.591  0.00  0.00    +0.000 OA
ATOM     28  H   UNL     1      46.678   5.196  17.090  0.00  0.00    +0.000 HD
BRANCH  26  29
ATOM     29  C   UNL     1      48.425   6.864  18.005  0.00  0.00    +0.000 A 
ATOM     30  C   UNL     1      48.385   6.541  19.354  0.00  0.00    +0.000 A 
ATOM     31  S   UNL     1      48.165   7.889  20.372  0.00  0.00    +0.000 S 
ATOM     32  C   UNL     1      48.064   8.947  19.041  0.00  0.00    +0.000 A 
ATOM     33  N   UNL     1      47.849  10.278  19.221  0.00  0.00    +0.000 NA
ATOM     34  C   UNL     1      47.769  10.955  18.126  0.00  0.00    +0.000 A 
ATOM     35  N   UNL     1      47.892  10.428  16.867  0.00  0.00    +0.000 N 
ATOM     36  C   UNL     1      48.162   9.100  16.638  0.00  0.00    +0.000 A 
ATOM     37  O   UNL     1      48.358   8.682  15.505  0.00  0.00    +0.000 OA
ATOM     38  C   UNL     1      48.227   8.284  17.837  0.00  0.00    +0.000 A 
ATOM     39  H   UNL     1      47.843  11.018  16.050  0.00  0.00    +0.000 HD
ENDBRANCH  26  29
ENDBRANCH  24  25
ENDBRANCH   4  24
TORSDOF 11
ENDMDL
MODEL 4
REMARK VINA RESULT:    -7.310      2.647      3.431
REMARK INTER + INTRA:         -12.689
REMARK INTER:                 -11.162
REMARK INTRA:                  -1.527
REMARK UNBOUND:                -1.106
REMARK  Name = 
REMARK  11 active torsions:
REMARK  status: ('A' for Active; 'I' for Inactive)
REMARK    1  A    between atoms: N_1  and  CA_2
REMARK    2  A    between atoms: CA_2  and  C_3
REMARK    3  A    between atoms: CA_2  and  C_5
REMARK    4  A    between atoms: C_3  and  O_4
REMARK    5  A    between atoms: C_5  and  C_6
REMARK    6  A    between atoms: C_6  and  N_7
REMARK    7  A    between atoms: C_6  and  C_14
REMARK    8  A    between atoms: N_7  and  C_8
REMARK    9  A    between atoms: C_17  and  C_18
REMARK   10  A    between atoms: C_18  and  N_19
REMARK   11  A    between atoms: C_20  and  C_22
REMARK                            x       y       z     vdW  Elec       q    Type
REMARK                         _______ _______ _______ _____ _____    ______ ____
ROOT
ATOM      1  C   UNL     1      47.150   6.516  12.522  0.00  0.00    +0.000 A 
ATOM      2  C   UNL     1      47.917   7.659  12.258  0.00  0.00    +0.000 A 
ATOM      3  C   UNL     1      48.952   8.032  13.103  0.00  0.00    +0.000 A 
ATOM      4  C   UNL     1      49.181   7.277  14.240  0.00  0.00    +0.000 A 
ATOM      5  N   UNL     1      48.508   6.127  14.504  0.00  0.00    +0.000 NA
ATOM      6  C   UNL     1      47.523   5.772  13.642  0.00  0.00    +0.000 A 
ENDROOT
BRANCH   1   7
ATOM      7  C   UNL     1      45.877   6.169  11.768  0.00  0.00    +0.000 C 
BRANCH   7   8
ATOM      8  N   UNL     1      45.589   4.704  11.814  0.00  0.00    +0.000 NA
ATOM      9  H   UNL     1      46.195   4.286  12.522  0.00  0.00    +0.000 HD
BRANCH   8  10
ATOM     10  C   UNL     1      45.707   3.919  10.563  0.00  0.00    +0.000 C 
ATOM     11  C   UNL     1      45.704   4.779   9.288  0.00  0.00    +0.000 C 
ATOM     12  C   UNL     1      45.665   3.987   7.993  0.00  0.00    +0.000 C 
ATOM     13  C   UNL     1      44.477   3.050   7.971  0.00  0.00    +0.000 C 
ATOM     14  C   UNL     1      44.511   2.127   9.183  0.00  0.00    +0.000 C 
ATOM     15  C   UNL     1      44.535   2.913  10.499  0.00  0.00    +0.000 C 
ENDBRANCH   8  10
ENDBRANCH   7   8
BRANCH   7  16
ATOM     16  C   UNL     1      44.601   6.981  12.121  0.00  0.00    +0.000 C 
BRANCH  16  17
ATOM     17  CA  UNL     1      43.329   6.705  11.282  0.00  0.00    +0.000 C 
BRANCH  17  18
ATOM     18  N   UNL     1      42.665   8.003  11.015  0.00  0.00    +0.000 NA
ATOM     19  H1  UNL     1      41.656   7.849  10.976  0.00  0.00    +0.000 HD
ATOM     20  H2  UNL     1      42.915   8.322  10.079  0.00  0.00    +0.000 HD
ENDBRANCH  17  18
BRANCH  17  21
ATOM     21  C   UNL     1      42.340   5.723  11.922  0.00  0.00    +0.000 C 
BRANCH  21  22
ATOM     22  O   UNL     1      42.734   5.417  13.254  0.00  0.00    +0.000 OA
ATOM     23  H   UNL     1      43.320   6.153  13.512  0.00  0.00    +0.000 HD
ENDBRANCH  21  22
ENDBRANCH  17  21
ENDBRANCH  16  17
ENDBRANCH   7  16
ENDBRANCH   1   7
BRANCH   4  24
ATOM     24  C   UNL     1      50.190   7.759  15.248  0.00  0.00    +0.000 C 
BRANCH  24  25
ATOM     25  N   UNL     1      50.972   6.670  15.774  0.00  0.00    +0.000 N 
ATOM     26  C   UNL     1      50.803   6.196  17.046  0.00  0.00    +0.000 C 
ATOM     27  O   UNL     1      49.930   6.626  17.796  0.00  0.00    +0.000 OA
ATOM     28  H   UNL     1      51.849   6.501  15.288  0.00  0.00    +0.000 HD
BRANCH  26  29
ATOM     29  C   UNL     1      51.678   5.089  17.444  0.00  0.00    +0.000 A 
ATOM     30  C   UNL     1      52.967   5.359  17.881  0.00  0.00    +0.000 A 
ATOM     31  S   UNL     1      53.833   3.970  18.353  0.00  0.00    +0.000 S 
ATOM     32  C   UNL     1      52.531   2.952  17.943  0.00  0.00    +0.000 A 
ATOM     33  N   UNL     1      52.628   1.603  18.084  0.00  0.00    +0.000 NA
ATOM     34  C   UNL     1      51.577   0.953  17.711  0.00  0.00    +0.000 A 
ATOM     35  N   UNL     1      50.435   1.527  17.218  0.00  0.00    +0.000 N 
ATOM     36  C   UNL     1      50.272   2.888  17.107  0.00  0.00    +0.000 A 
ATOM     37  O   UNL     1      49.205   3.368  16.750  0.00  0.00    +0.000 OA
ATOM     38  C   UNL     1      51.440   3.665  17.480  0.00  0.00    +0.000 A 
ATOM     39  H   UNL     1      49.637   0.963  16.965  0.00  0.00    +0.000 HD
ENDBRANCH  26  29
ENDBRANCH  24  25
ENDBRANCH   4  24
TORSDOF 11
ENDMDL
MODEL 5
REMARK VINA RESULT:    -7.265      3.367      8.173
REMARK INTER + INTRA:         -12.619
REMARK INTER:                 -11.056
REMARK INTRA:                  -1.563
REMARK UNBOUND:                -1.106
REMARK  Name = 
REMARK  11 active torsions:
REMARK  status: ('A' for Active; 'I' for Inactive)
REMARK    1  A    between atoms: N_1  and  CA_2
REMARK    2  A    between atoms: CA_2  and  C_3
REMARK    3  A    between atoms: CA_2  and  C_5
REMARK    4  A    between atoms: C_3  and  O_4
REMARK    5  A    between atoms: C_5  and  C_6
REMARK    6  A    between atoms: C_6  and  N_7
REMARK    7  A    between atoms: C_6  and  C_14
REMARK    8  A    between atoms: N_7  and  C_8
REMARK    9  A    between atoms: C_17  and  C_18
REMARK   10  A    between atoms: C_18  and  N_19
REMARK   11  A    between atoms: C_20  and  C_22
REMARK                            x       y       z     vdW  Elec       q    Type
REMARK                         _______ _______ _______ _____ _____    ______ ____
ROOT
ATOM      1  C   UNL     1      49.488   5.773  16.783  0.00  0.00    +0.000 A 
ATOM      2  C   UNL     1      49.987   7.001  16.331  0.00  0.00    +0.000 A 
ATOM      3  C   UNL     1      49.541   7.558  15.141  0.00  0.00    +0.000 A 
ATOM      4  C   UNL     1      48.624   6.848  14.384  0.00  0.00    +0.000 A 
ATOM      5  N   UNL     1      48.064   5.686  14.811  0.00  0.00    +0.000 NA
ATOM      6  C   UNL     1      48.499   5.185  15.994  0.00  0.00    +0.000 A 
ENDROOT
BRANCH   1   7
ATOM      7  C   UNL     1      50.080   5.007  17.955  0.00  0.00    +0.000 C 
BRANCH   7   8
ATOM      8  N   UNL     1      51.537   4.742  17.763  0.00  0.00    +0.000 NA
ATOM      9  H   UNL     1      51.760   4.906  16.780  0.00  0.00    +0.000 HD
BRANCH   8  10
ATOM     10  C   UNL     1      52.075   3.418  18.158  0.00  0.00    +0.000 C 
ATOM     11  C   UNL     1      53.564   3.229  17.824  0.00  0.00    +0.000 C 
ATOM     12  C   UNL     1      54.093   1.829  18.076  0.00  0.00    +0.000 C 
ATOM     13  C   UNL     1      53.274   0.801  17.324  0.00  0.00    +0.000 C 
ATOM     14  C   UNL     1      51.805   0.914  17.710  0.00  0.00    +0.000 C 
ATOM     15  C   UNL     1      51.252   2.320  17.447  0.00  0.00    +0.000 C 
ENDBRANCH   8  10
ENDBRANCH   7   8
BRANCH   7  16
ATOM     16  C   UNL     1      49.818   5.575  19.376  0.00  0.00    +0.000 C 
BRANCH  16  17
ATOM     17  CA  UNL     1      48.486   5.181  20.063  0.00  0.00    +0.000 C 
BRANCH  17  18
ATOM     18  N   UNL     1      48.240   3.745  19.797  0.00  0.00    +0.000 NA
ATOM     19  H1  UNL     1      48.880   3.437  19.062  0.00  0.00    +0.000 HD
ATOM     20  H2  UNL     1      47.310   3.632  19.395  0.00  0.00    +0.000 HD
ENDBRANCH  17  18
BRANCH  17  21
ATOM     21  C   UNL     1      47.273   6.018  19.636  0.00  0.00    +0.000 C 
BRANCH  21  22
ATOM     22  O   UNL     1      46.423   5.260  18.783  0.00  0.00    +0.000 OA
ATOM     23  H   UNL     1      46.739   5.458  17.882  0.00  0.00    +0.000 HD
ENDBRANCH  21  22
ENDBRANCH  17  21
ENDBRANCH  16  17
ENDBRANCH   7  16
ENDBRANCH   1   7
BRANCH   4  24
ATOM     24  C   UNL     1      48.253   7.358  13.017  0.00  0.00    +0.000 C 
BRANCH  24  25
ATOM     25  N   UNL     1      47.488   6.384  12.281  0.00  0.00    +0.000 N 
ATOM     26  C   UNL     1      46.343   6.712  11.609  0.00  0.00    +0.000 C 
ATOM     27  O   UNL     1      45.932   7.867  11.536  0.00  0.00    +0.000 OA
ATOM     28  H   UNL     1      47.651   5.419  12.555  0.00  0.00    +0.000 HD
BRANCH  26  29
ATOM     29  C   UNL     1      45.668   5.612  10.912  0.00  0.00    +0.000 A 
ATOM     30  C   UNL     1      45.727   5.541   9.527  0.00  0.00    +0.000 A 
ATOM     31  S   UNL     1      44.936   4.178   8.880  0.00  0.00    +0.000 S 
ATOM     32  C   UNL     1      44.442   3.662  10.425  0.00  0.00    +0.000 A 
ATOM     33  N   UNL     1      43.688   2.540  10.579  0.00  0.00    +0.000 NA
ATOM     34  C   UNL     1      43.364   2.282  11.801  0.00  0.00    +0.000 A 
ATOM     35  N   UNL     1      43.732   3.034  12.885  0.00  0.00    +0.000 N 
ATOM     36  C   UNL     1      44.537   4.145  12.784  0.00  0.00    +0.000 A 
ATOM     37  O   UNL     1      44.922   4.738  13.782  0.00  0.00    +0.000 OA
ATOM     38  C   UNL     1      44.901   4.501  11.424  0.00  0.00    +0.000 A 
ATOM     39  H   UNL     1      43.465   2.764  13.820  0.00  0.00    +0.000 HD
ENDBRANCH  26  29
ENDBRANCH  24  25
ENDBRANCH   4  24
TORSDOF 11
ENDMDL
MODEL 6
REMARK VINA RESULT:    -7.011      3.371      5.689
REMARK INTER + INTRA:         -12.216
REMARK INTER:                 -10.692
REMARK INTRA:                  -1.524
REMARK UNBOUND:                -1.106
REMARK  Name = 
REMARK  11 active torsions:
REMARK  status: ('A' for Active; 'I' for Inactive)
REMARK    1  A    between atoms: N_1  and  CA_2
REMARK    2  A    between atoms: CA_2  and  C_3
REMARK    3  A    between atoms: CA_2  and  C_5
REMARK    4  A    between atoms: C_3  and  O_4
REMARK    5  A    between atoms: C_5  and  C_6
REMARK    6  A    between atoms: C_6  and  N_7
REMARK    7  A    between atoms: C_6  and  C_14
REMARK    8  A    between atoms: N_7  and  C_8
REMARK    9  A    between atoms: C_17  and  C_18
REMARK   10  A    between atoms: C_18  and  N_19
REMARK   11  A    between atoms: C_20  and  C_22
REMARK                            x       y       z     vdW  Elec       q    Type
REMARK                         _______ _______ _______ _____ _____    ______ ____
ROOT
ATOM      1  C   UNL     1      47.272   5.526  14.294  0.00  0.00    +0.000 A 
ATOM      2  C   UNL     1      47.906   6.005  15.448  0.00  0.00    +0.000 A 
ATOM      3  C   UNL     1      48.257   5.145  16.477  0.00  0.00    +0.000 A 
ATOM      4  C   UNL     1      47.925   3.806  16.360  0.00  0.00    +0.000 A 
ATOM      5  N   UNL     1      47.369   3.284  15.236  0.00  0.00    +0.000 NA
ATOM      6  C   UNL     1      47.067   4.148  14.234  0.00  0.00    +0.000 A 
ENDROOT
BRANCH   1   7
ATOM      7  C   UNL     1      46.671   6.431  13.230  0.00  0.00    +0.000 C 
BRANCH   7   8
ATOM      8  N   UNL     1      45.179   6.359  13.222  0.00  0.00    +0.000 NA
ATOM      9  H   UNL     1      44.878   5.963  14.113  0.00  0.00    +0.000 HD
BRANCH   8  10
ATOM     10  C   UNL     1      44.512   5.621  12.123  0.00  0.00    +0.000 C 
ATOM     11  C   UNL     1      43.940   4.259  12.550  0.00  0.00    +0.000 C 
ATOM     12  C   UNL     1      43.392   3.420  11.409  0.00  0.00    +0.000 C 
ATOM     13  C   UNL     1      44.445   3.212  10.341  0.00  0.00    +0.000 C 
ATOM     14  C   UNL     1      44.961   4.556   9.841  0.00  0.00    +0.000 C 
ATOM     15  C   UNL     1      45.531   5.408  10.981  0.00  0.00    +0.000 C 
ENDBRANCH   8  10
ENDBRANCH   7   8
BRANCH   7  16
ATOM     16  C   UNL     1      47.140   7.911  13.213  0.00  0.00    +0.000 C 
BRANCH  16  17
ATOM     17  CA  UNL     1      46.602   8.813  12.074  0.00  0.00    +0.000 C 
BRANCH  17  18
ATOM     18  N   UNL     1      47.660   9.789  11.723  0.00  0.00    +0.000 NA
ATOM     19  H1  UNL     1      47.795   9.771  10.711  0.00  0.00    +0.000 HD
ATOM     20  H2  UNL     1      48.550   9.474  12.109  0.00  0.00    +0.000 HD
ENDBRANCH  17  18
BRANCH  17  21
ATOM     21  C   UNL     1      45.292   9.542  12.400  0.00  0.00    +0.000 C 
BRANCH  21  22
ATOM     22  O   UNL     1      44.210   8.969  11.675  0.00  0.00    +0.000 OA
ATOM     23  H   UNL     1      44.014   9.617  10.973  0.00  0.00    +0.000 HD
ENDBRANCH  21  22
ENDBRANCH  17  21
ENDBRANCH  16  17
ENDBRANCH   7  16
ENDBRANCH   1   7
BRANCH   4  24
ATOM     24  C   UNL     1      48.151   2.891  17.533  0.00  0.00    +0.000 C 
BRANCH  24  25
ATOM     25  N   UNL     1      49.551   2.789  17.860  0.00  0.00    +0.000 N 
ATOM     26  C   UNL     1      50.431   2.082  17.088  0.00  0.00    +0.000 C 
ATOM     27  O   UNL     1      50.097   1.545  16.034  0.00  0.00    +0.000 OA
ATOM     28  H   UNL     1      49.776   2.979  18.832  0.00  0.00    +0.000 HD
BRANCH  26  29
ATOM     29  C   UNL     1      51.822   2.061  17.551  0.00  0.00    +0.000 A 
ATOM     30  C   UNL     1      52.455   0.844  17.763  0.00  0.00    +0.000 A 
ATOM     31  S   UNL     1      54.080   0.995  18.250  0.00  0.00    +0.000 S 
ATOM     32  C   UNL     1      53.982   2.694  18.242  0.00  0.00    +0.000 A 
ATOM     33  N   UNL     1      55.051   3.457  18.596  0.00  0.00    +0.000 NA
ATOM     34  C   UNL     1      54.828   4.728  18.571  0.00  0.00    +0.000 A 
ATOM     35  N   UNL     1      53.639   5.308  18.216  0.00  0.00    +0.000 N 
ATOM     36  C   UNL     1      52.549   4.580  17.800  0.00  0.00    +0.000 A 
ATOM     37  O   UNL     1      51.534   5.136  17.402  0.00  0.00    +0.000 OA
ATOM     38  C   UNL     1      52.735   3.141  17.844  0.00  0.00    +0.000 A 
ATOM     39  H   UNL     1      53.536   6.312  18.194  0.00  0.00    +0.000 HD
ENDBRANCH  26  29
ENDBRANCH  24  25
ENDBRANCH   4  24
TORSDOF 11
ENDMDL
MODEL 7
REMARK VINA RESULT:    -6.933      3.070      8.657
REMARK INTER + INTRA:         -12.092
REMARK INTER:                 -10.533
REMARK INTRA:                  -1.559
REMARK UNBOUND:                -1.106
REMARK  Name = 
REMARK  11 active torsions:
REMARK  status: ('A' for Active; 'I' for Inactive)
REMARK    1  A    between atoms: N_1  and  CA_2
REMARK    2  A    between atoms: CA_2  and  C_3
REMARK    3  A    between atoms: CA_2  and  C_5
REMARK    4  A    between atoms: C_3  and  O_4
REMARK    5  A    between atoms: C_5  and  C_6
REMARK    6  A    between atoms: C_6  and  N_7
REMARK    7  A    between atoms: C_6  and  C_14
REMARK    8  A    between atoms: N_7  and  C_8
REMARK    9  A    between atoms: C_17  and  C_18
REMARK   10  A    between atoms: C_18  and  N_19
REMARK   11  A    between atoms: C_20  and  C_22
REMARK                            x       y       z     vdW  Elec       q    Type
REMARK                         _______ _______ _______ _____ _____    ______ ____
ROOT
ATOM      1  C   UNL     1      49.161   6.644  16.604  0.00  0.00    +0.000 A 
ATOM      2  C   UNL     1      49.674   7.835  16.075  0.00  0.00    +0.000 A 
ATOM      3  C   UNL     1      49.451   8.182  14.750  0.00  0.00    +0.000 A 
ATOM      4  C   UNL     1      48.747   7.300  13.948  0.00  0.00    +0.000 A 
ATOM      5  N   UNL     1      48.176   6.166  14.430  0.00  0.00    +0.000 NA
ATOM      6  C   UNL     1      48.387   5.871  15.737  0.00  0.00    +0.000 A 
ENDROOT
BRANCH   1   7
ATOM      7  C   UNL     1      49.543   6.100  17.971  0.00  0.00    +0.000 C 
BRANCH   7   8
ATOM      8  N   UNL     1      48.381   6.097  18.909  0.00  0.00    +0.000 NA
ATOM      9  H   UNL     1      47.536   5.918  18.364  0.00  0.00    +0.000 HD
BRANCH   8  10
ATOM     10  C   UNL     1      48.154   7.288  19.760  0.00  0.00    +0.000 C 
ATOM     11  C   UNL     1      47.212   8.329  19.131  0.00  0.00    +0.000 C 
ATOM     12  C   UNL     1      47.090   9.624  19.914  0.00  0.00    +0.000 C 
ATOM     13  C   UNL     1      48.452  10.247  20.137  0.00  0.00    +0.000 C 
ATOM     14  C   UNL     1      49.374   9.260  20.841  0.00  0.00    +0.000 C 
ATOM     15  C   UNL     1      49.518   7.952  20.054  0.00  0.00    +0.000 C 
ENDBRANCH   8  10
ENDBRANCH   7   8
BRANCH   7  16
ATOM     16  C   UNL     1      50.271   4.729  18.009  0.00  0.00    +0.000 C 
BRANCH  16  17
ATOM     17  CA  UNL     1      49.450   3.478  17.608  0.00  0.00    +0.000 C 
BRANCH  17  18
ATOM     18  N   UNL     1      48.697   3.022  18.800  0.00  0.00    +0.000 NA
ATOM     19  H1  UNL     1      49.201   2.240  19.223  0.00  0.00    +0.000 HD
ATOM     20  H2  UNL     1      47.806   2.625  18.503  0.00  0.00    +0.000 HD
ENDBRANCH  17  18
BRANCH  17  21
ATOM     21  C   UNL     1      50.281   2.325  17.030  0.00  0.00    +0.000 C 
BRANCH  21  22
ATOM     22  O   UNL     1      49.517   1.587  16.084  0.00  0.00    +0.000 OA
ATOM     23  H   UNL     1      49.845   0.672  16.163  0.00  0.00    +0.000 HD
ENDBRANCH  21  22
ENDBRANCH  17  21
ENDBRANCH  16  17
ENDBRANCH   7  16
ENDBRANCH   1   7
BRANCH   4  24
ATOM     24  C   UNL     1      48.635   7.583  12.474  0.00  0.00    +0.000 C 
BRANCH  24  25
ATOM     25  N   UNL     1      47.819   6.600  11.808  0.00  0.00    +0.000 N 
ATOM     26  C   UNL     1      46.496   6.812  11.538  0.00  0.00    +0.000 C 
ATOM     27  O   UNL     1      45.936   7.877  11.786  0.00  0.00    +0.000 OA
ATOM     28  H   UNL     1      48.177   5.650  11.851  0.00  0.00    +0.000 HD
BRANCH  26  29
ATOM     29  C   UNL     1      45.792   5.716  10.863  0.00  0.00    +0.000 A 
ATOM     30  C   UNL     1      45.871   5.599   9.483  0.00  0.00    +0.000 A 
ATOM     31  S   UNL     1      45.042   4.246   8.863  0.00  0.00    +0.000 S 
ATOM     32  C   UNL     1      44.505   3.796  10.415  0.00  0.00    +0.000 A 
ATOM     33  N   UNL     1      43.708   2.708  10.590  0.00  0.00    +0.000 NA
ATOM     34  C   UNL     1      43.355   2.500  11.814  0.00  0.00    +0.000 A 
ATOM     35  N   UNL     1      43.733   3.272  12.881  0.00  0.00    +0.000 N 
ATOM     36  C   UNL     1      44.579   4.349  12.759  0.00  0.00    +0.000 A 
ATOM     37  O   UNL     1      44.969   4.958  13.746  0.00  0.00    +0.000 OA
ATOM     38  C   UNL     1      44.978   4.649  11.396  0.00  0.00    +0.000 A 
ATOM     39  H   UNL     1      43.441   3.040  13.819  0.00  0.00    +0.000 HD
ENDBRANCH  26  29
ENDBRANCH  24  25
ENDBRANCH   4  24
TORSDOF 11
ENDMDL
MODEL 8
REMARK VINA RESULT:    -6.794      1.739      1.980
REMARK INTER + INTRA:         -11.872
REMARK INTER:                 -11.093
REMARK INTRA:                  -0.779
REMARK UNBOUND:                -1.106
REMARK  Name = 
REMARK  11 active torsions:
REMARK  status: ('A' for Active; 'I' for Inactive)
REMARK    1  A    between atoms: N_1  and  CA_2
REMARK    2  A    between atoms: CA_2  and  C_3
REMARK    3  A    between atoms: CA_2  and  C_5
REMARK    4  A    between atoms: C_3  and  O_4
REMARK    5  A    between atoms: C_5  and  C_6
REMARK    6  A    between atoms: C_6  and  N_7
REMARK    7  A    between atoms: C_6  and  C_14
REMARK    8  A    between atoms: N_7  and  C_8
REMARK    9  A    between atoms: C_17  and  C_18
REMARK   10  A    between atoms: C_18  and  N_19
REMARK   11  A    between atoms: C_20  and  C_22
REMARK                            x       y       z     vdW  Elec       q    Type
REMARK                         _______ _______ _______ _____ _____    ______ ____
ROOT
ATOM      1  C   UNL     1      46.142   5.790  11.392  0.00  0.00    +0.000 A 
ATOM      2  C   UNL     1      46.698   6.994  10.940  0.00  0.00    +0.000 A 
ATOM      3  C   UNL     1      47.510   7.758  11.765  0.00  0.00    +0.000 A 
ATOM      4  C   UNL     1      47.722   7.327  13.064  0.00  0.00    +0.000 A 
ATOM      5  N   UNL     1      47.258   6.138  13.527  0.00  0.00    +0.000 NA
ATOM      6  C   UNL     1      46.493   5.399  12.684  0.00  0.00    +0.000 A 
ENDROOT
BRANCH   1   7
ATOM      7  C   UNL     1      45.081   5.016  10.626  0.00  0.00    +0.000 C 
BRANCH   7   8
ATOM      8  N   UNL     1      45.390   4.950   9.167  0.00  0.00    +0.000 NA
ATOM      9  H   UNL     1      44.505   4.916   8.658  0.00  0.00    +0.000 HD
BRANCH   8  10
ATOM     10  C   UNL     1      46.262   3.857   8.676  0.00  0.00    +0.000 C 
ATOM     11  C   UNL     1      46.856   4.116   7.281  0.00  0.00    +0.000 C 
ATOM     12  C   UNL     1      47.623   2.944   6.695  0.00  0.00    +0.000 C 
ATOM     13  C   UNL     1      46.757   1.703   6.652  0.00  0.00    +0.000 C 
ATOM     14  C   UNL     1      46.231   1.378   8.044  0.00  0.00    +0.000 C 
ATOM     15  C   UNL     1      45.442   2.548   8.643  0.00  0.00    +0.000 C 
ENDBRANCH   8  10
ENDBRANCH   7   8
BRANCH   7  16
ATOM     16  C   UNL     1      44.706   3.608  11.163  0.00  0.00    +0.000 C 
BRANCH  16  17
ATOM     17  CA  UNL     1      43.484   3.512  12.109  0.00  0.00    +0.000 C 
BRANCH  17  18
ATOM     18  N   UNL     1      42.681   2.334  11.704  0.00  0.00    +0.000 NA
ATOM     19  H1  UNL     1      41.981   2.637  11.024  0.00  0.00    +0.000 HD
ATOM     20  H2  UNL     1      42.140   2.004  12.503  0.00  0.00    +0.000 HD
ENDBRANCH  17  18
BRANCH  17  21
ATOM     21  C   UNL     1      42.603   4.768  12.149  0.00  0.00    +0.000 C 
BRANCH  21  22
ATOM     22  O   UNL     1      42.823   5.491  13.354  0.00  0.00    +0.000 OA
ATOM     23  H   UNL     1      43.756   5.768  13.309  0.00  0.00    +0.000 HD
ENDBRANCH  21  22
ENDBRANCH  17  21
ENDBRANCH  16  17
ENDBRANCH   7  16
ENDBRANCH   1   7
BRANCH   4  24
ATOM     24  C   UNL     1      48.464   8.223  14.019  0.00  0.00    +0.000 C 
BRANCH  24  25
ATOM     25  N   UNL     1      48.246   7.830  15.388  0.00  0.00    +0.000 N 
ATOM     26  C   UNL     1      48.903   8.421  16.431  0.00  0.00    +0.000 C 
ATOM     27  O   UNL     1      49.671   9.368  16.272  0.00  0.00    +0.000 OA
ATOM     28  H   UNL     1      47.848   6.902  15.506  0.00  0.00    +0.000 HD
BRANCH  26  29
ATOM     29  C   UNL     1      48.585   7.909  17.768  0.00  0.00    +0.000 A 
ATOM     30  C   UNL     1      48.067   8.771  18.725  0.00  0.00    +0.000 A 
ATOM     31  S   UNL     1      47.704   8.008  20.205  0.00  0.00    +0.000 S 
ATOM     32  C   UNL     1      48.273   6.508  19.634  0.00  0.00    +0.000 A 
ATOM     33  N   UNL     1      48.268   5.409  20.435  0.00  0.00    +0.000 NA
ATOM     34  C   UNL     1      48.752   4.348  19.882  0.00  0.00    +0.000 A 
ATOM     35  N   UNL     1      49.231   4.280  18.601  0.00  0.00    +0.000 N 
ATOM     36  C   UNL     1      49.208   5.351  17.739  0.00  0.00    +0.000 A 
ATOM     37  O   UNL     1      49.558   5.229  16.573  0.00  0.00    +0.000 OA
ATOM     38  C   UNL     1      48.706   6.581  18.322  0.00  0.00    +0.000 A 
ATOM     39  H   UNL     1      49.575   3.411  18.220  0.00  0.00    +0.000 HD
ENDBRANCH  26  29
ENDBRANCH  24  25
ENDBRANCH   4  24
TORSDOF 11
ENDMDL
MODEL 9
REMARK VINA RESULT:    -6.681      3.331      4.411
REMARK INTER + INTRA:         -11.693
REMARK INTER:                 -10.664
REMARK INTRA:                  -1.030
REMARK UNBOUND:                -1.106
REMARK  Name = 
REMARK  11 active torsions:
REMARK  status: ('A' for Active; 'I' for Inactive)
REMARK    1  A    between atoms: N_1  and  CA_2
REMARK    2  A    between atoms: CA_2  and  C_3
REMARK    3  A    between atoms: CA_2  and  C_5
REMARK    4  A    between atoms: C_3  and  O_4
REMARK    5  A    between atoms: C_5  and  C_6
REMARK    6  A    between atoms: C_6  and  N_7
REMARK    7  A    between atoms: C_6  and  C_14
REMARK    8  A    between atoms: N_7  and  C_8
REMARK    9  A    between atoms: C_17  and  C_18
REMARK   10  A    between atoms: C_18  and  N_19
REMARK   11  A    between atoms: C_20  and  C_22
REMARK                            x       y       z     vdW  Elec       q    Type
REMARK                         _______ _______ _______ _____ _____    ______ ____
ROOT
ATOM      1  C   UNL     1      45.540   6.424  11.119  0.00  0.00    +0.000 A 
ATOM      2  C   UNL     1      44.956   7.669  11.386  0.00  0.00    +0.000 A 
ATOM      3  C   UNL     1      45.645   8.643  12.092  0.00  0.00    +0.000 A 
ATOM      4  C   UNL     1      46.910   8.342  12.569  0.00  0.00    +0.000 A 
ATOM      5  N   UNL     1      47.542   7.175  12.281  0.00  0.00    +0.000 NA
ATOM      6  C   UNL     1      46.853   6.255  11.561  0.00  0.00    +0.000 A 
ENDROOT
BRANCH   1   7
ATOM      7  C   UNL     1      44.774   5.243  10.544  0.00  0.00    +0.000 C 
BRANCH   7   8
ATOM      8  N   UNL     1      45.092   5.027   9.101  0.00  0.00    +0.000 NA
ATOM      9  H   UNL     1      44.211   4.898   8.600  0.00  0.00    +0.000 HD
BRANCH   8  10
ATOM     10  C   UNL     1      46.012   3.925   8.736  0.00  0.00    +0.000 C 
ATOM     11  C   UNL     1      46.731   4.137   7.393  0.00  0.00    +0.000 C 
ATOM     12  C   UNL     1      47.556   2.951   6.926  0.00  0.00    +0.000 C 
ATOM     13  C   UNL     1      46.706   1.701   6.849  0.00  0.00    +0.000 C 
ATOM     14  C   UNL     1      46.055   1.423   8.199  0.00  0.00    +0.000 C 
ATOM     15  C   UNL     1      45.206   2.607   8.676  0.00  0.00    +0.000 C 
ENDBRANCH   8  10
ENDBRANCH   7   8
BRANCH   7  16
ATOM     16  C   UNL     1      44.855   3.902  11.322  0.00  0.00    +0.000 C 
BRANCH  16  17
ATOM     17  CA  UNL     1      43.657   3.536  12.234  0.00  0.00    +0.000 C 
BRANCH  17  18
ATOM     18  N   UNL     1      43.024   2.311  11.691  0.00  0.00    +0.000 NA
ATOM     19  H1  UNL     1      43.624   1.513  11.908  0.00  0.00    +0.000 HD
ATOM     20  H2  UNL     1      43.016   2.360  10.673  0.00  0.00    +0.000 HD
ENDBRANCH  17  18
BRANCH  17  21
ATOM     21  C   UNL     1      42.613   4.648  12.395  0.00  0.00    +0.000 C 
BRANCH  21  22
ATOM     22  O   UNL     1      42.948   5.490  13.493  0.00  0.00    +0.000 OA
ATOM     23  H   UNL     1      42.095   5.682  13.924  0.00  0.00    +0.000 HD
ENDBRANCH  21  22
ENDBRANCH  17  21
ENDBRANCH  16  17
ENDBRANCH   7  16
ENDBRANCH   1   7
BRANCH   4  24
ATOM     24  C   UNL     1      47.604   9.325  13.472  0.00  0.00    +0.000 C 
BRANCH  24  25
ATOM     25  N   UNL     1      49.037   9.217  13.367  0.00  0.00    +0.000 N 
ATOM     26  C   UNL     1      49.812  10.230  12.875  0.00  0.00    +0.000 C 
ATOM     27  O   UNL     1      49.344  11.319  12.553  0.00  0.00    +0.000 OA
ATOM     28  H   UNL     1      49.392   8.264  13.362  0.00  0.00    +0.000 HD
BRANCH  26  29
ATOM     29  C   UNL     1      51.255   9.970  12.821  0.00  0.00    +0.000 A 
ATOM     30  C   UNL     1      52.123  10.777  13.543  0.00  0.00    +0.000 A 
ATOM     31  S   UNL     1      53.756  10.310  13.413  0.00  0.00    +0.000 S 
ATOM     32  C   UNL     1      53.366   9.042  12.346  0.00  0.00    +0.000 A 
ATOM     33  N   UNL     1      54.336   8.245  11.824  0.00  0.00    +0.000 NA
ATOM     34  C   UNL     1      53.901   7.343  11.010  0.00  0.00    +0.000 A 
ATOM     35  N   UNL     1      52.585   7.156  10.678  0.00  0.00    +0.000 N 
ATOM     36  C   UNL     1      51.566   7.902  11.221  0.00  0.00    +0.000 A 
ATOM     37  O   UNL     1      50.396   7.646  10.971  0.00  0.00    +0.000 OA
ATOM     38  C   UNL     1      52.004   8.957  12.116  0.00  0.00    +0.000 A 
ATOM     39  H   UNL     1      52.308   6.414  10.052  0.00  0.00    +0.000 HD
ENDBRANCH  26  29
ENDBRANCH  24  25
ENDBRANCH   4  24
TORSDOF 11
ENDMDL
