MODEL 1
REMARK VINA RESULT:    -7.908      0.000      0.000
REMARK INTER + INTRA:         -13.186
REMARK INTER:                 -12.069
REMARK INTRA:                  -1.116
REMARK UNBOUND:                -1.116
REMARK  Name = 
REMARK  12 active torsions:
REMARK  status: ('A' for Active; 'I' for Inactive)
REMARK    1  A    between atoms: C_1  and  C_2
REMARK    2  A    between atoms: C_2  and  N_3
REMARK    3  A    between atoms: N_3  and  C_4
REMARK    4  A    between atoms: N_3  and  C_6
REMARK    5  A    between atoms: C_4  and  C_5
REMARK    6  A    between atoms: C_6  and  C_7
REMARK    7  A    between atoms: C_7  and  N_8
REMARK    8  A    between atoms: C_9  and  C_11
REMARK    9  A    between atoms: C_15  and  C_16
REMARK   10  A    between atoms: C_16  and  C_17
REMARK   11  A    between atoms: C_20  and  O_21
REMARK   12  A    between atoms: O_21  and  C_22
REMARK                            x       y       z     vdW  Elec       q    Type
REMARK                         _______ _______ _______ _____ _____    ______ ____
ROOT
ATOM      1  C   UNL     1      47.324   5.918  13.527  0.00  0.00    +0.000 A 
ATOM      2  C   UNL     1      47.237   6.393  12.140  0.00  0.00    +0.000 A 
ATOM      3  C   UNL     1      46.257   5.930  11.332  0.00  0.00    +0.000 A 
ATOM      4  N   UNL     1      45.332   5.012  11.831  0.00  0.00    +0.000 N 
ATOM      5  C   UNL     1      44.282   4.334  11.228  0.00  0.00    +0.000 A 
ATOM      6  C   UNL     1      43.716   3.587  12.242  0.00  0.00    +0.000 A 
ATOM      7  N   UNL     1      44.386   3.739  13.420  0.00  0.00    +0.000 NA
ATOM      8  C   UNL     1      45.359   4.581  13.156  0.00  0.00    +0.000 A 
ATOM      9  C   UNL     1      46.387   5.072  14.007  0.00  0.00    +0.000 A 
ENDROOT
BRANCH   1  11
ATOM     10  N   UNL     1      48.167   6.318  15.787  0.00  0.00    +0.000 N 
ATOM     11  C   UNL     1      48.396   6.446  14.435  0.00  0.00    +0.000 C 
ATOM     12  O   UNL     1      49.428   6.931  13.976  0.00  0.00    +0.000 OA
ATOM     13  H   UNL     1      47.442   5.701  16.133  0.00  0.00    +0.000 HD
BRANCH  10  14
ATOM     14  C   UNL     1      49.145   6.772  16.759  0.00  0.00    +0.000 C 
BRANCH  14  15
ATOM     15  C   UNL     1      49.496   5.702  17.816  0.00  0.00    +0.000 C 
BRANCH  15  16
ATOM     16  N   UNL     1      49.496   4.300  17.327  0.00  0.00    +0.000 NA
BRANCH  16  18
ATOM     17  C   UNL     1      50.926   2.204  17.316  0.00  0.00    +0.000 C 
ATOM     18  C   UNL     1      50.853   3.726  17.385  0.00  0.00    +0.000 C 
ENDBRANCH  16  18
BRANCH  16  19
ATOM     19  C   UNL     1      48.485   3.487  18.035  0.00  0.00    +0.000 C 
ATOM     20  C   UNL     1      47.192   3.179  17.278  0.00  0.00    +0.000 C 
ENDBRANCH  16  19
ENDBRANCH  15  16
ENDBRANCH  14  15
ENDBRANCH  10  14
ENDBRANCH   1  11
BRANCH   5  21
ATOM     21  C   UNL     1      43.908   4.388   9.782  0.00  0.00    +0.000 C 
BRANCH  21  22
ATOM     22  C   UNL     1      44.856   3.612   8.899  0.00  0.00    +0.000 A 
ATOM     23  C   UNL     1      44.966   2.223   9.038  0.00  0.00    +0.000 A 
ATOM     24  C   UNL     1      45.937   1.509   8.333  0.00  0.00    +0.000 A 
ATOM     25  C   UNL     1      46.809   2.169   7.466  0.00  0.00    +0.000 A 
ATOM     26  C   UNL     1      46.651   3.542   7.262  0.00  0.00    +0.000 A 
ATOM     27  C   UNL     1      45.685   4.261   7.974  0.00  0.00    +0.000 A 
BRANCH  25  28
ATOM     28  O   UNL     1      47.845   1.592   6.786  0.00  0.00    +0.000 OA
ATOM     29  C   UNL     1      48.144   2.139   5.507  0.00  0.00    +0.000 C 
ENDBRANCH  25  28
ENDBRANCH  21  22
ENDBRANCH   5  21
TORSDOF 9
ENDMDL
MODEL 2
REMARK VINA RESULT:    -7.585      0.799      1.183
REMARK INTER + INTRA:         -12.692
REMARK INTER:                 -11.627
REMARK INTRA:                  -1.065
REMARK UNBOUND:                -1.116
REMARK  Name = 
REMARK  12 active torsions:
REMARK  status: ('A' for Active; 'I' for Inactive)
REMARK    1  A    between atoms: C_1  and  C_2
REMARK    2  A    between atoms: C_2  and  N_3
REMARK    3  A    between atoms: N_3  and  C_4
REMARK    4  A    between atoms: N_3  and  C_6
REMARK    5  A    between atoms: C_4  and  C_5
REMARK    6  A    between atoms: C_6  and  C_7
REMARK    7  A    between atoms: C_7  and  N_8
REMARK    8  A    between atoms: C_9  and  C_11
REMARK    9  A    between atoms: C_15  and  C_16
REMARK   10  A    between atoms: C_16  and  C_17
REMARK   11  A    between atoms: C_20  and  O_21
REMARK   12  A    between atoms: O_21  and  C_22
REMARK                            x       y       z     vdW  Elec       q    Type
REMARK                         _______ _______ _______ _____ _____    ______ ____
ROOT
ATOM      1  C   UNL     1      47.250   6.143  13.311  0.00  0.00    +0.000 A 
ATOM      2  C   UNL     1      47.084   6.549  11.909  0.00  0.00    +0.000 A 
ATOM      3  C   UNL     1      46.114   5.982  11.157  0.00  0.00    +0.000 A 
ATOM      4  N   UNL     1      45.276   5.021  11.726  0.00  0.00    +0.000 N 
ATOM      5  C   UNL     1      44.260   4.244  11.189  0.00  0.00    +0.000 A 
ATOM      6  C   UNL     1      43.784   3.503  12.254  0.00  0.00    +0.000 A 
ATOM      7  N   UNL     1      44.478   3.755  13.399  0.00  0.00    +0.000 NA
ATOM      8  C   UNL     1      45.378   4.653  13.066  0.00  0.00    +0.000 A 
ATOM      9  C   UNL     1      46.395   5.254  13.858  0.00  0.00    +0.000 A 
ENDROOT
BRANCH   1  11
ATOM     10  N   UNL     1      48.166   6.651  15.521  0.00  0.00    +0.000 N 
ATOM     11  C   UNL     1      48.310   6.787  14.157  0.00  0.00    +0.000 C 
ATOM     12  O   UNL     1      49.262   7.368  13.641  0.00  0.00    +0.000 OA
ATOM     13  H   UNL     1      47.526   5.968  15.908  0.00  0.00    +0.000 HD
BRANCH  10  14
ATOM     14  C   UNL     1      49.142   7.212  16.435  0.00  0.00    +0.000 C 
BRANCH  14  15
ATOM     15  C   UNL     1      49.616   6.210  17.512  0.00  0.00    +0.000 C 
BRANCH  15  16
ATOM     16  N   UNL     1      48.620   5.181  17.905  0.00  0.00    +0.000 NA
BRANCH  16  18
ATOM     17  C   UNL     1      48.134   3.006  16.690  0.00  0.00    +0.000 C 
ATOM     18  C   UNL     1      49.093   3.831  17.543  0.00  0.00    +0.000 C 
ENDBRANCH  16  18
BRANCH  16  19
ATOM     19  C   UNL     1      48.251   5.310  19.330  0.00  0.00    +0.000 C 
ATOM     20  C   UNL     1      47.637   6.641  19.767  0.00  0.00    +0.000 C 
ENDBRANCH  16  19
ENDBRANCH  15  16
ENDBRANCH  14  15
ENDBRANCH  10  14
ENDBRANCH   1  11
BRANCH   5  21
ATOM     21  C   UNL     1      43.836   4.207   9.757  0.00  0.00    +0.000 C 
BRANCH  21  22
ATOM     22  C   UNL     1      44.814   3.471   8.872  0.00  0.00    +0.000 A 
ATOM     23  C   UNL     1      45.007   2.094   9.034  0.00  0.00    +0.000 A 
ATOM     24  C   UNL     1      46.007   1.425   8.325  0.00  0.00    +0.000 A 
ATOM     25  C   UNL     1      46.824   2.118   7.432  0.00  0.00    +0.000 A 
ATOM     26  C   UNL     1      46.583   3.475   7.207  0.00  0.00    +0.000 A 
ATOM     27  C   UNL     1      45.588   4.150   7.921  0.00  0.00    +0.000 A 
BRANCH  25  28
ATOM     28  O   UNL     1      47.881   1.589   6.745  0.00  0.00    +0.000 OA
ATOM     29  C   UNL     1      48.182   2.188   5.489  0.00  0.00    +0.000 C 
ENDBRANCH  25  28
ENDBRANCH  21  22
ENDBRANCH   5  21
TORSDOF 9
ENDMDL
MODEL 3
REMARK VINA RESULT:    -7.169      1.510      2.196
REMARK INTER + INTRA:         -12.057
REMARK INTER:                 -11.156
REMARK INTRA:                  -0.902
REMARK UNBOUND:                -1.116
REMARK  Name = 
REMARK  12 active torsions:
REMARK  status: ('A' for Active; 'I' for Inactive)
REMARK    1  A    between atoms: C_1  and  C_2
REMARK    2  A    between atoms: C_2  and  N_3
REMARK    3  A    between atoms: N_3  and  C_4
REMARK    4  A    between atoms: N_3  and  C_6
REMARK    5  A    between atoms: C_4  and  C_5
REMARK    6  A    between atoms: C_6  and  C_7
REMARK    7  A    between atoms: C_7  and  N_8
REMARK    8  A    between atoms: C_9  and  C_11
REMARK    9  A    between atoms: C_15  and  C_16
REMARK   10  A    between atoms: C_16  and  C_17
REMARK   11  A    between atoms: C_20  and  O_21
REMARK   12  A    between atoms: O_21  and  C_22
REMARK                            x       y       z     vdW  Elec       q    Type
REMARK                         _______ _______ _______ _____ _____    ______ ____
ROOT
ATOM      1  C   UNL     1      46.755   4.389  14.321  0.00  0.00    +0.000 A 
ATOM      2  C   UNL     1      46.341   3.231  13.518  0.00  0.00    +0.000 A 
ATOM      3  C   UNL     1      45.640   3.421  12.378  0.00  0.00    +0.000 A 
ATOM      4  N   UNL     1      45.326   4.720  11.973  0.00  0.00    +0.000 N 
ATOM      5  C   UNL     1      44.582   5.203  10.906  0.00  0.00    +0.000 A 
ATOM      6  C   UNL     1      44.654   6.578  11.020  0.00  0.00    +0.000 A 
ATOM      7  N   UNL     1      45.365   6.959  12.118  0.00  0.00    +0.000 NA
ATOM      8  C   UNL     1      45.748   5.839  12.688  0.00  0.00    +0.000 A 
ATOM      9  C   UNL     1      46.490   5.638  13.885  0.00  0.00    +0.000 A 
ENDROOT
BRANCH   1  11
ATOM     10  N   UNL     1      47.663   5.273  16.412  0.00  0.00    +0.000 N 
ATOM     11  C   UNL     1      47.553   4.184  15.576  0.00  0.00    +0.000 C 
ATOM     12  O   UNL     1      48.044   3.089  15.839  0.00  0.00    +0.000 OA
ATOM     13  H   UNL     1      47.053   6.074  16.302  0.00  0.00    +0.000 HD
BRANCH  10  14
ATOM     14  C   UNL     1      48.392   5.185  17.664  0.00  0.00    +0.000 C 
BRANCH  14  15
ATOM     15  C   UNL     1      49.768   5.884  17.619  0.00  0.00    +0.000 C 
BRANCH  15  16
ATOM     16  N   UNL     1      50.872   5.080  17.036  0.00  0.00    +0.000 NA
BRANCH  16  18
ATOM     17  C   UNL     1      53.245   5.801  17.572  0.00  0.00    +0.000 C 
ATOM     18  C   UNL     1      52.015   5.941  16.681  0.00  0.00    +0.000 C 
ENDBRANCH  16  18
BRANCH  16  19
ATOM     19  C   UNL     1      51.238   3.954  17.921  0.00  0.00    +0.000 C 
ATOM     20  C   UNL     1      50.968   2.544  17.394  0.00  0.00    +0.000 C 
ENDBRANCH  16  19
ENDBRANCH  15  16
ENDBRANCH  14  15
ENDBRANCH  10  14
ENDBRANCH   1  11
BRANCH   5  21
ATOM     21  C   UNL     1      43.838   4.383   9.902  0.00  0.00    +0.000 C 
BRANCH  21  22
ATOM     22  C   UNL     1      44.751   3.586   9.001  0.00  0.00    +0.000 A 
ATOM     23  C   UNL     1      44.820   2.194   9.127  0.00  0.00    +0.000 A 
ATOM     24  C   UNL     1      45.761   1.457   8.403  0.00  0.00    +0.000 A 
ATOM     25  C   UNL     1      46.640   2.098   7.530  0.00  0.00    +0.000 A 
ATOM     26  C   UNL     1      46.522   3.476   7.339  0.00  0.00    +0.000 A 
ATOM     27  C   UNL     1      45.586   4.218   8.069  0.00  0.00    +0.000 A 
BRANCH  25  28
ATOM     28  O   UNL     1      47.649   1.496   6.832  0.00  0.00    +0.000 OA
ATOM     29  C   UNL     1      48.068   2.147   5.638  0.00  0.00    +0.000 C 
ENDBRANCH  25  28
ENDBRANCH  21  22
ENDBRANCH   5  21
TORSDOF 9
ENDMDL
MODEL 4
REMARK VINA RESULT:    -7.037      1.099      1.668
REMARK INTER + INTRA:         -11.856
REMARK INTER:                 -10.856
REMARK INTRA:                  -0.999
REMARK UNBOUND:                -1.116
REMARK  Name = 
REMARK  12 active torsions:
REMARK  status: ('A' for Active; 'I' for Inactive)
REMARK    1  A    between atoms: C_1  and  C_2
REMARK    2  A    between atoms: C_2  and  N_3
REMARK    3  A    between atoms: N_3  and  C_4
REMARK    4  A    between atoms: N_3  and  C_6
REMARK    5  A    between atoms: C_4  and  C_5
REMARK    6  A    between atoms: C_6  and  C_7
REMARK    7  A    between atoms: C_7  and  N_8
REMARK    8  A    between atoms: C_9  and  C_11
REMARK    9  A    between atoms: C_15  and  C_16
REMARK   10  A    between atoms: C_16  and  C_17
REMARK   11  A    between atoms: C_20  and  O_21
REMARK   12  A    between atoms: O_21  and  C_22
REMARK                            x       y       z     vdW  Elec       q    Type
REMARK                         _______ _______ _______ _____ _____    ______ ____
ROOT
ATOM      1  C   UNL     1      47.607   6.197  14.280  0.00  0.00    +0.000 A 
ATOM      2  C   UNL     1      47.159   4.833  13.969  0.00  0.00    +0.000 A 
ATOM      3  C   UNL     1      46.214   4.635  13.024  0.00  0.00    +0.000 A 
ATOM      4  N   UNL     1      45.680   5.733  12.346  0.00  0.00    +0.000 N 
ATOM      5  C   UNL     1      44.676   5.835  11.393  0.00  0.00    +0.000 A 
ATOM      6  C   UNL     1      44.621   7.180  11.082  0.00  0.00    +0.000 A 
ATOM      7  N   UNL     1      45.505   7.908  11.821  0.00  0.00    +0.000 NA
ATOM      8  C   UNL     1      46.121   7.033  12.583  0.00  0.00    +0.000 A 
ATOM      9  C   UNL     1      47.120   7.240  13.575  0.00  0.00    +0.000 A 
ENDROOT
BRANCH   1  11
ATOM     10  N   UNL     1      48.282   6.297  16.628  0.00  0.00    +0.000 N 
ATOM     11  C   UNL     1      48.673   6.419  15.312  0.00  0.00    +0.000 C 
ATOM     12  O   UNL     1      49.831   6.662  14.980  0.00  0.00    +0.000 OA
ATOM     13  H   UNL     1      47.402   5.857  16.867  0.00  0.00    +0.000 HD
BRANCH  10  14
ATOM     14  C   UNL     1      49.234   6.467  17.710  0.00  0.00    +0.000 C 
BRANCH  14  15
ATOM     15  C   UNL     1      49.590   5.144  18.423  0.00  0.00    +0.000 C 
BRANCH  15  16
ATOM     16  N   UNL     1      49.639   3.944  17.549  0.00  0.00    +0.000 NA
BRANCH  16  18
ATOM     17  C   UNL     1      51.122   1.894  17.353  0.00  0.00    +0.000 C 
ATOM     18  C   UNL     1      51.012   3.411  17.470  0.00  0.00    +0.000 C 
ENDBRANCH  16  18
BRANCH  16  19
ATOM     19  C   UNL     1      48.642   2.936  17.969  0.00  0.00    +0.000 C 
ATOM     20  C   UNL     1      47.217   3.115  17.446  0.00  0.00    +0.000 C 
ENDBRANCH  16  19
ENDBRANCH  15  16
ENDBRANCH  14  15
ENDBRANCH  10  14
ENDBRANCH   1  11
BRANCH   5  21
ATOM     21  C   UNL     1      43.829   4.718  10.878  0.00  0.00    +0.000 C 
BRANCH  21  22
ATOM     22  C   UNL     1      44.520   3.896   9.816  0.00  0.00    +0.000 A 
ATOM     23  C   UNL     1      44.438   2.499   9.846  0.00  0.00    +0.000 A 
ATOM     24  C   UNL     1      45.186   1.720   8.960  0.00  0.00    +0.000 A 
ATOM     25  C   UNL     1      46.019   2.325   8.018  0.00  0.00    +0.000 A 
ATOM     26  C   UNL     1      46.043   3.718   7.930  0.00  0.00    +0.000 A 
ATOM     27  C   UNL     1      45.302   4.501   8.822  0.00  0.00    +0.000 A 
BRANCH  25  28
ATOM     28  O   UNL     1      46.854   1.670   7.157  0.00  0.00    +0.000 OA
ATOM     29  C   UNL     1      47.933   2.428   6.623  0.00  0.00    +0.000 C 
ENDBRANCH  25  28
ENDBRANCH  21  22
ENDBRANCH   5  21
TORSDOF 9
ENDMDL
MODEL 5
REMARK VINA RESULT:    -6.803      1.921      2.736
REMARK INTER + INTRA:         -11.499
REMARK INTER:                 -10.675
REMARK INTRA:                  -0.824
REMARK UNBOUND:                -1.116
REMARK  Name = 
REMARK  12 active torsions:
REMARK  status: ('A' for Active; 'I' for Inactive)
REMARK    1  A    between atoms: C_1  and  C_2
REMARK    2  A    between atoms: C_2  and  N_3
REMARK    3  A    between atoms: N_3  and  C_4
REMARK    4  A    between atoms: N_3  and  C_6
REMARK    5  A    between atoms: C_4  and  C_5
REMARK    6  A    between atoms: C_6  and  C_7
REMARK    7  A    between atoms: C_7  and  N_8
REMARK    8  A    between atoms: C_9  and  C_11
REMARK    9  A    between atoms: C_15  and  C_16
REMARK   10  A    between atoms: C_16  and  C_17
REMARK   11  A    between atoms: C_20  and  O_21
REMARK   12  A    between atoms: O_21  and  C_22
REMARK                            x       y       z     vdW  Elec       q    Type
REMARK                         _______ _______ _______ _____ _____    ______ ____
ROOT
ATOM      1  C   UNL     1      46.781   4.400  14.419  0.00  0.00    +0.000 A 
ATOM      2  C   UNL     1      46.343   3.236  13.636  0.00  0.00    +0.000 A 
ATOM      3  C   UNL     1      45.705   3.421  12.459  0.00  0.00    +0.000 A 
ATOM      4  N   UNL     1      45.477   4.718  11.997  0.00  0.00    +0.000 N 
ATOM      5  C   UNL     1      44.806   5.199  10.882  0.00  0.00    +0.000 A 
ATOM      6  C   UNL     1      44.945   6.572  10.953  0.00  0.00    +0.000 A 
ATOM      7  N   UNL     1      45.625   6.957  12.069  0.00  0.00    +0.000 NA
ATOM      8  C   UNL     1      45.924   5.840  12.693  0.00  0.00    +0.000 A 
ATOM      9  C   UNL     1      46.600   5.645  13.929  0.00  0.00    +0.000 A 
ENDROOT
BRANCH   1  11
ATOM     10  N   UNL     1      47.283   5.142  16.694  0.00  0.00    +0.000 N 
ATOM     11  C   UNL     1      47.511   4.200  15.715  0.00  0.00    +0.000 C 
ATOM     12  O   UNL     1      48.241   3.226  15.884  0.00  0.00    +0.000 OA
ATOM     13  H   UNL     1      46.502   5.782  16.624  0.00  0.00    +0.000 HD
BRANCH  10  14
ATOM     14  C   UNL     1      47.917   5.038  17.995  0.00  0.00    +0.000 C 
BRANCH  14  15
ATOM     15  C   UNL     1      47.219   5.884  19.083  0.00  0.00    +0.000 C 
BRANCH  15  16
ATOM     16  N   UNL     1      48.129   6.559  20.044  0.00  0.00    +0.000 NA
BRANCH  16  18
ATOM     17  C   UNL     1      50.372   6.014  21.098  0.00  0.00    +0.000 C 
ATOM     18  C   UNL     1      49.524   6.128  19.835  0.00  0.00    +0.000 C 
ENDBRANCH  16  18
BRANCH  16  19
ATOM     19  C   UNL     1      47.956   8.027  20.001  0.00  0.00    +0.000 C 
ATOM     20  C   UNL     1      47.490   8.629  18.675  0.00  0.00    +0.000 C 
ENDBRANCH  16  19
ENDBRANCH  15  16
ENDBRANCH  14  15
ENDBRANCH  10  14
ENDBRANCH   1  11
BRANCH   5  21
ATOM     21  C   UNL     1      44.066   4.383   9.873  0.00  0.00    +0.000 C 
BRANCH  21  22
ATOM     22  C   UNL     1      44.983   3.625   8.942  0.00  0.00    +0.000 A 
ATOM     23  C   UNL     1      45.088   2.233   9.041  0.00  0.00    +0.000 A 
ATOM     24  C   UNL     1      46.034   1.533   8.288  0.00  0.00    +0.000 A 
ATOM     25  C   UNL     1      46.883   2.211   7.413  0.00  0.00    +0.000 A 
ATOM     26  C   UNL     1      46.728   3.589   7.251  0.00  0.00    +0.000 A 
ATOM     27  C   UNL     1      45.788   4.295   8.009  0.00  0.00    +0.000 A 
BRANCH  25  28
ATOM     28  O   UNL     1      47.895   1.647   6.688  0.00  0.00    +0.000 OA
ATOM     29  C   UNL     1      48.109   2.176   5.384  0.00  0.00    +0.000 C 
ENDBRANCH  25  28
ENDBRANCH  21  22
ENDBRANCH   5  21
TORSDOF 9
ENDMDL
MODEL 6
REMARK VINA RESULT:    -6.593      1.913      3.311
REMARK INTER + INTRA:         -11.179
REMARK INTER:                 -10.175
REMARK INTRA:                  -1.004
REMARK UNBOUND:                -1.116
REMARK  Name = 
REMARK  12 active torsions:
REMARK  status: ('A' for Active; 'I' for Inactive)
REMARK    1  A    between atoms: C_1  and  C_2
REMARK    2  A    between atoms: C_2  and  N_3
REMARK    3  A    between atoms: N_3  and  C_4
REMARK    4  A    between atoms: N_3  and  C_6
REMARK    5  A    between atoms: C_4  and  C_5
REMARK    6  A    between atoms: C_6  and  C_7
REMARK    7  A    between atoms: C_7  and  N_8
REMARK    8  A    between atoms: C_9  and  C_11
REMARK    9  A    between atoms: C_15  and  C_16
REMARK   10  A    between atoms: C_16  and  C_17
REMARK   11  A    between atoms: C_20  and  O_21
REMARK   12  A    between atoms: O_21  and  C_22
REMARK                            x       y       z     vdW  Elec       q    Type
REMARK                         _______ _______ _______ _____ _____    ______ ____
ROOT
ATOM      1  C   UNL     1      47.473   6.119  13.514  0.00  0.00    +0.000 A 
ATOM      2  C   UNL     1      47.286   6.602  12.139  0.00  0.00    +0.000 A 
ATOM      3  C   UNL     1      46.301   6.083  11.374  0.00  0.00    +0.000 A 
ATOM      4  N   UNL     1      45.466   5.098  11.904  0.00  0.00    +0.000 N 
ATOM      5  C   UNL     1      44.436   4.357  11.342  0.00  0.00    +0.000 A 
ATOM      6  C   UNL     1      43.972   3.562  12.372  0.00  0.00    +0.000 A 
ATOM      7  N   UNL     1      44.687   3.747  13.518  0.00  0.00    +0.000 NA
ATOM      8  C   UNL     1      45.587   4.656  13.219  0.00  0.00    +0.000 A 
ATOM      9  C   UNL     1      46.620   5.207  14.027  0.00  0.00    +0.000 A 
ENDROOT
BRANCH   1  11
ATOM     10  N   UNL     1      48.278   6.784  15.725  0.00  0.00    +0.000 N 
ATOM     11  C   UNL     1      48.550   6.710  14.377  0.00  0.00    +0.000 C 
ATOM     12  O   UNL     1      49.621   7.069  13.891  0.00  0.00    +0.000 OA
ATOM     13  H   UNL     1      47.510   6.262  16.127  0.00  0.00    +0.000 HD
BRANCH  10  14
ATOM     14  C   UNL     1      49.256   7.314  16.657  0.00  0.00    +0.000 C 
BRANCH  14  15
ATOM     15  C   UNL     1      49.109   8.833  16.896  0.00  0.00    +0.000 C 
BRANCH  15  16
ATOM     16  N   UNL     1      50.251   9.663  16.435  0.00  0.00    +0.000 NA
BRANCH  16  18
ATOM     17  C   UNL     1      50.876  10.390  14.086  0.00  0.00    +0.000 C 
ATOM     18  C   UNL     1      49.881  10.444  15.240  0.00  0.00    +0.000 C 
ENDBRANCH  16  18
BRANCH  16  19
ATOM     19  C   UNL     1      50.787  10.493  17.535  0.00  0.00    +0.000 C 
ATOM     20  C   UNL     1      52.307  10.634  17.617  0.00  0.00    +0.000 C 
ENDBRANCH  16  19
ENDBRANCH  15  16
ENDBRANCH  14  15
ENDBRANCH  10  14
ENDBRANCH   1  11
BRANCH   5  21
ATOM     21  C   UNL     1      43.988   4.401   9.918  0.00  0.00    +0.000 C 
BRANCH  21  22
ATOM     22  C   UNL     1      44.890   3.619   8.993  0.00  0.00    +0.000 A 
ATOM     23  C   UNL     1      45.012   2.232   9.138  0.00  0.00    +0.000 A 
ATOM     24  C   UNL     1      45.947   1.514   8.389  0.00  0.00    +0.000 A 
ATOM     25  C   UNL     1      46.769   2.168   7.471  0.00  0.00    +0.000 A 
ATOM     26  C   UNL     1      46.596   3.538   7.263  0.00  0.00    +0.000 A 
ATOM     27  C   UNL     1      45.666   4.262   8.018  0.00  0.00    +0.000 A 
BRANCH  25  28
ATOM     28  O   UNL     1      47.769   1.588   6.742  0.00  0.00    +0.000 OA
ATOM     29  C   UNL     1      48.013   2.139   5.453  0.00  0.00    +0.000 C 
ENDBRANCH  25  28
ENDBRANCH  21  22
ENDBRANCH   5  21
TORSDOF 9
ENDMDL
MODEL 7
REMARK VINA RESULT:    -6.233      2.171      8.673
REMARK INTER + INTRA:         -10.628
REMARK INTER:                  -9.683
REMARK INTRA:                  -0.946
REMARK UNBOUND:                -1.116
REMARK  Name = 
REMARK  12 active torsions:
REMARK  status: ('A' for Active; 'I' for Inactive)
REMARK    1  A    between atoms: C_1  and  C_2
REMARK    2  A    between atoms: C_2  and  N_3
REMARK    3  A    between atoms: N_3  and  C_4
REMARK    4  A    between atoms: N_3  and  C_6
REMARK    5  A    between atoms: C_4  and  C_5
REMARK    6  A    between atoms: C_6  and  C_7
REMARK    7  A    between atoms: C_7  and  N_8
REMARK    8  A    between atoms: C_9  and  C_11
REMARK    9  A    between atoms: C_15  and  C_16
REMARK   10  A    between atoms: C_16  and  C_17
REMARK   11  A    between atoms: C_20  and  O_21
REMARK   12  A    between atoms: O_21  and  C_22
REMARK                            x       y       z     vdW  Elec       q    Type
REMARK                         _______ _______ _______ _____ _____    ______ ____
ROOT
ATOM      1  C   UNL     1      46.570   5.275  12.882  0.00  0.00    +0.000 A 
ATOM      2  C   UNL     1      46.202   4.433  14.028  0.00  0.00    +0.000 A 
ATOM      3  C   UNL     1      46.866   4.564  15.198  0.00  0.00    +0.000 A 
ATOM      4  N   UNL     1      47.890   5.506  15.305  0.00  0.00    +0.000 N 
ATOM      5  C   UNL     1      48.765   5.810  16.338  0.00  0.00    +0.000 A 
ATOM      6  C   UNL     1      49.530   6.854  15.856  0.00  0.00    +0.000 A 
ATOM      7  N   UNL     1      49.199   7.178  14.574  0.00  0.00    +0.000 NA
ATOM      8  C   UNL     1      48.228   6.353  14.252  0.00  0.00    +0.000 A 
ATOM      9  C   UNL     1      47.525   6.219  13.022  0.00  0.00    +0.000 A 
ENDROOT
BRANCH   1  11
ATOM     10  N   UNL     1      44.876   4.149  11.525  0.00  0.00    +0.000 N 
ATOM     11  C   UNL     1      45.819   5.151  11.588  0.00  0.00    +0.000 C 
ATOM     12  O   UNL     1      46.027   5.932  10.662  0.00  0.00    +0.000 OA
ATOM     13  H   UNL     1      44.551   3.690  12.368  0.00  0.00    +0.000 HD
BRANCH  10  14
ATOM     14  C   UNL     1      44.074   3.951  10.333  0.00  0.00    +0.000 C 
BRANCH  14  15
ATOM     15  C   UNL     1      44.295   2.573   9.671  0.00  0.00    +0.000 C 
BRANCH  15  16
ATOM     16  N   UNL     1      45.495   2.469   8.802  0.00  0.00    +0.000 NA
BRANCH  16  18
ATOM     17  C   UNL     1      46.938   0.837   7.501  0.00  0.00    +0.000 C 
ATOM     18  C   UNL     1      45.689   1.081   8.342  0.00  0.00    +0.000 C 
ENDBRANCH  16  18
BRANCH  16  19
ATOM     19  C   UNL     1      45.441   3.450   7.697  0.00  0.00    +0.000 C 
ATOM     20  C   UNL     1      46.648   4.374   7.534  0.00  0.00    +0.000 C 
ENDBRANCH  16  19
ENDBRANCH  15  16
ENDBRANCH  14  15
ENDBRANCH  10  14
ENDBRANCH   1  11
BRANCH   5  21
ATOM     21  C   UNL     1      48.862   5.105  17.652  0.00  0.00    +0.000 C 
BRANCH  21  22
ATOM     22  C   UNL     1      49.887   3.996  17.651  0.00  0.00    +0.000 A 
ATOM     23  C   UNL     1      51.206   4.258  18.039  0.00  0.00    +0.000 A 
ATOM     24  C   UNL     1      52.197   3.283  17.907  0.00  0.00    +0.000 A 
ATOM     25  C   UNL     1      51.885   2.023  17.398  0.00  0.00    +0.000 A 
ATOM     26  C   UNL     1      50.555   1.729  17.085  0.00  0.00    +0.000 A 
ATOM     27  C   UNL     1      49.562   2.706  17.207  0.00  0.00    +0.000 A 
BRANCH  25  28
ATOM     28  O   UNL     1      52.779   1.019  17.150  0.00  0.00    +0.000 OA
ATOM     29  C   UNL     1      53.572   0.593  18.253  0.00  0.00    +0.000 C 
ENDBRANCH  25  28
ENDBRANCH  21  22
ENDBRANCH   5  21
TORSDOF 9
ENDMDL
MODEL 8
REMARK VINA RESULT:    -5.666      2.131      2.976
REMARK INTER + INTRA:          -9.763
REMARK INTER:                  -9.000
REMARK INTRA:                  -0.764
REMARK UNBOUND:                -1.116
REMARK  Name = 
REMARK  12 active torsions:
REMARK  status: ('A' for Active; 'I' for Inactive)
REMARK    1  A    between atoms: C_1  and  C_2
REMARK    2  A    between atoms: C_2  and  N_3
REMARK    3  A    between atoms: N_3  and  C_4
REMARK    4  A    between atoms: N_3  and  C_6
REMARK    5  A    between atoms: C_4  and  C_5
REMARK    6  A    between atoms: C_6  and  C_7
REMARK    7  A    between atoms: C_7  and  N_8
REMARK    8  A    between atoms: C_9  and  C_11
REMARK    9  A    between atoms: C_15  and  C_16
REMARK   10  A    between atoms: C_16  and  C_17
REMARK   11  A    between atoms: C_20  and  O_21
REMARK   12  A    between atoms: O_21  and  C_22
REMARK                            x       y       z     vdW  Elec       q    Type
REMARK                         _______ _______ _______ _____ _____    ______ ____
ROOT
ATOM      1  C   UNL     1      47.212   7.396  13.611  0.00  0.00    +0.000 A 
ATOM      2  C   UNL     1      47.228   5.938  13.437  0.00  0.00    +0.000 A 
ATOM      3  C   UNL     1      46.280   5.342  12.681  0.00  0.00    +0.000 A 
ATOM      4  N   UNL     1      45.300   6.122  12.066  0.00  0.00    +0.000 N 
ATOM      5  C   UNL     1      44.191   5.785  11.303  0.00  0.00    +0.000 A 
ATOM      6  C   UNL     1      43.621   6.995  10.956  0.00  0.00    +0.000 A 
ATOM      7  N   UNL     1      44.296   8.048  11.499  0.00  0.00    +0.000 NA
ATOM      8  C   UNL     1      45.287   7.512  12.173  0.00  0.00    +0.000 A 
ATOM      9  C   UNL     1      46.289   8.139  12.964  0.00  0.00    +0.000 A 
ENDROOT
BRANCH   1  11
ATOM     10  N   UNL     1      48.266   7.795  15.781  0.00  0.00    +0.000 N 
ATOM     11  C   UNL     1      48.277   8.066  14.430  0.00  0.00    +0.000 C 
ATOM     12  O   UNL     1      49.121   8.784  13.900  0.00  0.00    +0.000 OA
ATOM     13  H   UNL     1      47.729   7.020  16.149  0.00  0.00    +0.000 HD
BRANCH  10  14
ATOM     14  C   UNL     1      49.263   8.368  16.667  0.00  0.00    +0.000 C 
BRANCH  14  15
ATOM     15  C   UNL     1      48.680   8.838  18.018  0.00  0.00    +0.000 C 
BRANCH  15  16
ATOM     16  N   UNL     1      48.849   7.889  19.148  0.00  0.00    +0.000 NA
BRANCH  16  18
ATOM     17  C   UNL     1      48.750   9.776  20.842  0.00  0.00    +0.000 C 
ATOM     18  C   UNL     1      49.487   8.556  20.299  0.00  0.00    +0.000 C 
ENDBRANCH  16  18
BRANCH  16  19
ATOM     19  C   UNL     1      47.571   7.229  19.488  0.00  0.00    +0.000 C 
ATOM     20  C   UNL     1      47.322   5.850  18.875  0.00  0.00    +0.000 C 
ENDBRANCH  16  19
ENDBRANCH  15  16
ENDBRANCH  14  15
ENDBRANCH  10  14
ENDBRANCH   1  11
BRANCH   5  21
ATOM     21  C   UNL     1      43.720   4.403  10.987  0.00  0.00    +0.000 C 
BRANCH  21  22
ATOM     22  C   UNL     1      44.470   3.774   9.837  0.00  0.00    +0.000 A 
ATOM     23  C   UNL     1      44.520   2.381   9.710  0.00  0.00    +0.000 A 
ATOM     24  C   UNL     1      45.325   1.780   8.739  0.00  0.00    +0.000 A 
ATOM     25  C   UNL     1      46.084   2.562   7.869  0.00  0.00    +0.000 A 
ATOM     26  C   UNL     1      45.976   3.953   7.937  0.00  0.00    +0.000 A 
ATOM     27  C   UNL     1      45.177   4.558   8.914  0.00  0.00    +0.000 A 
BRANCH  25  28
ATOM     28  O   UNL     1      46.964   2.090   6.936  0.00  0.00    +0.000 OA
ATOM     29  C   UNL     1      46.968   2.754   5.677  0.00  0.00    +0.000 C 
ENDBRANCH  25  28
ENDBRANCH  21  22
ENDBRANCH   5  21
TORSDOF 9
ENDMDL
MODEL 9
REMARK VINA RESULT:    -5.634      1.975      2.833
REMARK INTER + INTRA:          -9.714
REMARK INTER:                  -9.036
REMARK INTRA:                  -0.678
REMARK UNBOUND:                -1.116
REMARK  Name = 
REMARK  12 active torsions:
REMARK  status: ('A' for Active; 'I' for Inactive)
REMARK    1  A    between atoms: C_1  and  C_2
REMARK    2  A    between atoms: C_2  and  N_3
REMARK    3  A    between atoms: N_3  and  C_4
REMARK    4  A    between atoms: N_3  and  C_6
REMARK    5  A    between atoms: C_4  and  C_5
REMARK    6  A    between atoms: C_6  and  C_7
REMARK    7  A    between atoms: C_7  and  N_8
REMARK    8  A    between atoms: C_9  and  C_11
REMARK    9  A    between atoms: C_15  and  C_16
REMARK   10  A    between atoms: C_16  and  C_17
REMARK   11  A    between atoms: C_20  and  O_21
REMARK   12  A    between atoms: O_21  and  C_22
REMARK                            x       y       z     vdW  Elec       q    Type
REMARK                         _______ _______ _______ _____ _____    ______ ____
ROOT
ATOM      1  C   UNL     1      47.472   5.685  14.585  0.00  0.00    +0.000 A 
ATOM      2  C   UNL     1      46.850   4.426  14.155  0.00  0.00    +0.000 A 
ATOM      3  C   UNL     1      45.966   4.429  13.132  0.00  0.00    +0.000 A 
ATOM      4  N   UNL     1      45.661   5.631  12.491  0.00  0.00    +0.000 N 
ATOM      5  C   UNL     1      44.764   5.939  11.478  0.00  0.00    +0.000 A 
ATOM      6  C   UNL     1      44.937   7.291  11.253  0.00  0.00    +0.000 A 
ATOM      7  N   UNL     1      45.858   7.833  12.100  0.00  0.00    +0.000 NA
ATOM      8  C   UNL     1      46.271   6.833  12.845  0.00  0.00    +0.000 A 
ATOM      9  C   UNL     1      47.205   6.828  13.917  0.00  0.00    +0.000 A 
ENDROOT
BRANCH   1  11
ATOM     10  N   UNL     1      49.023   6.904  16.030  0.00  0.00    +0.000 N 
ATOM     11  C   UNL     1      48.472   5.684  15.704  0.00  0.00    +0.000 C 
ATOM     12  O   UNL     1      48.743   4.647  16.305  0.00  0.00    +0.000 OA
ATOM     13  H   UNL     1      48.607   7.765  15.698  0.00  0.00    +0.000 HD
BRANCH  10  14
ATOM     14  C   UNL     1      49.984   7.026  17.111  0.00  0.00    +0.000 C 
BRANCH  14  15
ATOM     15  C   UNL     1      51.383   6.482  16.747  0.00  0.00    +0.000 C 
BRANCH  15  16
ATOM     16  N   UNL     1      52.201   6.013  17.895  0.00  0.00    +0.000 NA
BRANCH  16  18
ATOM     17  C   UNL     1      53.187   3.675  17.933  0.00  0.00    +0.000 C 
ATOM     18  C   UNL     1      53.278   5.115  17.437  0.00  0.00    +0.000 C 
ENDBRANCH  16  18
BRANCH  16  19
ATOM     19  C   UNL     1      52.691   7.150  18.702  0.00  0.00    +0.000 C 
ATOM     20  C   UNL     1      53.549   6.813  19.923  0.00  0.00    +0.000 C 
ENDBRANCH  16  19
ENDBRANCH  15  16
ENDBRANCH  14  15
ENDBRANCH  10  14
ENDBRANCH   1  11
BRANCH   5  21
ATOM     21  C   UNL     1      43.803   4.996  10.830  0.00  0.00    +0.000 C 
BRANCH  21  22
ATOM     22  C   UNL     1      44.463   4.079   9.828  0.00  0.00    +0.000 A 
ATOM     23  C   UNL     1      44.312   2.692   9.941  0.00  0.00    +0.000 A 
ATOM     24  C   UNL     1      45.029   1.825   9.113  0.00  0.00    +0.000 A 
ATOM     25  C   UNL     1      45.900   2.330   8.148  0.00  0.00    +0.000 A 
ATOM     26  C   UNL     1      45.993   3.713   7.976  0.00  0.00    +0.000 A 
ATOM     27  C   UNL     1      45.283   4.583   8.809  0.00  0.00    +0.000 A 
BRANCH  25  28
ATOM     28  O   UNL     1      46.709   1.584   7.337  0.00  0.00    +0.000 OA
ATOM     29  C   UNL     1      46.768   0.189   7.613  0.00  0.00    +0.000 C 
ENDBRANCH  25  28
ENDBRANCH  21  22
ENDBRANCH   5  21
TORSDOF 9
ENDMDL
