MODEL 1
REMARK VINA RESULT:    -7.866      0.000      0.000
REMARK INTER + INTRA:         -11.323
REMARK INTER:                 -10.395
REMARK INTRA:                  -0.928
REMARK UNBOUND:                -0.928
REMARK  Name = 
REMARK  6 active torsions:
REMARK  status: ('A' for Active; 'I' for Inactive)
REMARK    1  A    between atoms: N_1  and  C_2
REMARK    2  A    between atoms: C_7  and  C_8
REMARK    3  A    between atoms: C_8  and  C_9
REMARK    4  A    between atoms: C_12  and  C_13
REMARK    5  A    between atoms: C_13  and  N_14
REMARK    6  A    between atoms: C_15  and  C_17
REMARK                            x       y       z     vdW  Elec       q    Type
REMARK                         _______ _______ _______ _____ _____    ______ ____
ROOT
ATOM      1  C   UNL     1      45.020   6.052  10.829  0.00  0.00    +0.000 A 
ATOM      2  C   UNL     1      46.414   5.965  10.878  0.00  0.00    +0.000 A 
ATOM      3  C   UNL     1      47.131   6.756  11.772  0.00  0.00    +0.000 A 
ATOM      4  C   UNL     1      46.439   7.634  12.600  0.00  0.00    +0.000 A 
ATOM      5  N   UNL     1      45.088   7.764  12.548  0.00  0.00    +0.000 NA
ATOM      6  C   UNL     1      44.414   6.974  11.675  0.00  0.00    +0.000 A 
ENDROOT
BRANCH   1   7
ATOM      7  C   UNL     1      44.213   5.090   9.991  0.00  0.00    +0.000 C 
BRANCH   7  13
ATOM      8  C   UNL     1      44.964   2.676   9.589  0.00  0.00    +0.000 A 
ATOM      9  C   UNL     1      45.618   1.783   8.733  0.00  0.00    +0.000 A 
ATOM     10  C   UNL     1      46.286   2.240   7.600  0.00  0.00    +0.000 A 
ATOM     11  C   UNL     1      46.259   3.594   7.335  0.00  0.00    +0.000 A 
ATOM     12  N   UNL     1      45.635   4.495   8.121  0.00  0.00    +0.000 NA
ATOM     13  C   UNL     1      44.978   4.034   9.224  0.00  0.00    +0.000 A 
BRANCH   8  14
ATOM     14  N   UNL     1      44.135   2.151  10.594  0.00  0.00    +0.000 N 
ATOM     15  H   UNL     1      43.436   1.502  10.241  0.00  0.00    +0.000 HD
ATOM     16  H   UNL     1      44.630   1.762  11.390  0.00  0.00    +0.000 HD
ENDBRANCH   8  14
ENDBRANCH   7  13
ENDBRANCH   1   7
BRANCH   4  17
ATOM     17  C   UNL     1      47.178   8.419  13.659  0.00  0.00    +0.000 C 
BRANCH  17  18
ATOM     18  N   UNL     1      47.549   7.588  14.786  0.00  0.00    +0.000 N 
ATOM     19  C   UNL     1      48.813   7.082  14.945  0.00  0.00    +0.000 C 
ATOM     20  O   UNL     1      49.710   7.309  14.138  0.00  0.00    +0.000 OA
ATOM     21  H   UNL     1      46.779   7.209  15.325  0.00  0.00    +0.000 HD
BRANCH  19  22
ATOM     22  C   UNL     1      49.068   6.299  16.167  0.00  0.00    +0.000 A 
ATOM     23  C   UNL     1      50.061   6.712  17.047  0.00  0.00    +0.000 A 
ATOM     24  S   UNL     1      50.214   5.722  18.427  0.00  0.00    +0.000 S 
ATOM     25  C   UNL     1      48.990   4.675  17.881  0.00  0.00    +0.000 A 
ATOM     26  N   UNL     1      48.638   3.576  18.598  0.00  0.00    +0.000 NA
ATOM     27  C   UNL     1      47.719   2.853  18.050  0.00  0.00    +0.000 A 
ATOM     28  N   UNL     1      47.112   3.137  16.854  0.00  0.00    +0.000 N 
ATOM     29  C   UNL     1      47.399   4.264  16.121  0.00  0.00    +0.000 A 
ATOM     30  O   UNL     1      46.778   4.533  15.098  0.00  0.00    +0.000 OA
ATOM     31  C   UNL     1      48.453   5.095  16.673  0.00  0.00    +0.000 A 
ATOM     32  H   UNL     1      46.385   2.541  16.488  0.00  0.00    +0.000 HD
ENDBRANCH  19  22
ENDBRANCH  17  18
ENDBRANCH   4  17
TORSDOF 6
ENDMDL
MODEL 2
REMARK VINA RESULT:    -7.201      2.837      4.566
REMARK INTER + INTRA:         -10.444
REMARK INTER:                  -9.517
REMARK INTRA:                  -0.927
REMARK UNBOUND:                -0.928
REMARK  Name = 
REMARK  6 active torsions:
REMARK  status: ('A' for Active; 'I' for Inactive)
REMARK    1  A    between atoms: N_1  and  C_2
REMARK    2  A    between atoms: C_7  and  C_8
REMARK    3  A    between atoms: C_8  and  C_9
REMARK    4  A    between atoms: C_12  and  C_13
REMARK    5  A    between atoms: C_13  and  N_14
REMARK    6  A    between atoms: C_15  and  C_17
REMARK                            x       y       z     vdW  Elec       q    Type
REMARK                         _______ _______ _______ _____ _____    ______ ____
ROOT
ATOM      1  C   UNL     1      44.878   4.397   9.659  0.00  0.00    +0.000 A 
ATOM      2  C   UNL     1      45.686   5.517   9.877  0.00  0.00    +0.000 A 
ATOM      3  C   UNL     1      46.024   5.892  11.174  0.00  0.00    +0.000 A 
ATOM      4  C   UNL     1      45.537   5.142  12.240  0.00  0.00    +0.000 A 
ATOM      5  N   UNL     1      44.721   4.072  12.059  0.00  0.00    +0.000 NA
ATOM      6  C   UNL     1      44.417   3.722  10.784  0.00  0.00    +0.000 A 
ENDROOT
BRANCH   1   7
ATOM      7  C   UNL     1      44.635   3.876   8.264  0.00  0.00    +0.000 C 
BRANCH   7  13
ATOM      8  C   UNL     1      46.145   1.841   7.906  0.00  0.00    +0.000 A 
ATOM      9  C   UNL     1      47.150   1.252   7.127  0.00  0.00    +0.000 A 
ATOM     10  C   UNL     1      47.782   1.972   6.117  0.00  0.00    +0.000 A 
ATOM     11  C   UNL     1      47.369   3.269   5.890  0.00  0.00    +0.000 A 
ATOM     12  N   UNL     1      46.400   3.878   6.603  0.00  0.00    +0.000 NA
ATOM     13  C   UNL     1      45.783   3.161   7.585  0.00  0.00    +0.000 A 
BRANCH   8  14
ATOM     14  N   UNL     1      45.398   1.016   8.764  0.00  0.00    +0.000 N 
ATOM     15  H   UNL     1      45.484   1.273   9.744  0.00  0.00    +0.000 HD
ATOM     16  H   UNL     1      44.427   0.899   8.497  0.00  0.00    +0.000 HD
ENDBRANCH   8  14
ENDBRANCH   7  13
ENDBRANCH   1   7
BRANCH   4  17
ATOM     17  C   UNL     1      45.981   5.454  13.651  0.00  0.00    +0.000 C 
BRANCH  17  18
ATOM     18  N   UNL     1      46.665   6.729  13.732  0.00  0.00    +0.000 N 
ATOM     19  C   UNL     1      47.927   6.857  14.253  0.00  0.00    +0.000 C 
ATOM     20  O   UNL     1      48.555   5.891  14.679  0.00  0.00    +0.000 OA
ATOM     21  H   UNL     1      46.085   7.549  13.602  0.00  0.00    +0.000 HD
BRANCH  19  22
ATOM     22  C   UNL     1      48.527   8.202  14.222  0.00  0.00    +0.000 A 
ATOM     23  C   UNL     1      48.512   8.982  15.372  0.00  0.00    +0.000 A 
ATOM     24  S   UNL     1      49.272  10.497  15.187  0.00  0.00    +0.000 S 
ATOM     25  C   UNL     1      49.611  10.190  13.549  0.00  0.00    +0.000 A 
ATOM     26  N   UNL     1      50.237  11.117  12.778  0.00  0.00    +0.000 NA
ATOM     27  C   UNL     1      50.402  10.765  11.547  0.00  0.00    +0.000 A 
ATOM     28  N   UNL     1      50.006   9.563  11.019  0.00  0.00    +0.000 N 
ATOM     29  C   UNL     1      49.417   8.575  11.772  0.00  0.00    +0.000 A 
ATOM     30  O   UNL     1      49.152   7.480  11.291  0.00  0.00    +0.000 OA
ATOM     31  C   UNL     1      49.175   8.933  13.158  0.00  0.00    +0.000 A 
ATOM     32  H   UNL     1      50.181   9.339  10.051  0.00  0.00    +0.000 HD
ENDBRANCH  19  22
ENDBRANCH  17  18
ENDBRANCH   4  17
TORSDOF 6
ENDMDL
MODEL 3
REMARK VINA RESULT:    -7.060      4.228      8.974
REMARK INTER + INTRA:         -10.258
REMARK INTER:                  -9.737
REMARK INTRA:                  -0.522
REMARK UNBOUND:                -0.928
REMARK  Name = 
REMARK  6 active torsions:
REMARK  status: ('A' for Active; 'I' for Inactive)
REMARK    1  A    between atoms: N_1  and  C_2
REMARK    2  A    between atoms: C_7  and  C_8
REMARK    3  A    between atoms: C_8  and  C_9
REMARK    4  A    between atoms: C_12  and  C_13
REMARK    5  A    between atoms: C_13  and  N_14
REMARK    6  A    between atoms: C_15  and  C_17
REMARK                            x       y       z     vdW  Elec       q    Type
REMARK                         _______ _______ _______ _____ _____    ______ ____
ROOT
ATOM      1  C   UNL     1      51.589   3.049  17.787  0.00  0.00    +0.000 A 
ATOM      2  C   UNL     1      50.856   4.180  18.156  0.00  0.00    +0.000 A 
ATOM      3  C   UNL     1      49.504   4.272  17.833  0.00  0.00    +0.000 A 
ATOM      4  C   UNL     1      48.907   3.229  17.133  0.00  0.00    +0.000 A 
ATOM      5  N   UNL     1      49.604   2.135  16.731  0.00  0.00    +0.000 NA
ATOM      6  C   UNL     1      50.916   2.067  17.069  0.00  0.00    +0.000 A 
ENDROOT
BRANCH   1   7
ATOM      7  C   UNL     1      53.006   2.853  18.269  0.00  0.00    +0.000 C 
BRANCH   7  13
ATOM      8  C   UNL     1      54.772   1.521  16.981  0.00  0.00    +0.000 A 
ATOM      9  C   UNL     1      55.395   0.281  16.795  0.00  0.00    +0.000 A 
ATOM     10  C   UNL     1      54.926  -0.857  17.444  0.00  0.00    +0.000 A 
ATOM     11  C   UNL     1      53.849  -0.719  18.297  0.00  0.00    +0.000 A 
ATOM     12  N   UNL     1      53.220   0.452  18.519  0.00  0.00    +0.000 NA
ATOM     13  C   UNL     1      53.693   1.562  17.882  0.00  0.00    +0.000 A 
BRANCH   8  14
ATOM     14  N   UNL     1      55.405   2.668  16.473  0.00  0.00    +0.000 N 
ATOM     15  H   UNL     1      55.491   2.665  15.460  0.00  0.00    +0.000 HD
ATOM     16  H   UNL     1      55.020   3.545  16.808  0.00  0.00    +0.000 HD
ENDBRANCH   8  14
ENDBRANCH   7  13
ENDBRANCH   1   7
BRANCH   4  17
ATOM     17  C   UNL     1      47.418   3.247  16.871  0.00  0.00    +0.000 C 
BRANCH  17  18
ATOM     18  N   UNL     1      47.052   4.269  15.912  0.00  0.00    +0.000 N 
ATOM     19  C   UNL     1      47.012   4.033  14.562  0.00  0.00    +0.000 C 
ATOM     20  O   UNL     1      47.284   2.934  14.086  0.00  0.00    +0.000 OA
ATOM     21  H   UNL     1      47.051   5.220  16.261  0.00  0.00    +0.000 HD
BRANCH  19  22
ATOM     22  C   UNL     1      46.568   5.145  13.704  0.00  0.00    +0.000 A 
ATOM     23  C   UNL     1      47.395   6.249  13.535  0.00  0.00    +0.000 A 
ATOM     24  S   UNL     1      46.755   7.435  12.490  0.00  0.00    +0.000 S 
ATOM     25  C   UNL     1      45.327   6.542  12.259  0.00  0.00    +0.000 A 
ATOM     26  N   UNL     1      44.323   7.018  11.477  0.00  0.00    +0.000 NA
ATOM     27  C   UNL     1      43.285   6.252  11.415  0.00  0.00    +0.000 A 
ATOM     28  N   UNL     1      43.166   5.047  12.057  0.00  0.00    +0.000 N 
ATOM     29  C   UNL     1      44.174   4.502  12.815  0.00  0.00    +0.000 A 
ATOM     30  O   UNL     1      44.069   3.384  13.307  0.00  0.00    +0.000 OA
ATOM     31  C   UNL     1      45.353   5.339  12.948  0.00  0.00    +0.000 A 
ATOM     32  H   UNL     1      42.334   4.484  11.954  0.00  0.00    +0.000 HD
ENDBRANCH  19  22
ENDBRANCH  17  18
ENDBRANCH   4  17
TORSDOF 6
ENDMDL
MODEL 4
REMARK VINA RESULT:    -6.909      1.927      2.378
REMARK INTER + INTRA:         -10.059
REMARK INTER:                  -9.049
REMARK INTRA:                  -1.009
REMARK UNBOUND:                -0.928
REMARK  Name = 
REMARK  6 active torsions:
REMARK  status: ('A' for Active; 'I' for Inactive)
REMARK    1  A    between atoms: N_1  and  C_2
REMARK    2  A    between atoms: C_7  and  C_8
REMARK    3  A    between atoms: C_8  and  C_9
REMARK    4  A    between atoms: C_12  and  C_13
REMARK    5  A    between atoms: C_13  and  N_14
REMARK    6  A    between atoms: C_15  and  C_17
REMARK                            x       y       z     vdW  Elec       q    Type
REMARK                         _______ _______ _______ _____ _____    ______ ____
ROOT
ATOM      1  C   UNL     1      45.597   5.654  12.724  0.00  0.00    +0.000 A 
ATOM      2  C   UNL     1      45.860   7.021  12.599  0.00  0.00    +0.000 A 
ATOM      3  C   UNL     1      47.045   7.553  13.100  0.00  0.00    +0.000 A 
ATOM      4  C   UNL     1      47.948   6.706  13.733  0.00  0.00    +0.000 A 
ATOM      5  N   UNL     1      47.703   5.381  13.901  0.00  0.00    +0.000 NA
ATOM      6  C   UNL     1      46.546   4.887  13.393  0.00  0.00    +0.000 A 
ENDROOT
BRANCH   1   7
ATOM      7  C   UNL     1      44.404   5.029  12.045  0.00  0.00    +0.000 C 
BRANCH   7  13
ATOM      8  C   UNL     1      44.254   2.908  10.619  0.00  0.00    +0.000 A 
ATOM      9  C   UNL     1      44.452   2.329   9.359  0.00  0.00    +0.000 A 
ATOM     10  C   UNL     1      45.069   3.043   8.337  0.00  0.00    +0.000 A 
ATOM     11  C   UNL     1      45.453   4.344   8.594  0.00  0.00    +0.000 A 
ATOM     12  N   UNL     1      45.277   4.951   9.785  0.00  0.00    +0.000 NA
ATOM     13  C   UNL     1      44.664   4.243  10.778  0.00  0.00    +0.000 A 
BRANCH   8  14
ATOM     14  N   UNL     1      43.445   2.228  11.546  0.00  0.00    +0.000 N 
ATOM     15  H   UNL     1      42.460   2.467  11.471  0.00  0.00    +0.000 HD
ATOM     16  H   UNL     1      43.580   1.223  11.566  0.00  0.00    +0.000 HD
ENDBRANCH   8  14
ENDBRANCH   7  13
ENDBRANCH   1   7
BRANCH   4  17
ATOM     17  C   UNL     1      49.292   7.232  14.184  0.00  0.00    +0.000 C 
BRANCH  17  18
ATOM     18  N   UNL     1      49.502   7.032  15.603  0.00  0.00    +0.000 N 
ATOM     19  C   UNL     1      49.070   7.929  16.546  0.00  0.00    +0.000 C 
ATOM     20  O   UNL     1      48.475   8.957  16.239  0.00  0.00    +0.000 OA
ATOM     21  H   UNL     1      50.179   6.321  15.852  0.00  0.00    +0.000 HD
BRANCH  19  22
ATOM     22  C   UNL     1      49.299   7.573  17.957  0.00  0.00    +0.000 A 
ATOM     23  C   UNL     1      49.976   8.462  18.784  0.00  0.00    +0.000 A 
ATOM     24  S   UNL     1      50.133   7.923  20.393  0.00  0.00    +0.000 S 
ATOM     25  C   UNL     1      49.343   6.459  20.039  0.00  0.00    +0.000 A 
ATOM     26  N   UNL     1      49.168   5.510  20.996  0.00  0.00    +0.000 NA
ATOM     27  C   UNL     1      48.582   4.436  20.581  0.00  0.00    +0.000 A 
ATOM     28  N   UNL     1      48.145   4.231  19.298  0.00  0.00    +0.000 N 
ATOM     29  C   UNL     1      48.254   5.183  18.312  0.00  0.00    +0.000 A 
ATOM     30  O   UNL     1      47.778   5.002  17.197  0.00  0.00    +0.000 OA
ATOM     31  C   UNL     1      48.939   6.397  18.714  0.00  0.00    +0.000 A 
ATOM     32  H   UNL     1      47.676   3.376  19.040  0.00  0.00    +0.000 HD
ENDBRANCH  19  22
ENDBRANCH  17  18
ENDBRANCH   4  17
TORSDOF 6
ENDMDL
MODEL 5
REMARK VINA RESULT:    -6.906      1.902      2.610
REMARK INTER + INTRA:         -10.055
REMARK INTER:                  -8.780
REMARK INTRA:                  -1.275
REMARK UNBOUND:                -0.928
REMARK  Name = 
REMARK  6 active torsions:
REMARK  status: ('A' for Active; 'I' for Inactive)
REMARK    1  A    between atoms: N_1  and  C_2
REMARK    2  A    between atoms: C_7  and  C_8
REMARK    3  A    between atoms: C_8  and  C_9
REMARK    4  A    between atoms: C_12  and  C_13
REMARK    5  A    between atoms: C_13  and  N_14
REMARK    6  A    between atoms: C_15  and  C_17
REMARK                            x       y       z     vdW  Elec       q    Type
REMARK                         _______ _______ _______ _____ _____    ______ ____
ROOT
ATOM      1  C   UNL     1      45.664   7.398  11.844  0.00  0.00    +0.000 A 
ATOM      2  C   UNL     1      46.838   6.666  11.645  0.00  0.00    +0.000 A 
ATOM      3  C   UNL     1      48.009   7.032  12.304  0.00  0.00    +0.000 A 
ATOM      4  C   UNL     1      47.988   8.138  13.148  0.00  0.00    +0.000 A 
ATOM      5  N   UNL     1      46.872   8.888  13.331  0.00  0.00    +0.000 NA
ATOM      6  C   UNL     1      45.743   8.503  12.685  0.00  0.00    +0.000 A 
ENDROOT
BRANCH   1   7
ATOM      7  C   UNL     1      44.349   6.924  11.274  0.00  0.00    +0.000 C 
BRANCH   7  13
ATOM      8  C   UNL     1      44.036   4.526  10.434  0.00  0.00    +0.000 A 
ATOM      9  C   UNL     1      43.797   3.189  10.776  0.00  0.00    +0.000 A 
ATOM     10  C   UNL     1      43.488   2.833  12.086  0.00  0.00    +0.000 A 
ATOM     11  C   UNL     1      43.452   3.832  13.038  0.00  0.00    +0.000 A 
ATOM     12  N   UNL     1      43.685   5.131  12.764  0.00  0.00    +0.000 NA
ATOM     13  C   UNL     1      43.994   5.467  11.478  0.00  0.00    +0.000 A 
BRANCH   8  14
ATOM     14  N   UNL     1      44.547   4.806   9.155  0.00  0.00    +0.000 N 
ATOM     15  H   UNL     1      45.270   4.156   8.859  0.00  0.00    +0.000 HD
ATOM     16  H   UNL     1      43.841   4.926   8.436  0.00  0.00    +0.000 HD
ENDBRANCH   8  14
ENDBRANCH   7  13
ENDBRANCH   1   7
BRANCH   4  17
ATOM     17  C   UNL     1      49.211   8.490  13.965  0.00  0.00    +0.000 C 
BRANCH  17  18
ATOM     18  N   UNL     1      49.296   7.699  15.176  0.00  0.00    +0.000 N 
ATOM     19  C   UNL     1      48.751   8.109  16.365  0.00  0.00    +0.000 C 
ATOM     20  O   UNL     1      48.151   9.175  16.471  0.00  0.00    +0.000 OA
ATOM     21  H   UNL     1      49.972   6.944  15.161  0.00  0.00    +0.000 HD
BRANCH  19  22
ATOM     22  C   UNL     1      48.861   7.181  17.504  0.00  0.00    +0.000 A 
ATOM     23  C   UNL     1      49.271   7.665  18.740  0.00  0.00    +0.000 A 
ATOM     24  S   UNL     1      49.319   6.477  19.963  0.00  0.00    +0.000 S 
ATOM     25  C   UNL     1      48.838   5.260  18.877  0.00  0.00    +0.000 A 
ATOM     26  N   UNL     1      48.710   3.970  19.285  0.00  0.00    +0.000 NA
ATOM     27  C   UNL     1      48.370   3.146  18.351  0.00  0.00    +0.000 A 
ATOM     28  N   UNL     1      48.135   3.498  17.047  0.00  0.00    +0.000 N 
ATOM     29  C   UNL     1      48.201   4.797  16.602  0.00  0.00    +0.000 A 
ATOM     30  O   UNL     1      47.903   5.091  15.449  0.00  0.00    +0.000 OA
ATOM     31  C   UNL     1      48.615   5.761  17.604  0.00  0.00    +0.000 A 
ATOM     32  H   UNL     1      47.853   2.809  16.366  0.00  0.00    +0.000 HD
ENDBRANCH  19  22
ENDBRANCH  17  18
ENDBRANCH   4  17
TORSDOF 6
ENDMDL
MODEL 6
REMARK VINA RESULT:    -6.885      3.543      9.246
REMARK INTER + INTRA:         -10.026
REMARK INTER:                  -9.304
REMARK INTRA:                  -0.722
REMARK UNBOUND:                -0.928
REMARK  Name = 
REMARK  6 active torsions:
REMARK  status: ('A' for Active; 'I' for Inactive)
REMARK    1  A    between atoms: N_1  and  C_2
REMARK    2  A    between atoms: C_7  and  C_8
REMARK    3  A    between atoms: C_8  and  C_9
REMARK    4  A    between atoms: C_12  and  C_13
REMARK    5  A    between atoms: C_13  and  N_14
REMARK    6  A    between atoms: C_15  and  C_17
REMARK                            x       y       z     vdW  Elec       q    Type
REMARK                         _______ _______ _______ _____ _____    ______ ____
ROOT
ATOM      1  C   UNL     1      51.325   3.142  17.673  0.00  0.00    +0.000 A 
ATOM      2  C   UNL     1      50.622   4.309  17.988  0.00  0.00    +0.000 A 
ATOM      3  C   UNL     1      49.263   4.405  17.697  0.00  0.00    +0.000 A 
ATOM      4  C   UNL     1      48.629   3.331  17.083  0.00  0.00    +0.000 A 
ATOM      5  N   UNL     1      49.295   2.200  16.733  0.00  0.00    +0.000 NA
ATOM      6  C   UNL     1      50.615   2.129  17.038  0.00  0.00    +0.000 A 
ENDROOT
BRANCH   1   7
ATOM      7  C   UNL     1      52.751   2.951  18.127  0.00  0.00    +0.000 C 
BRANCH   7  13
ATOM      8  C   UNL     1      53.473   4.618  19.930  0.00  0.00    +0.000 A 
ATOM      9  C   UNL     1      54.297   5.702  20.258  0.00  0.00    +0.000 A 
ATOM     10  C   UNL     1      55.061   6.336  19.283  0.00  0.00    +0.000 A 
ATOM     11  C   UNL     1      55.004   5.846  17.994  0.00  0.00    +0.000 A 
ATOM     12  N   UNL     1      54.237   4.799  17.629  0.00  0.00    +0.000 NA
ATOM     13  C   UNL     1      53.497   4.181  18.594  0.00  0.00    +0.000 A 
BRANCH   8  14
ATOM     14  N   UNL     1      52.888   3.885  20.977  0.00  0.00    +0.000 N 
ATOM     15  H   UNL     1      52.255   4.437  21.550  0.00  0.00    +0.000 HD
ATOM     16  H   UNL     1      52.459   3.011  20.692  0.00  0.00    +0.000 HD
ENDBRANCH   8  14
ENDBRANCH   7  13
ENDBRANCH   1   7
BRANCH   4  17
ATOM     17  C   UNL     1      47.134   3.360  16.860  0.00  0.00    +0.000 C 
BRANCH  17  18
ATOM     18  N   UNL     1      46.754   4.347  15.870  0.00  0.00    +0.000 N 
ATOM     19  C   UNL     1      46.830   4.107  14.523  0.00  0.00    +0.000 C 
ATOM     20  O   UNL     1      47.222   3.033  14.075  0.00  0.00    +0.000 OA
ATOM     21  H   UNL     1      46.652   5.296  16.211  0.00  0.00    +0.000 HD
BRANCH  19  22
ATOM     22  C   UNL     1      46.359   5.178  13.627  0.00  0.00    +0.000 A 
ATOM     23  C   UNL     1      47.190   6.260  13.362  0.00  0.00    +0.000 A 
ATOM     24  S   UNL     1      46.516   7.398  12.285  0.00  0.00    +0.000 S 
ATOM     25  C   UNL     1      45.069   6.512  12.166  0.00  0.00    +0.000 A 
ATOM     26  N   UNL     1      44.036   6.960  11.406  0.00  0.00    +0.000 NA
ATOM     27  C   UNL     1      42.988   6.206  11.432  0.00  0.00    +0.000 A 
ATOM     28  N   UNL     1      42.885   5.038  12.142  0.00  0.00    +0.000 N 
ATOM     29  C   UNL     1      43.921   4.520  12.883  0.00  0.00    +0.000 A 
ATOM     30  O   UNL     1      43.826   3.431  13.438  0.00  0.00    +0.000 OA
ATOM     31  C   UNL     1      45.113   5.347  12.917  0.00  0.00    +0.000 A 
ATOM     32  H   UNL     1      42.043   4.482  12.106  0.00  0.00    +0.000 HD
ENDBRANCH  19  22
ENDBRANCH  17  18
ENDBRANCH   4  17
TORSDOF 6
ENDMDL
MODEL 7
REMARK VINA RESULT:    -6.883      2.555      3.473
REMARK INTER + INTRA:         -10.025
REMARK INTER:                  -9.449
REMARK INTRA:                  -0.576
REMARK UNBOUND:                -0.928
REMARK  Name = 
REMARK  6 active torsions:
REMARK  status: ('A' for Active; 'I' for Inactive)
REMARK    1  A    between atoms: N_1  and  C_2
REMARK    2  A    between atoms: C_7  and  C_8
REMARK    3  A    between atoms: C_8  and  C_9
REMARK    4  A    between atoms: C_12  and  C_13
REMARK    5  A    between atoms: C_13  and  N_14
REMARK    6  A    between atoms: C_15  and  C_17
REMARK                            x       y       z     vdW  Elec       q    Type
REMARK                         _______ _______ _______ _____ _____    ______ ____
ROOT
ATOM      1  C   UNL     1      44.903   4.592   9.572  0.00  0.00    +0.000 A 
ATOM      2  C   UNL     1      44.047   4.322  10.643  0.00  0.00    +0.000 A 
ATOM      3  C   UNL     1      44.206   4.996  11.851  0.00  0.00    +0.000 A 
ATOM      4  C   UNL     1      45.232   5.927  11.972  0.00  0.00    +0.000 A 
ATOM      5  N   UNL     1      46.100   6.183  10.960  0.00  0.00    +0.000 NA
ATOM      6  C   UNL     1      45.915   5.520   9.791  0.00  0.00    +0.000 A 
ENDROOT
BRANCH   1   7
ATOM      7  C   UNL     1      44.648   3.999   8.208  0.00  0.00    +0.000 C 
BRANCH   7  13
ATOM      8  C   UNL     1      46.044   1.861   8.025  0.00  0.00    +0.000 A 
ATOM      9  C   UNL     1      47.017   1.158   7.304  0.00  0.00    +0.000 A 
ATOM     10  C   UNL     1      47.692   1.759   6.245  0.00  0.00    +0.000 A 
ATOM     11  C   UNL     1      47.353   3.054   5.912  0.00  0.00    +0.000 A 
ATOM     12  N   UNL     1      46.417   3.771   6.566  0.00  0.00    +0.000 NA
ATOM     13  C   UNL     1      45.757   3.169   7.598  0.00  0.00    +0.000 A 
BRANCH   8  14
ATOM     14  N   UNL     1      45.249   1.150   8.940  0.00  0.00    +0.000 N 
ATOM     15  H   UNL     1      45.714   0.978   9.828  0.00  0.00    +0.000 HD
ATOM     16  H   UNL     1      44.320   1.533   9.079  0.00  0.00    +0.000 HD
ENDBRANCH   8  14
ENDBRANCH   7  13
ENDBRANCH   1   7
BRANCH   4  17
ATOM     17  C   UNL     1      45.357   6.758  13.229  0.00  0.00    +0.000 C 
BRANCH  17  18
ATOM     18  N   UNL     1      46.698   7.279  13.401  0.00  0.00    +0.000 N 
ATOM     19  C   UNL     1      47.744   6.499  13.822  0.00  0.00    +0.000 C 
ATOM     20  O   UNL     1      47.603   5.306  14.076  0.00  0.00    +0.000 OA
ATOM     21  H   UNL     1      46.779   8.288  13.418  0.00  0.00    +0.000 HD
BRANCH  19  22
ATOM     22  C   UNL     1      49.066   7.143  13.899  0.00  0.00    +0.000 A 
ATOM     23  C   UNL     1      49.570   7.803  12.784  0.00  0.00    +0.000 A 
ATOM     24  S   UNL     1      51.094   8.523  13.040  0.00  0.00    +0.000 S 
ATOM     25  C   UNL     1      51.163   7.942  14.637  0.00  0.00    +0.000 A 
ATOM     26  N   UNL     1      52.245   8.185  15.423  0.00  0.00    +0.000 NA
ATOM     27  C   UNL     1      52.178   7.658  16.600  0.00  0.00    +0.000 A 
ATOM     28  N   UNL     1      51.121   6.919  17.066  0.00  0.00    +0.000 N 
ATOM     29  C   UNL     1      49.986   6.692  16.325  0.00  0.00    +0.000 A 
ATOM     30  O   UNL     1      49.023   6.099  16.800  0.00  0.00    +0.000 OA
ATOM     31  C   UNL     1      50.022   7.232  14.978  0.00  0.00    +0.000 A 
ATOM     32  H   UNL     1      51.120   6.549  18.004  0.00  0.00    +0.000 HD
ENDBRANCH  19  22
ENDBRANCH  17  18
ENDBRANCH   4  17
TORSDOF 6
ENDMDL
MODEL 8
REMARK VINA RESULT:    -6.698      4.233      8.783
REMARK INTER + INTRA:          -9.779
REMARK INTER:                  -9.012
REMARK INTRA:                  -0.767
REMARK UNBOUND:                -0.928
REMARK  Name = 
REMARK  6 active torsions:
REMARK  status: ('A' for Active; 'I' for Inactive)
REMARK    1  A    between atoms: N_1  and  C_2
REMARK    2  A    between atoms: C_7  and  C_8
REMARK    3  A    between atoms: C_8  and  C_9
REMARK    4  A    between atoms: C_12  and  C_13
REMARK    5  A    between atoms: C_13  and  N_14
REMARK    6  A    between atoms: C_15  and  C_17
REMARK                            x       y       z     vdW  Elec       q    Type
REMARK                         _______ _______ _______ _____ _____    ______ ____
ROOT
ATOM      1  C   UNL     1      51.695   2.829  17.951  0.00  0.00    +0.000 A 
ATOM      2  C   UNL     1      51.005   3.984  18.332  0.00  0.00    +0.000 A 
ATOM      3  C   UNL     1      49.681   4.168  17.941  0.00  0.00    +0.000 A 
ATOM      4  C   UNL     1      49.069   3.192  17.162  0.00  0.00    +0.000 A 
ATOM      5  N   UNL     1      49.725   2.078  16.748  0.00  0.00    +0.000 NA
ATOM      6  C   UNL     1      51.010   1.920  17.152  0.00  0.00    +0.000 A 
ENDROOT
BRANCH   1   7
ATOM      7  C   UNL     1      53.069   2.532  18.499  0.00  0.00    +0.000 C 
BRANCH   7  13
ATOM      8  C   UNL     1      53.870   0.216  17.759  0.00  0.00    +0.000 A 
ATOM      9  C   UNL     1      54.663  -0.517  16.867  0.00  0.00    +0.000 A 
ATOM     10  C   UNL     1      55.523   0.127  15.984  0.00  0.00    +0.000 A 
ATOM     11  C   UNL     1      55.549   1.507  15.994  0.00  0.00    +0.000 A 
ATOM     12  N   UNL     1      54.799   2.260  16.824  0.00  0.00    +0.000 NA
ATOM     13  C   UNL     1      53.954   1.617  17.681  0.00  0.00    +0.000 A 
BRANCH   8  14
ATOM     14  N   UNL     1      52.872  -0.464  18.478  0.00  0.00    +0.000 N 
ATOM     15  H   UNL     1      53.196  -1.335  18.890  0.00  0.00    +0.000 HD
ATOM     16  H   UNL     1      52.380   0.106  19.158  0.00  0.00    +0.000 HD
ENDBRANCH   8  14
ENDBRANCH   7  13
ENDBRANCH   1   7
BRANCH   4  17
ATOM     17  C   UNL     1      47.600   3.307  16.821  0.00  0.00    +0.000 C 
BRANCH  17  18
ATOM     18  N   UNL     1      47.341   4.408  15.915  0.00  0.00    +0.000 N 
ATOM     19  C   UNL     1      47.173   4.230  14.566  0.00  0.00    +0.000 C 
ATOM     20  O   UNL     1      47.228   3.119  14.046  0.00  0.00    +0.000 OA
ATOM     21  H   UNL     1      47.520   5.334  16.286  0.00  0.00    +0.000 HD
BRANCH  19  22
ATOM     22  C   UNL     1      46.859   5.429  13.770  0.00  0.00    +0.000 A 
ATOM     23  C   UNL     1      45.682   5.470  13.033  0.00  0.00    +0.000 A 
ATOM     24  S   UNL     1      45.447   6.934  12.191  0.00  0.00    +0.000 S 
ATOM     25  C   UNL     1      46.932   7.554  12.741  0.00  0.00    +0.000 A 
ATOM     26  N   UNL     1      47.361   8.785  12.358  0.00  0.00    +0.000 NA
ATOM     27  C   UNL     1      48.519   9.116  12.824  0.00  0.00    +0.000 A 
ATOM     28  N   UNL     1      49.281   8.330  13.649  0.00  0.00    +0.000 N 
ATOM     29  C   UNL     1      48.865   7.102  14.104  0.00  0.00    +0.000 A 
ATOM     30  O   UNL     1      49.533   6.461  14.908  0.00  0.00    +0.000 OA
ATOM     31  C   UNL     1      47.584   6.664  13.581  0.00  0.00    +0.000 A 
ATOM     32  H   UNL     1      50.172   8.654  13.996  0.00  0.00    +0.000 HD
ENDBRANCH  19  22
ENDBRANCH  17  18
ENDBRANCH   4  17
TORSDOF 6
ENDMDL
MODEL 9
REMARK VINA RESULT:    -6.643      3.443      8.022
REMARK INTER + INTRA:          -9.706
REMARK INTER:                  -8.909
REMARK INTRA:                  -0.797
REMARK UNBOUND:                -0.928
REMARK  Name = 
REMARK  6 active torsions:
REMARK  status: ('A' for Active; 'I' for Inactive)
REMARK    1  A    between atoms: N_1  and  C_2
REMARK    2  A    between atoms: C_7  and  C_8
REMARK    3  A    between atoms: C_8  and  C_9
REMARK    4  A    between atoms: C_12  and  C_13
REMARK    5  A    between atoms: C_13  and  N_14
REMARK    6  A    between atoms: C_15  and  C_17
REMARK                            x       y       z     vdW  Elec       q    Type
REMARK                         _______ _______ _______ _____ _____    ______ ____
ROOT
ATOM      1  C   UNL     1      50.673   4.805  17.681  0.00  0.00    +0.000 A 
ATOM      2  C   UNL     1      51.554   5.645  16.995  0.00  0.00    +0.000 A 
ATOM      3  C   UNL     1      51.059   6.639  16.154  0.00  0.00    +0.000 A 
ATOM      4  C   UNL     1      49.683   6.769  16.005  0.00  0.00    +0.000 A 
ATOM      5  N   UNL     1      48.805   5.944  16.630  0.00  0.00    +0.000 NA
ATOM      6  C   UNL     1      49.314   4.992  17.452  0.00  0.00    +0.000 A 
ENDROOT
BRANCH   1   7
ATOM      7  C   UNL     1      51.178   3.834  18.721  0.00  0.00    +0.000 C 
BRANCH   7  13
ATOM      8  C   UNL     1      52.067   1.687  17.648  0.00  0.00    +0.000 A 
ATOM      9  C   UNL     1      53.193   0.974  17.219  0.00  0.00    +0.000 A 
ATOM     10  C   UNL     1      54.477   1.442  17.485  0.00  0.00    +0.000 A 
ATOM     11  C   UNL     1      54.604   2.640  18.158  0.00  0.00    +0.000 A 
ATOM     12  N   UNL     1      53.553   3.371  18.583  0.00  0.00    +0.000 NA
ATOM     13  C   UNL     1      52.300   2.906  18.310  0.00  0.00    +0.000 A 
BRANCH   8  14
ATOM     14  N   UNL     1      50.805   1.288  17.176  0.00  0.00    +0.000 N 
ATOM     15  H   UNL     1      50.044   1.860  17.530  0.00  0.00    +0.000 HD
ATOM     16  H   UNL     1      50.747   1.176  16.170  0.00  0.00    +0.000 HD
ENDBRANCH   8  14
ENDBRANCH   7  13
ENDBRANCH   1   7
BRANCH   4  17
ATOM     17  C   UNL     1      49.114   7.911  15.192  0.00  0.00    +0.000 C 
BRANCH  17  18
ATOM     18  N   UNL     1      47.906   7.525  14.491  0.00  0.00    +0.000 N 
ATOM     19  C   UNL     1      47.928   6.799  13.328  0.00  0.00    +0.000 C 
ATOM     20  O   UNL     1      48.979   6.429  12.813  0.00  0.00    +0.000 OA
ATOM     21  H   UNL     1      47.061   8.009  14.771  0.00  0.00    +0.000 HD
BRANCH  19  22
ATOM     22  C   UNL     1      46.625   6.426  12.751  0.00  0.00    +0.000 A 
ATOM     23  C   UNL     1      45.817   7.411  12.196  0.00  0.00    +0.000 A 
ATOM     24  S   UNL     1      44.358   6.819  11.543  0.00  0.00    +0.000 S 
ATOM     25  C   UNL     1      44.727   5.227  12.016  0.00  0.00    +0.000 A 
ATOM     26  N   UNL     1      43.860   4.209  11.778  0.00  0.00    +0.000 NA
ATOM     27  C   UNL     1      44.252   3.060  12.218  0.00  0.00    +0.000 A 
ATOM     28  N   UNL     1      45.440   2.837  12.867  0.00  0.00    +0.000 N 
ATOM     29  C   UNL     1      46.369   3.827  13.084  0.00  0.00    +0.000 A 
ATOM     30  O   UNL     1      47.457   3.578  13.590  0.00  0.00    +0.000 OA
ATOM     31  C   UNL     1      45.963   5.147  12.639  0.00  0.00    +0.000 A 
ATOM     32  H   UNL     1      45.698   1.910  13.171  0.00  0.00    +0.000 HD
ENDBRANCH  19  22
ENDBRANCH  17  18
ENDBRANCH   4  17
TORSDOF 6
ENDMDL
