MODEL 1
REMARK VINA RESULT:    -9.218      0.000      0.000
REMARK INTER + INTRA:         -12.144
REMARK INTER:                 -12.182
REMARK INTRA:                   0.038
REMARK UNBOUND:                 0.038
REMARK  Name = 
REMARK  6 active torsions:
REMARK  status: ('A' for Active; 'I' for Inactive)
REMARK    1  A    between atoms: N_1  and  C_2
REMARK    2  A    between atoms: C_5  and  C_6
REMARK    3  A    between atoms: C_6  and  C_7
REMARK    4  A    between atoms: C_10  and  C_11
REMARK    5  A    between atoms: C_11  and  N_12
REMARK    6  A    between atoms: C_13  and  C_15
REMARK                            x       y       z     vdW  Elec       q    Type
REMARK                         _______ _______ _______ _____ _____    ______ ____
ROOT
ATOM      1  C   UNL     1      44.934   4.042  10.368  0.00  0.00    +0.000 A 
ATOM      2  C   UNL     1      45.189   3.812  11.718  0.00  0.00    +0.000 A 
ATOM      3  C   UNL     1      45.696   4.850  12.501  0.00  0.00    +0.000 A 
ATOM      4  C   UNL     1      45.955   6.093  11.925  0.00  0.00    +0.000 A 
ATOM      5  C   UNL     1      45.671   6.234  10.572  0.00  0.00    +0.000 A 
ATOM      6  N   UNL     1      45.169   5.245   9.788  0.00  0.00    +0.000 NA
ENDROOT
BRANCH   1   7
ATOM      7  C   UNL     1      44.339   2.949   9.505  0.00  0.00    +0.000 C 
BRANCH   7  11
ATOM      8  C   UNL     1      47.735   2.150   6.797  0.00  0.00    +0.000 C 
ATOM      9  C   UNL     1      46.858   3.383   6.560  0.00  0.00    +0.000 C 
ATOM     10  C   UNL     1      46.078   3.758   7.819  0.00  0.00    +0.000 C 
ATOM     11  C   UNL     1      45.196   2.586   8.277  0.00  0.00    +0.000 C 
ATOM     12  C   UNL     1      46.089   1.366   8.567  0.00  0.00    +0.000 C 
ATOM     13  C   UNL     1      46.914   0.972   7.337  0.00  0.00    +0.000 C 
BRANCH   8  14
ATOM     14  N   UNL     1      48.409   1.763   5.558  0.00  0.00    +0.000 NA
ATOM     15  H   UNL     1      48.172   2.427   4.820  0.00  0.00    +0.000 HD
ATOM     16  H   UNL     1      48.050   0.863   5.240  0.00  0.00    +0.000 HD
ENDBRANCH   8  14
ENDBRANCH   7  11
ENDBRANCH   1   7
BRANCH   4  17
ATOM     17  C   UNL     1      46.473   7.240  12.743  0.00  0.00    +0.000 C 
BRANCH  17  18
ATOM     18  N   UNL     1      46.926   6.806  14.042  0.00  0.00    +0.000 N 
ATOM     19  C   UNL     1      48.258   6.580  14.286  0.00  0.00    +0.000 C 
ATOM     20  O   UNL     1      49.113   6.762  13.422  0.00  0.00    +0.000 OA
ATOM     21  H   UNL     1      46.231   6.433  14.683  0.00  0.00    +0.000 HD
BRANCH  19  22
ATOM     22  C   UNL     1      48.625   6.168  15.649  0.00  0.00    +0.000 A 
ATOM     23  C   UNL     1      49.462   6.978  16.406  0.00  0.00    +0.000 A 
ATOM     24  S   UNL     1      49.749   6.388  17.979  0.00  0.00    +0.000 S 
ATOM     25  C   UNL     1      48.809   5.001  17.690  0.00  0.00    +0.000 A 
ATOM     26  N   UNL     1      48.660   4.044  18.646  0.00  0.00    +0.000 NA
ATOM     27  C   UNL     1      47.945   3.033  18.283  0.00  0.00    +0.000 A 
ATOM     28  N   UNL     1      47.360   2.893  17.052  0.00  0.00    +0.000 N 
ATOM     29  C   UNL     1      47.460   3.846  16.064  0.00  0.00    +0.000 A 
ATOM     30  O   UNL     1      46.892   3.711  14.987  0.00  0.00    +0.000 OA
ATOM     31  C   UNL     1      48.265   4.999  16.417  0.00  0.00    +0.000 A 
ATOM     32  H   UNL     1      46.803   2.080  16.834  0.00  0.00    +0.000 HD
ENDBRANCH  19  22
ENDBRANCH  17  18
ENDBRANCH   4  17
TORSDOF 6
ENDMDL
MODEL 2
REMARK VINA RESULT:    -8.826      1.713      2.339
REMARK INTER + INTRA:         -11.625
REMARK INTER:                 -11.411
REMARK INTRA:                  -0.214
REMARK UNBOUND:                 0.038
REMARK  Name = 
REMARK  6 active torsions:
REMARK  status: ('A' for Active; 'I' for Inactive)
REMARK    1  A    between atoms: N_1  and  C_2
REMARK    2  A    between atoms: C_5  and  C_6
REMARK    3  A    between atoms: C_6  and  C_7
REMARK    4  A    between atoms: C_10  and  C_11
REMARK    5  A    between atoms: C_11  and  N_12
REMARK    6  A    between atoms: C_13  and  C_15
REMARK                            x       y       z     vdW  Elec       q    Type
REMARK                         _______ _______ _______ _____ _____    ______ ____
ROOT
ATOM      1  C   UNL     1      44.890   4.233  10.467  0.00  0.00    +0.000 A 
ATOM      2  C   UNL     1      45.296   5.514  10.103  0.00  0.00    +0.000 A 
ATOM      3  C   UNL     1      46.011   6.287  11.019  0.00  0.00    +0.000 A 
ATOM      4  C   UNL     1      46.297   5.778  12.285  0.00  0.00    +0.000 A 
ATOM      5  C   UNL     1      45.854   4.490  12.562  0.00  0.00    +0.000 A 
ATOM      6  N   UNL     1      45.165   3.713  11.688  0.00  0.00    +0.000 NA
ENDROOT
BRANCH   1   7
ATOM      7  C   UNL     1      44.155   3.353   9.477  0.00  0.00    +0.000 C 
BRANCH   7  11
ATOM      8  C   UNL     1      47.593   2.285   6.918  0.00  0.00    +0.000 C 
ATOM      9  C   UNL     1      46.708   3.473   6.531  0.00  0.00    +0.000 C 
ATOM     10  C   UNL     1      45.909   3.982   7.729  0.00  0.00    +0.000 C 
ATOM     11  C   UNL     1      45.031   2.861   8.308  0.00  0.00    +0.000 C 
ATOM     12  C   UNL     1      45.932   1.691   8.746  0.00  0.00    +0.000 C 
ATOM     13  C   UNL     1      46.776   1.168   7.579  0.00  0.00    +0.000 C 
BRANCH   8  14
ATOM     14  N   UNL     1      48.286   1.766   5.739  0.00  0.00    +0.000 NA
ATOM     15  H   UNL     1      49.160   1.324   6.025  0.00  0.00    +0.000 HD
ATOM     16  H   UNL     1      48.558   2.541   5.133  0.00  0.00    +0.000 HD
ENDBRANCH   8  14
ENDBRANCH   7  11
ENDBRANCH   1   7
BRANCH   4  17
ATOM     17  C   UNL     1      47.088   6.570  13.284  0.00  0.00    +0.000 C 
BRANCH  17  18
ATOM     18  N   UNL     1      47.170   5.892  14.556  0.00  0.00    +0.000 N 
ATOM     19  C   UNL     1      48.306   5.964  15.323  0.00  0.00    +0.000 C 
ATOM     20  O   UNL     1      49.281   6.624  14.972  0.00  0.00    +0.000 OA
ATOM     21  H   UNL     1      46.482   5.169  14.749  0.00  0.00    +0.000 HD
BRANCH  19  22
ATOM     22  C   UNL     1      48.282   5.265  16.616  0.00  0.00    +0.000 A 
ATOM     23  C   UNL     1      48.245   3.877  16.642  0.00  0.00    +0.000 A 
ATOM     24  S   UNL     1      48.275   3.218  18.214  0.00  0.00    +0.000 S 
ATOM     25  C   UNL     1      48.284   4.764  18.921  0.00  0.00    +0.000 A 
ATOM     26  N   UNL     1      48.283   4.916  20.273  0.00  0.00    +0.000 NA
ATOM     27  C   UNL     1      48.262   6.143  20.673  0.00  0.00    +0.000 A 
ATOM     28  N   UNL     1      48.248   7.233  19.843  0.00  0.00    +0.000 N 
ATOM     29  C   UNL     1      48.276   7.130  18.471  0.00  0.00    +0.000 A 
ATOM     30  O   UNL     1      48.303   8.124  17.756  0.00  0.00    +0.000 OA
ATOM     31  C   UNL     1      48.288   5.770  17.969  0.00  0.00    +0.000 A 
ATOM     32  H   UNL     1      48.241   8.169  20.221  0.00  0.00    +0.000 HD
ENDBRANCH  19  22
ENDBRANCH  17  18
ENDBRANCH   4  17
TORSDOF 6
ENDMDL
MODEL 3
REMARK VINA RESULT:    -8.241      1.927      2.567
REMARK INTER + INTRA:         -10.852
REMARK INTER:                  -9.931
REMARK INTRA:                  -0.921
REMARK UNBOUND:                 0.038
REMARK  Name = 
REMARK  6 active torsions:
REMARK  status: ('A' for Active; 'I' for Inactive)
REMARK    1  A    between atoms: N_1  and  C_2
REMARK    2  A    between atoms: C_5  and  C_6
REMARK    3  A    between atoms: C_6  and  C_7
REMARK    4  A    between atoms: C_10  and  C_11
REMARK    5  A    between atoms: C_11  and  N_12
REMARK    6  A    between atoms: C_13  and  C_15
REMARK                            x       y       z     vdW  Elec       q    Type
REMARK                         _______ _______ _______ _____ _____    ______ ____
ROOT
ATOM      1  C   UNL     1      44.631   4.658  10.304  0.00  0.00    +0.000 A 
ATOM      2  C   UNL     1      45.880   5.257  10.443  0.00  0.00    +0.000 A 
ATOM      3  C   UNL     1      45.981   6.469  11.127  0.00  0.00    +0.000 A 
ATOM      4  C   UNL     1      44.837   7.072  11.647  0.00  0.00    +0.000 A 
ATOM      5  C   UNL     1      43.632   6.403  11.463  0.00  0.00    +0.000 A 
ATOM      6  N   UNL     1      43.505   5.219  10.810  0.00  0.00    +0.000 NA
ENDROOT
BRANCH   1   7
ATOM      7  C   UNL     1      44.498   3.319   9.609  0.00  0.00    +0.000 C 
BRANCH   7  11
ATOM      8  C   UNL     1      47.074   1.917   6.307  0.00  0.00    +0.000 C 
ATOM      9  C   UNL     1      46.992   1.097   7.597  0.00  0.00    +0.000 C 
ATOM     10  C   UNL     1      45.737   1.444   8.396  0.00  0.00    +0.000 C 
ATOM     11  C   UNL     1      45.714   2.941   8.743  0.00  0.00    +0.000 C 
ATOM     12  C   UNL     1      45.742   3.761   7.439  0.00  0.00    +0.000 C 
ATOM     13  C   UNL     1      46.971   3.421   6.590  0.00  0.00    +0.000 C 
BRANCH   8  14
ATOM     14  N   UNL     1      48.322   1.626   5.601  0.00  0.00    +0.000 NA
ATOM     15  H   UNL     1      48.689   0.728   5.916  0.00  0.00    +0.000 HD
ATOM     16  H   UNL     1      49.028   2.315   5.857  0.00  0.00    +0.000 HD
ENDBRANCH   8  14
ENDBRANCH   7  11
ENDBRANCH   1   7
BRANCH   4  17
ATOM     17  C   UNL     1      44.911   8.360  12.413  0.00  0.00    +0.000 C 
BRANCH  17  18
ATOM     18  N   UNL     1      45.931   8.314  13.433  0.00  0.00    +0.000 N 
ATOM     19  C   UNL     1      47.152   8.911  13.239  0.00  0.00    +0.000 C 
ATOM     20  O   UNL     1      47.413   9.525  12.206  0.00  0.00    +0.000 OA
ATOM     21  H   UNL     1      45.823   7.630  14.177  0.00  0.00    +0.000 HD
BRANCH  19  22
ATOM     22  C   UNL     1      48.114   8.836  14.347  0.00  0.00    +0.000 A 
ATOM     23  C   UNL     1      48.769   9.988  14.764  0.00  0.00    +0.000 A 
ATOM     24  S   UNL     1      49.811   9.744  16.091  0.00  0.00    +0.000 S 
ATOM     25  C   UNL     1      49.467   8.080  16.125  0.00  0.00    +0.000 A 
ATOM     26  N   UNL     1      50.066   7.260  17.031  0.00  0.00    +0.000 NA
ATOM     27  C   UNL     1      49.735   6.017  16.927  0.00  0.00    +0.000 A 
ATOM     28  N   UNL     1      48.856   5.518  16.002  0.00  0.00    +0.000 N 
ATOM     29  C   UNL     1      48.206   6.312  15.084  0.00  0.00    +0.000 A 
ATOM     30  O   UNL     1      47.394   5.843  14.295  0.00  0.00    +0.000 OA
ATOM     31  C   UNL     1      48.552   7.718  15.151  0.00  0.00    +0.000 A 
ATOM     32  H   UNL     1      48.632   4.535  15.979  0.00  0.00    +0.000 HD
ENDBRANCH  19  22
ENDBRANCH  17  18
ENDBRANCH   4  17
TORSDOF 6
ENDMDL
MODEL 4
REMARK VINA RESULT:    -8.174      2.607      3.884
REMARK INTER + INTRA:         -10.764
REMARK INTER:                 -10.324
REMARK INTRA:                  -0.440
REMARK UNBOUND:                 0.038
REMARK  Name = 
REMARK  6 active torsions:
REMARK  status: ('A' for Active; 'I' for Inactive)
REMARK    1  A    between atoms: N_1  and  C_2
REMARK    2  A    between atoms: C_5  and  C_6
REMARK    3  A    between atoms: C_6  and  C_7
REMARK    4  A    between atoms: C_10  and  C_11
REMARK    5  A    between atoms: C_11  and  N_12
REMARK    6  A    between atoms: C_13  and  C_15
REMARK                            x       y       z     vdW  Elec       q    Type
REMARK                         _______ _______ _______ _____ _____    ______ ____
ROOT
ATOM      1  C   UNL     1      44.702   4.013  10.733  0.00  0.00    +0.000 A 
ATOM      2  C   UNL     1      44.984   5.356  10.976  0.00  0.00    +0.000 A 
ATOM      3  C   UNL     1      45.679   5.706  12.135  0.00  0.00    +0.000 A 
ATOM      4  C   UNL     1      46.066   4.718  13.039  0.00  0.00    +0.000 A 
ATOM      5  C   UNL     1      45.744   3.405  12.716  0.00  0.00    +0.000 A 
ATOM      6  N   UNL     1      45.078   3.034  11.592  0.00  0.00    +0.000 NA
ENDROOT
BRANCH   1   7
ATOM      7  C   UNL     1      43.993   3.599   9.461  0.00  0.00    +0.000 C 
BRANCH   7  11
ATOM      8  C   UNL     1      47.568   2.336   7.195  0.00  0.00    +0.000 C 
ATOM      9  C   UNL     1      46.880   3.657   6.839  0.00  0.00    +0.000 C 
ATOM     10  C   UNL     1      46.006   4.154   7.990  0.00  0.00    +0.000 C 
ATOM     11  C   UNL     1      44.940   3.107   8.350  0.00  0.00    +0.000 C 
ATOM     12  C   UNL     1      45.639   1.796   8.759  0.00  0.00    +0.000 C 
ATOM     13  C   UNL     1      46.552   1.277   7.643  0.00  0.00    +0.000 C 
BRANCH   8  14
ATOM     14  N   UNL     1      48.333   1.841   6.050  0.00  0.00    +0.000 NA
ATOM     15  H   UNL     1      47.957   2.243   5.191  0.00  0.00    +0.000 HD
ATOM     16  H   UNL     1      48.201   0.834   5.961  0.00  0.00    +0.000 HD
ENDBRANCH   8  14
ENDBRANCH   7  11
ENDBRANCH   1   7
BRANCH   4  17
ATOM     17  C   UNL     1      46.839   5.055  14.280  0.00  0.00    +0.000 C 
BRANCH  17  18
ATOM     18  N   UNL     1      47.263   6.434  14.286  0.00  0.00    +0.000 N 
ATOM     19  C   UNL     1      48.370   6.836  13.581  0.00  0.00    +0.000 C 
ATOM     20  O   UNL     1      49.023   6.048  12.901  0.00  0.00    +0.000 OA
ATOM     21  H   UNL     1      46.885   7.040  15.010  0.00  0.00    +0.000 HD
BRANCH  19  22
ATOM     22  C   UNL     1      48.704   8.267  13.624  0.00  0.00    +0.000 A 
ATOM     23  C   UNL     1      48.846   8.974  12.437  0.00  0.00    +0.000 A 
ATOM     24  S   UNL     1      49.182  10.630  12.659  0.00  0.00    +0.000 S 
ATOM     25  C   UNL     1      49.204  10.455  14.350  0.00  0.00    +0.000 A 
ATOM     26  N   UNL     1      49.468  11.516  15.160  0.00  0.00    +0.000 NA
ATOM     27  C   UNL     1      49.481  11.236  16.420  0.00  0.00    +0.000 A 
ATOM     28  N   UNL     1      49.249   9.992  16.945  0.00  0.00    +0.000 N 
ATOM     29  C   UNL     1      48.951   8.896  16.167  0.00  0.00    +0.000 A 
ATOM     30  O   UNL     1      48.709   7.804  16.668  0.00  0.00    +0.000 OA
ATOM     31  C   UNL     1      48.936   9.154  14.741  0.00  0.00    +0.000 A 
ATOM     32  H   UNL     1      49.264   9.842  17.942  0.00  0.00    +0.000 HD
ENDBRANCH  19  22
ENDBRANCH  17  18
ENDBRANCH   4  17
TORSDOF 6
ENDMDL
MODEL 5
REMARK VINA RESULT:    -7.811      1.617      2.026
REMARK INTER + INTRA:         -10.285
REMARK INTER:                  -9.466
REMARK INTRA:                  -0.818
REMARK UNBOUND:                 0.038
REMARK  Name = 
REMARK  6 active torsions:
REMARK  status: ('A' for Active; 'I' for Inactive)
REMARK    1  A    between atoms: N_1  and  C_2
REMARK    2  A    between atoms: C_5  and  C_6
REMARK    3  A    between atoms: C_6  and  C_7
REMARK    4  A    between atoms: C_10  and  C_11
REMARK    5  A    between atoms: C_11  and  N_12
REMARK    6  A    between atoms: C_13  and  C_15
REMARK                            x       y       z     vdW  Elec       q    Type
REMARK                         _______ _______ _______ _____ _____    ______ ____
ROOT
ATOM      1  C   UNL     1      44.882   5.579  11.408  0.00  0.00    +0.000 A 
ATOM      2  C   UNL     1      45.715   4.936  12.321  0.00  0.00    +0.000 A 
ATOM      3  C   UNL     1      46.651   5.687  13.034  0.00  0.00    +0.000 A 
ATOM      4  C   UNL     1      46.753   7.060  12.816  0.00  0.00    +0.000 A 
ATOM      5  C   UNL     1      45.881   7.618  11.887  0.00  0.00    +0.000 A 
ATOM      6  N   UNL     1      44.956   6.914  11.187  0.00  0.00    +0.000 NA
ENDROOT
BRANCH   1   7
ATOM      7  C   UNL     1      43.825   4.797  10.656  0.00  0.00    +0.000 C 
BRANCH   7  11
ATOM      8  C   UNL     1      46.441   2.436   7.993  0.00  0.00    +0.000 C 
ATOM      9  C   UNL     1      46.049   3.861   7.592  0.00  0.00    +0.000 C 
ATOM     10  C   UNL     1      45.576   4.666   8.802  0.00  0.00    +0.000 C 
ATOM     11  C   UNL     1      44.376   3.979   9.473  0.00  0.00    +0.000 C 
ATOM     12  C   UNL     1      44.792   2.566   9.922  0.00  0.00    +0.000 C 
ATOM     13  C   UNL     1      45.303   1.731   8.744  0.00  0.00    +0.000 C 
BRANCH   8  14
ATOM     14  N   UNL     1      46.812   1.662   6.809  0.00  0.00    +0.000 NA
ATOM     15  H   UNL     1      47.565   2.140   6.313  0.00  0.00    +0.000 HD
ATOM     16  H   UNL     1      46.028   1.638   6.156  0.00  0.00    +0.000 HD
ENDBRANCH   8  14
ENDBRANCH   7  11
ENDBRANCH   1   7
BRANCH   4  17
ATOM     17  C   UNL     1      47.727   7.903  13.585  0.00  0.00    +0.000 C 
BRANCH  17  18
ATOM     18  N   UNL     1      47.809   7.495  14.966  0.00  0.00    +0.000 N 
ATOM     19  C   UNL     1      48.619   8.162  15.853  0.00  0.00    +0.000 C 
ATOM     20  O   UNL     1      49.279   9.141  15.513  0.00  0.00    +0.000 OA
ATOM     21  H   UNL     1      47.463   6.570  15.206  0.00  0.00    +0.000 HD
BRANCH  19  22
ATOM     22  C   UNL     1      48.613   7.690  17.245  0.00  0.00    +0.000 A 
ATOM     23  C   UNL     1      48.606   8.615  18.281  0.00  0.00    +0.000 A 
ATOM     24  S   UNL     1      48.546   7.909  19.831  0.00  0.00    +0.000 S 
ATOM     25  C   UNL     1      48.582   6.340  19.179  0.00  0.00    +0.000 A 
ATOM     26  N   UNL     1      48.581   5.246  19.987  0.00  0.00    +0.000 NA
ATOM     27  C   UNL     1      48.639   4.119  19.361  0.00  0.00    +0.000 A 
ATOM     28  N   UNL     1      48.692   3.986  17.998  0.00  0.00    +0.000 N 
ATOM     29  C   UNL     1      48.668   5.062  17.141  0.00  0.00    +0.000 A 
ATOM     30  O   UNL     1      48.677   4.909  15.924  0.00  0.00    +0.000 OA
ATOM     31  C   UNL     1      48.616   6.354  17.795  0.00  0.00    +0.000 A 
ATOM     32  H   UNL     1      48.726   3.073  17.570  0.00  0.00    +0.000 HD
ENDBRANCH  19  22
ENDBRANCH  17  18
ENDBRANCH   4  17
TORSDOF 6
ENDMDL
MODEL 6
REMARK VINA RESULT:    -7.748      3.791      4.343
REMARK INTER + INTRA:         -10.202
REMARK INTER:                  -9.740
REMARK INTRA:                  -0.462
REMARK UNBOUND:                 0.038
REMARK  Name = 
REMARK  6 active torsions:
REMARK  status: ('A' for Active; 'I' for Inactive)
REMARK    1  A    between atoms: N_1  and  C_2
REMARK    2  A    between atoms: C_5  and  C_6
REMARK    3  A    between atoms: C_6  and  C_7
REMARK    4  A    between atoms: C_10  and  C_11
REMARK    5  A    between atoms: C_11  and  N_12
REMARK    6  A    between atoms: C_13  and  C_15
REMARK                            x       y       z     vdW  Elec       q    Type
REMARK                         _______ _______ _______ _____ _____    ______ ____
ROOT
ATOM      1  C   UNL     1      44.653   4.241  10.273  0.00  0.00    +0.000 A 
ATOM      2  C   UNL     1      45.712   5.121  10.060  0.00  0.00    +0.000 A 
ATOM      3  C   UNL     1      45.728   6.343  10.734  0.00  0.00    +0.000 A 
ATOM      4  C   UNL     1      44.683   6.676  11.595  0.00  0.00    +0.000 A 
ATOM      5  C   UNL     1      43.668   5.738  11.748  0.00  0.00    +0.000 A 
ATOM      6  N   UNL     1      43.632   4.538  11.114  0.00  0.00    +0.000 NA
ENDROOT
BRANCH   1   7
ATOM      7  C   UNL     1      44.635   2.888   9.594  0.00  0.00    +0.000 C 
BRANCH   7  11
ATOM      8  C   UNL     1      47.169   1.862   6.125  0.00  0.00    +0.000 C 
ATOM      9  C   UNL     1      47.173   0.950   7.355  0.00  0.00    +0.000 C 
ATOM     10  C   UNL     1      45.928   1.172   8.213  0.00  0.00    +0.000 C 
ATOM     11  C   UNL     1      45.840   2.638   8.667  0.00  0.00    +0.000 C 
ATOM     12  C   UNL     1      45.782   3.548   7.425  0.00  0.00    +0.000 C 
ATOM     13  C   UNL     1      46.999   3.335   6.519  0.00  0.00    +0.000 C 
BRANCH   8  14
ATOM     14  N   UNL     1      48.406   1.688   5.364  0.00  0.00    +0.000 NA
ATOM     15  H   UNL     1      48.982   2.525   5.454  0.00  0.00    +0.000 HD
ATOM     16  H   UNL     1      48.189   1.613   4.370  0.00  0.00    +0.000 HD
ENDBRANCH   8  14
ENDBRANCH   7  11
ENDBRANCH   1   7
BRANCH   4  17
ATOM     17  C   UNL     1      44.681   7.968  12.357  0.00  0.00    +0.000 C 
BRANCH  17  18
ATOM     18  N   UNL     1      46.020   8.397  12.682  0.00  0.00    +0.000 N 
ATOM     19  C   UNL     1      46.470   9.642  12.318  0.00  0.00    +0.000 C 
ATOM     20  O   UNL     1      45.747  10.443  11.730  0.00  0.00    +0.000 OA
ATOM     21  H   UNL     1      46.690   7.683  12.952  0.00  0.00    +0.000 HD
BRANCH  19  22
ATOM     22  C   UNL     1      47.838   9.999  12.720  0.00  0.00    +0.000 A 
ATOM     23  C   UNL     1      48.101  11.277  13.195  0.00  0.00    +0.000 A 
ATOM     24  S   UNL     1      49.721  11.515  13.666  0.00  0.00    +0.000 S 
ATOM     25  C   UNL     1      50.146   9.936  13.203  0.00  0.00    +0.000 A 
ATOM     26  N   UNL     1      51.426   9.492  13.322  0.00  0.00    +0.000 NA
ATOM     27  C   UNL     1      51.614   8.284  12.908  0.00  0.00    +0.000 A 
ATOM     28  N   UNL     1      50.636   7.477  12.389  0.00  0.00    +0.000 N 
ATOM     29  C   UNL     1      49.323   7.873  12.275  0.00  0.00    +0.000 A 
ATOM     30  O   UNL     1      48.462   7.114  11.844  0.00  0.00    +0.000 OA
ATOM     31  C   UNL     1      49.060   9.228  12.716  0.00  0.00    +0.000 A 
ATOM     32  H   UNL     1      50.847   6.536  12.091  0.00  0.00    +0.000 HD
ENDBRANCH  19  22
ENDBRANCH  17  18
ENDBRANCH   4  17
TORSDOF 6
ENDMDL
MODEL 7
REMARK VINA RESULT:    -7.537      2.954      8.616
REMARK INTER + INTRA:          -9.922
REMARK INTER:                  -9.110
REMARK INTRA:                  -0.812
REMARK UNBOUND:                 0.038
REMARK  Name = 
REMARK  6 active torsions:
REMARK  status: ('A' for Active; 'I' for Inactive)
REMARK    1  A    between atoms: N_1  and  C_2
REMARK    2  A    between atoms: C_5  and  C_6
REMARK    3  A    between atoms: C_6  and  C_7
REMARK    4  A    between atoms: C_10  and  C_11
REMARK    5  A    between atoms: C_11  and  N_12
REMARK    6  A    between atoms: C_13  and  C_15
REMARK                            x       y       z     vdW  Elec       q    Type
REMARK                         _______ _______ _______ _____ _____    ______ ____
ROOT
ATOM      1  C   UNL     1      49.463   7.884  15.637  0.00  0.00    +0.000 A 
ATOM      2  C   UNL     1      48.491   8.866  15.466  0.00  0.00    +0.000 A 
ATOM      3  C   UNL     1      47.753   8.895  14.281  0.00  0.00    +0.000 A 
ATOM      4  C   UNL     1      48.007   7.957  13.282  0.00  0.00    +0.000 A 
ATOM      5  C   UNL     1      48.994   7.013  13.538  0.00  0.00    +0.000 A 
ATOM      6  N   UNL     1      49.720   6.955  14.684  0.00  0.00    +0.000 NA
ENDROOT
BRANCH   1   7
ATOM      7  C   UNL     1      50.244   7.798  16.932  0.00  0.00    +0.000 C 
BRANCH   7  11
ATOM      8  C   UNL     1      48.759   3.982  18.587  0.00  0.00    +0.000 C 
ATOM      9  C   UNL     1      47.839   5.206  18.576  0.00  0.00    +0.000 C 
ATOM     10  C   UNL     1      48.316   6.248  17.566  0.00  0.00    +0.000 C 
ATOM     11  C   UNL     1      49.751   6.695  17.887  0.00  0.00    +0.000 C 
ATOM     12  C   UNL     1      50.682   5.468  17.844  0.00  0.00    +0.000 C 
ATOM     13  C   UNL     1      50.222   4.382  18.822  0.00  0.00    +0.000 C 
BRANCH   8  14
ATOM     14  N   UNL     1      48.329   3.036  19.617  0.00  0.00    +0.000 NA
ATOM     15  H   UNL     1      47.346   2.805  19.476  0.00  0.00    +0.000 HD
ATOM     16  H   UNL     1      48.376   3.483  20.533  0.00  0.00    +0.000 HD
ENDBRANCH   8  14
ENDBRANCH   7  11
ENDBRANCH   1   7
BRANCH   4  17
ATOM     17  C   UNL     1      47.215   7.940  12.007  0.00  0.00    +0.000 C 
BRANCH  17  18
ATOM     18  N   UNL     1      46.615   6.650  11.770  0.00  0.00    +0.000 N 
ATOM     19  C   UNL     1      45.250   6.502  11.730  0.00  0.00    +0.000 C 
ATOM     20  O   UNL     1      44.493   7.460  11.868  0.00  0.00    +0.000 OA
ATOM     21  H   UNL     1      47.202   5.829  11.886  0.00  0.00    +0.000 HD
BRANCH  19  22
ATOM     22  C   UNL     1      44.734   5.153  11.454  0.00  0.00    +0.000 A 
ATOM     23  C   UNL     1      44.000   4.489  12.427  0.00  0.00    +0.000 A 
ATOM     24  S   UNL     1      43.430   2.960  11.933  0.00  0.00    +0.000 S 
ATOM     25  C   UNL     1      44.189   3.105  10.419  0.00  0.00    +0.000 A 
ATOM     26  N   UNL     1      44.115   2.105   9.500  0.00  0.00    +0.000 NA
ATOM     27  C   UNL     1      44.759   2.335   8.406  0.00  0.00    +0.000 A 
ATOM     28  N   UNL     1      45.466   3.479   8.144  0.00  0.00    +0.000 N 
ATOM     29  C   UNL     1      45.547   4.528   9.031  0.00  0.00    +0.000 A 
ATOM     30  O   UNL     1      46.154   5.555   8.752  0.00  0.00    +0.000 OA
ATOM     31  C   UNL     1      44.849   4.314  10.283  0.00  0.00    +0.000 A 
ATOM     32  H   UNL     1      45.942   3.601   7.262  0.00  0.00    +0.000 HD
ENDBRANCH  19  22
ENDBRANCH  17  18
ENDBRANCH   4  17
TORSDOF 6
ENDMDL
MODEL 8
REMARK VINA RESULT:    -7.412      3.088      4.482
REMARK INTER + INTRA:          -9.757
REMARK INTER:                  -8.847
REMARK INTRA:                  -0.911
REMARK UNBOUND:                 0.038
REMARK  Name = 
REMARK  6 active torsions:
REMARK  status: ('A' for Active; 'I' for Inactive)
REMARK    1  A    between atoms: N_1  and  C_2
REMARK    2  A    between atoms: C_5  and  C_6
REMARK    3  A    between atoms: C_6  and  C_7
REMARK    4  A    between atoms: C_10  and  C_11
REMARK    5  A    between atoms: C_11  and  N_12
REMARK    6  A    between atoms: C_13  and  C_15
REMARK                            x       y       z     vdW  Elec       q    Type
REMARK                         _______ _______ _______ _____ _____    ______ ____
ROOT
ATOM      1  C   UNL     1      46.877   7.019  12.569  0.00  0.00    +0.000 A 
ATOM      2  C   UNL     1      46.748   8.315  13.064  0.00  0.00    +0.000 A 
ATOM      3  C   UNL     1      47.557   8.721  14.126  0.00  0.00    +0.000 A 
ATOM      4  C   UNL     1      48.468   7.827  14.688  0.00  0.00    +0.000 A 
ATOM      5  C   UNL     1      48.530   6.555  14.131  0.00  0.00    +0.000 A 
ATOM      6  N   UNL     1      47.762   6.136  13.092  0.00  0.00    +0.000 NA
ENDROOT
BRANCH   1   7
ATOM      7  C   UNL     1      46.046   6.567  11.386  0.00  0.00    +0.000 C 
BRANCH   7  11
ATOM      8  C   UNL     1      43.394   3.036  11.422  0.00  0.00    +0.000 C 
ATOM      9  C   UNL     1      43.928   3.588  12.746  0.00  0.00    +0.000 C 
ATOM     10  C   UNL     1      44.398   5.034  12.593  0.00  0.00    +0.000 C 
ATOM     11  C   UNL     1      45.495   5.134  11.521  0.00  0.00    +0.000 C 
ATOM     12  C   UNL     1      44.935   4.628  10.179  0.00  0.00    +0.000 C 
ATOM     13  C   UNL     1      44.423   3.188  10.294  0.00  0.00    +0.000 C 
BRANCH   8  14
ATOM     14  N   UNL     1      43.025   1.628  11.574  0.00  0.00    +0.000 NA
ATOM     15  H   UNL     1      42.641   1.476  12.507  0.00  0.00    +0.000 HD
ATOM     16  H   UNL     1      43.863   1.048  11.526  0.00  0.00    +0.000 HD
ENDBRANCH   8  14
ENDBRANCH   7  11
ENDBRANCH   1   7
BRANCH   4  17
ATOM     17  C   UNL     1      49.374   8.237  15.812  0.00  0.00    +0.000 C 
BRANCH  17  18
ATOM     18  N   UNL     1      50.295   7.184  16.165  0.00  0.00    +0.000 N 
ATOM     19  C   UNL     1      50.150   6.484  17.337  0.00  0.00    +0.000 C 
ATOM     20  O   UNL     1      49.223   6.707  18.112  0.00  0.00    +0.000 OA
ATOM     21  H   UNL     1      51.179   7.145  15.666  0.00  0.00    +0.000 HD
BRANCH  19  22
ATOM     22  C   UNL     1      51.120   5.410  17.595  0.00  0.00    +0.000 A 
ATOM     23  C   UNL     1      52.399   5.733  18.030  0.00  0.00    +0.000 A 
ATOM     24  S   UNL     1      53.385   4.376  18.334  0.00  0.00    +0.000 S 
ATOM     25  C   UNL     1      52.157   3.306  17.845  0.00  0.00    +0.000 A 
ATOM     26  N   UNL     1      52.363   1.962  17.838  0.00  0.00    +0.000 NA
ATOM     27  C   UNL     1      51.358   1.269  17.418  0.00  0.00    +0.000 A 
ATOM     28  N   UNL     1      50.163   1.800  17.008  0.00  0.00    +0.000 N 
ATOM     29  C   UNL     1      49.900   3.150  17.023  0.00  0.00    +0.000 A 
ATOM     30  O   UNL     1      48.807   3.592  16.688  0.00  0.00    +0.000 OA
ATOM     31  C   UNL     1      51.002   3.975  17.476  0.00  0.00    +0.000 A 
ATOM     32  H   UNL     1      49.411   1.201  16.699  0.00  0.00    +0.000 HD
ENDBRANCH  19  22
ENDBRANCH  17  18
ENDBRANCH   4  17
TORSDOF 6
ENDMDL
MODEL 9
REMARK VINA RESULT:    -7.355      4.732      7.144
REMARK INTER + INTRA:          -9.681
REMARK INTER:                  -8.737
REMARK INTRA:                  -0.944
REMARK UNBOUND:                 0.038
REMARK  Name = 
REMARK  6 active torsions:
REMARK  status: ('A' for Active; 'I' for Inactive)
REMARK    1  A    between atoms: N_1  and  C_2
REMARK    2  A    between atoms: C_5  and  C_6
REMARK    3  A    between atoms: C_6  and  C_7
REMARK    4  A    between atoms: C_10  and  C_11
REMARK    5  A    between atoms: C_11  and  N_12
REMARK    6  A    between atoms: C_13  and  C_15
REMARK                            x       y       z     vdW  Elec       q    Type
REMARK                         _______ _______ _______ _____ _____    ______ ____
ROOT
ATOM      1  C   UNL     1      50.710   8.638  11.193  0.00  0.00    +0.000 A 
ATOM      2  C   UNL     1      50.146   7.395  11.469  0.00  0.00    +0.000 A 
ATOM      3  C   UNL     1      48.891   7.336  12.077  0.00  0.00    +0.000 A 
ATOM      4  C   UNL     1      48.226   8.515  12.413  0.00  0.00    +0.000 A 
ATOM      5  C   UNL     1      48.862   9.710  12.100  0.00  0.00    +0.000 A 
ATOM      6  N   UNL     1      50.077   9.797  11.501  0.00  0.00    +0.000 NA
ENDROOT
BRANCH   1   7
ATOM      7  C   UNL     1      52.048   8.732  10.491  0.00  0.00    +0.000 C 
BRANCH   7  11
ATOM      8  C   UNL     1      54.479   5.603   8.540  0.00  0.00    +0.000 C 
ATOM      9  C   UNL     1      53.221   6.123   7.839  0.00  0.00    +0.000 C 
ATOM     10  C   UNL     1      52.802   7.484   8.394  0.00  0.00    +0.000 C 
ATOM     11  C   UNL     1      52.542   7.395   9.906  0.00  0.00    +0.000 C 
ATOM     12  C   UNL     1      53.827   6.923  10.611  0.00  0.00    +0.000 C 
ATOM     13  C   UNL     1      54.302   5.573  10.063  0.00  0.00    +0.000 C 
BRANCH   8  14
ATOM     14  N   UNL     1      54.814   4.266   8.049  0.00  0.00    +0.000 NA
ATOM     15  H   UNL     1      54.023   3.887   7.528  0.00  0.00    +0.000 HD
ATOM     16  H   UNL     1      54.946   3.635   8.840  0.00  0.00    +0.000 HD
ENDBRANCH   8  14
ENDBRANCH   7  11
ENDBRANCH   1   7
BRANCH   4  17
ATOM     17  C   UNL     1      46.863   8.490  13.041  0.00  0.00    +0.000 C 
BRANCH  17  18
ATOM     18  N   UNL     1      46.231   7.201  12.892  0.00  0.00    +0.000 N 
ATOM     19  C   UNL     1      45.272   6.992  11.932  0.00  0.00    +0.000 C 
ATOM     20  O   UNL     1      44.935   7.879  11.152  0.00  0.00    +0.000 OA
ATOM     21  H   UNL     1      46.323   6.540  13.658  0.00  0.00    +0.000 HD
BRANCH  19  22
ATOM     22  C   UNL     1      44.708   5.638  11.839  0.00  0.00    +0.000 A 
ATOM     23  C   UNL     1      44.002   5.115  12.914  0.00  0.00    +0.000 A 
ATOM     24  S   UNL     1      43.369   3.558  12.629  0.00  0.00    +0.000 S 
ATOM     25  C   UNL     1      44.060   3.501  11.077  0.00  0.00    +0.000 A 
ATOM     26  N   UNL     1      43.917   2.403  10.287  0.00  0.00    +0.000 NA
ATOM     27  C   UNL     1      44.516   2.484   9.146  0.00  0.00    +0.000 A 
ATOM     28  N   UNL     1      45.241   3.566   8.721  0.00  0.00    +0.000 N 
ATOM     29  C   UNL     1      45.390   4.708   9.474  0.00  0.00    +0.000 A 
ATOM     30  O   UNL     1      46.011   5.676   9.050  0.00  0.00    +0.000 OA
ATOM     31  C   UNL     1      44.746   4.664  10.771  0.00  0.00    +0.000 A 
ATOM     32  H   UNL     1      45.678   3.569   7.812  0.00  0.00    +0.000 HD
ENDBRANCH  19  22
ENDBRANCH  17  18
ENDBRANCH   4  17
TORSDOF 6
ENDMDL
