MODEL 1
REMARK VINA RESULT:    -8.656      0.000      0.000
REMARK INTER + INTRA:         -12.411
REMARK INTER:                 -11.439
REMARK INTRA:                  -0.972
REMARK UNBOUND:                -0.972
REMARK  Name = 
REMARK  7 active torsions:
REMARK  status: ('A' for Active; 'I' for Inactive)
REMARK    1  A    between atoms: C_1  and  C_2
REMARK    2  A    between atoms: C_2  and  C_3
REMARK    3  A    between atoms: C_7  and  C_8
REMARK    4  A    between atoms: C_8  and  C_9
REMARK    5  A    between atoms: C_9  and  N_10
REMARK    6  A    between atoms: C_14  and  C_15
REMARK    7  A    between atoms: C_23  and  O_24
REMARK                            x       y       z     vdW  Elec       q    Type
REMARK                         _______ _______ _______ _____ _____    ______ ____
ROOT
ATOM      1  C   UNL     1      47.232   6.583  12.939  0.00  0.00    +0.000 A 
ATOM      2  C   UNL     1      47.611   5.520  13.777  0.00  0.00    +0.000 A 
ATOM      3  C   UNL     1      46.755   4.445  14.010  0.00  0.00    +0.000 A 
ATOM      4  C   UNL     1      45.483   4.414  13.428  0.00  0.00    +0.000 A 
ATOM      5  C   UNL     1      45.070   5.467  12.599  0.00  0.00    +0.000 A 
ATOM      6  C   UNL     1      45.981   6.505  12.334  0.00  0.00    +0.000 A 
ENDROOT
BRANCH   1   8
ATOM      7  C   UNL     1      47.205   9.006  12.438  0.00  0.00    +0.000 C 
ATOM      8  C   UNL     1      48.129   7.829  12.829  0.00  0.00    +0.000 C 
ATOM      9  C   UNL     1      48.826   8.108  14.189  0.00  0.00    +0.000 C 
ATOM     10  C   UNL     1      49.835   9.262  14.139  0.00  0.00    +0.000 C 
ATOM     11  C   UNL     1      50.875   9.087  13.036  0.00  0.00    +0.000 C 
ATOM     12  C   UNL     1      50.224   8.837  11.681  0.00  0.00    +0.000 C 
ATOM     13  C   UNL     1      49.230   7.677  11.730  0.00  0.00    +0.000 C 
BRANCH  11  14
ATOM     14  O   UNL     1      51.759   8.015  13.362  0.00  0.00    +0.000 OA
ATOM     15  H   UNL     1      51.276   7.358  13.893  0.00  0.00    +0.000 HD
ENDBRANCH  11  14
ENDBRANCH   1   8
BRANCH   5  16
ATOM     16  C   UNL     1      43.655   5.547  12.057  0.00  0.00    +0.000 C 
BRANCH  16  17
ATOM     17  C   UNL     1      43.342   4.496  10.980  0.00  0.00    +0.000 C 
BRANCH  17  18
ATOM     18  N   UNL     1      43.744   4.933   9.649  0.00  0.00    +0.000 N 
ATOM     19  C   UNL     1      44.570   3.984   9.050  0.00  0.00    +0.000 A 
ATOM     20  N   UNL     1      44.431   2.696   9.415  0.00  0.00    +0.000 NA
ATOM     21  C   UNL     1      45.256   1.806   8.857  0.00  0.00    +0.000 A 
ATOM     22  C   UNL     1      46.222   2.127   7.921  0.00  0.00    +0.000 A 
ATOM     23  C   UNL     1      46.289   3.463   7.615  0.00  0.00    +0.000 A 
ATOM     24  N   UNL     1      45.486   4.413   8.162  0.00  0.00    +0.000 NA
ATOM     25  H   UNL     1      44.237   5.811   9.620  0.00  0.00    +0.000 HD
BRANCH  22  26
ATOM     26  C   UNL     1      47.099   1.079   7.391  0.00  0.00    +0.000 C 
ATOM     27  N   UNL     1      46.807  -0.223   7.684  0.00  0.00    +0.000 N 
ATOM     28  O   UNL     1      48.079   1.359   6.711  0.00  0.00    +0.000 OA
ATOM     29  H   UNL     1      46.027  -0.550   8.235  0.00  0.00    +0.000 HD
ATOM     30  H   UNL     1      47.434  -0.924   7.301  0.00  0.00    +0.000 HD
ENDBRANCH  22  26
ENDBRANCH  17  18
ENDBRANCH  16  17
ENDBRANCH   5  16
TORSDOF 6
ENDMDL
MODEL 2
REMARK VINA RESULT:    -8.607      1.107      1.543
REMARK INTER + INTRA:         -12.346
REMARK INTER:                 -11.373
REMARK INTRA:                  -0.973
REMARK UNBOUND:                -0.972
REMARK  Name = 
REMARK  7 active torsions:
REMARK  status: ('A' for Active; 'I' for Inactive)
REMARK    1  A    between atoms: C_1  and  C_2
REMARK    2  A    between atoms: C_2  and  C_3
REMARK    3  A    between atoms: C_7  and  C_8
REMARK    4  A    between atoms: C_8  and  C_9
REMARK    5  A    between atoms: C_9  and  N_10
REMARK    6  A    between atoms: C_14  and  C_15
REMARK    7  A    between atoms: C_23  and  O_24
REMARK                            x       y       z     vdW  Elec       q    Type
REMARK                         _______ _______ _______ _____ _____    ______ ____
ROOT
ATOM      1  C   UNL     1      47.361   6.727  12.802  0.00  0.00    +0.000 A 
ATOM      2  C   UNL     1      47.747   5.771  13.758  0.00  0.00    +0.000 A 
ATOM      3  C   UNL     1      46.888   4.739  14.131  0.00  0.00    +0.000 A 
ATOM      4  C   UNL     1      45.608   4.645  13.575  0.00  0.00    +0.000 A 
ATOM      5  C   UNL     1      45.189   5.593  12.629  0.00  0.00    +0.000 A 
ATOM      6  C   UNL     1      46.101   6.585  12.228  0.00  0.00    +0.000 A 
ENDROOT
BRANCH   1   8
ATOM      7  C   UNL     1      49.192   7.551  11.356  0.00  0.00    +0.000 C 
ATOM      8  C   UNL     1      48.264   7.944  12.529  0.00  0.00    +0.000 C 
ATOM      9  C   UNL     1      47.398   9.177  12.153  0.00  0.00    +0.000 C 
ATOM     10  C   UNL     1      48.208  10.469  11.981  0.00  0.00    +0.000 C 
ATOM     11  C   UNL     1      49.079  10.783  13.194  0.00  0.00    +0.000 C 
ATOM     12  C   UNL     1      49.962   9.600  13.576  0.00  0.00    +0.000 C 
ATOM     13  C   UNL     1      49.151   8.319  13.760  0.00  0.00    +0.000 C 
BRANCH  11  14
ATOM     14  O   UNL     1      48.262  11.163  14.300  0.00  0.00    +0.000 OA
ATOM     15  H   UNL     1      47.332  10.968  14.087  0.00  0.00    +0.000 HD
ENDBRANCH  11  14
ENDBRANCH   1   8
BRANCH   5  16
ATOM     16  C   UNL     1      43.767   5.616  12.101  0.00  0.00    +0.000 C 
BRANCH  16  17
ATOM     17  C   UNL     1      43.480   4.540  11.041  0.00  0.00    +0.000 C 
BRANCH  17  18
ATOM     18  N   UNL     1      43.847   4.975   9.699  0.00  0.00    +0.000 N 
ATOM     19  C   UNL     1      44.647   4.021   9.076  0.00  0.00    +0.000 A 
ATOM     20  N   UNL     1      44.510   2.733   9.445  0.00  0.00    +0.000 NA
ATOM     21  C   UNL     1      45.312   1.837   8.863  0.00  0.00    +0.000 A 
ATOM     22  C   UNL     1      46.251   2.152   7.899  0.00  0.00    +0.000 A 
ATOM     23  C   UNL     1      46.320   3.488   7.592  0.00  0.00    +0.000 A 
ATOM     24  N   UNL     1      45.540   4.443   8.162  0.00  0.00    +0.000 NA
ATOM     25  H   UNL     1      44.345   5.849   9.657  0.00  0.00    +0.000 HD
BRANCH  22  26
ATOM     26  C   UNL     1      47.104   1.097   7.343  0.00  0.00    +0.000 C 
ATOM     27  N   UNL     1      46.818  -0.202   7.653  0.00  0.00    +0.000 N 
ATOM     28  O   UNL     1      48.061   1.370   6.627  0.00  0.00    +0.000 OA
ATOM     29  H   UNL     1      46.057  -0.523   8.233  0.00  0.00    +0.000 HD
ATOM     30  H   UNL     1      47.429  -0.907   7.251  0.00  0.00    +0.000 HD
ENDBRANCH  22  26
ENDBRANCH  17  18
ENDBRANCH  16  17
ENDBRANCH   5  16
TORSDOF 6
ENDMDL
MODEL 3
REMARK VINA RESULT:    -7.907      1.166      2.039
REMARK INTER + INTRA:         -11.421
REMARK INTER:                 -10.875
REMARK INTRA:                  -0.547
REMARK UNBOUND:                -0.972
REMARK  Name = 
REMARK  7 active torsions:
REMARK  status: ('A' for Active; 'I' for Inactive)
REMARK    1  A    between atoms: C_1  and  C_2
REMARK    2  A    between atoms: C_2  and  C_3
REMARK    3  A    between atoms: C_7  and  C_8
REMARK    4  A    between atoms: C_8  and  C_9
REMARK    5  A    between atoms: C_9  and  N_10
REMARK    6  A    between atoms: C_14  and  C_15
REMARK    7  A    between atoms: C_23  and  O_24
REMARK                            x       y       z     vdW  Elec       q    Type
REMARK                         _______ _______ _______ _____ _____    ______ ____
ROOT
ATOM      1  C   UNL     1      47.065   7.751  12.481  0.00  0.00    +0.000 A 
ATOM      2  C   UNL     1      46.226   8.813  12.101  0.00  0.00    +0.000 A 
ATOM      3  C   UNL     1      44.898   8.588  11.741  0.00  0.00    +0.000 A 
ATOM      4  C   UNL     1      44.378   7.290  11.728  0.00  0.00    +0.000 A 
ATOM      5  C   UNL     1      45.195   6.208  12.088  0.00  0.00    +0.000 A 
ATOM      6  C   UNL     1      46.510   6.475  12.507  0.00  0.00    +0.000 A 
ENDROOT
BRANCH   1   8
ATOM      7  C   UNL     1      49.006   7.038  13.840  0.00  0.00    +0.000 C 
ATOM      8  C   UNL     1      48.565   8.007  12.718  0.00  0.00    +0.000 C 
ATOM      9  C   UNL     1      49.365   7.737  11.414  0.00  0.00    +0.000 C 
ATOM     10  C   UNL     1      50.855   8.084  11.523  0.00  0.00    +0.000 C 
ATOM     11  C   UNL     1      51.094   9.512  12.006  0.00  0.00    +0.000 C 
ATOM     12  C   UNL     1      50.342   9.803  13.299  0.00  0.00    +0.000 C 
ATOM     13  C   UNL     1      48.855   9.471  13.183  0.00  0.00    +0.000 C 
BRANCH  11  14
ATOM     14  O   UNL     1      50.709  10.442  10.995  0.00  0.00    +0.000 OA
ATOM     15  H   UNL     1      51.467  10.600  10.405  0.00  0.00    +0.000 HD
ENDBRANCH  11  14
ENDBRANCH   1   8
BRANCH   5  16
ATOM     16  C   UNL     1      44.720   4.772  11.957  0.00  0.00    +0.000 C 
BRANCH  16  17
ATOM     17  C   UNL     1      43.559   4.591  10.966  0.00  0.00    +0.000 C 
BRANCH  17  18
ATOM     18  N   UNL     1      43.919   4.997   9.614  0.00  0.00    +0.000 N 
ATOM     19  C   UNL     1      44.705   4.024   9.001  0.00  0.00    +0.000 A 
ATOM     20  N   UNL     1      44.559   2.745   9.395  0.00  0.00    +0.000 NA
ATOM     21  C   UNL     1      45.347   1.831   8.823  0.00  0.00    +0.000 A 
ATOM     22  C   UNL     1      46.282   2.119   7.846  0.00  0.00    +0.000 A 
ATOM     23  C   UNL     1      46.361   3.449   7.514  0.00  0.00    +0.000 A 
ATOM     24  N   UNL     1      45.595   4.422   8.073  0.00  0.00    +0.000 NA
ATOM     25  H   UNL     1      44.424   5.866   9.551  0.00  0.00    +0.000 HD
BRANCH  22  26
ATOM     26  C   UNL     1      47.121   1.046   7.303  0.00  0.00    +0.000 C 
ATOM     27  N   UNL     1      46.841  -0.242   7.659  0.00  0.00    +0.000 N 
ATOM     28  O   UNL     1      48.061   1.296   6.556  0.00  0.00    +0.000 OA
ATOM     29  H   UNL     1      46.094  -0.543   8.267  0.00  0.00    +0.000 HD
ATOM     30  H   UNL     1      47.441  -0.960   7.265  0.00  0.00    +0.000 HD
ENDBRANCH  22  26
ENDBRANCH  17  18
ENDBRANCH  16  17
ENDBRANCH   5  16
TORSDOF 6
ENDMDL
MODEL 4
REMARK VINA RESULT:    -7.301      4.669      7.795
REMARK INTER + INTRA:         -10.620
REMARK INTER:                  -9.575
REMARK INTRA:                  -1.045
REMARK UNBOUND:                -0.972
REMARK  Name = 
REMARK  7 active torsions:
REMARK  status: ('A' for Active; 'I' for Inactive)
REMARK    1  A    between atoms: C_1  and  C_2
REMARK    2  A    between atoms: C_2  and  C_3
REMARK    3  A    between atoms: C_7  and  C_8
REMARK    4  A    between atoms: C_8  and  C_9
REMARK    5  A    between atoms: C_9  and  N_10
REMARK    6  A    between atoms: C_14  and  C_15
REMARK    7  A    between atoms: C_23  and  O_24
REMARK                            x       y       z     vdW  Elec       q    Type
REMARK                         _______ _______ _______ _____ _____    ______ ____
ROOT
ATOM      1  C   UNL     1      45.989   7.069  11.657  0.00  0.00    +0.000 A 
ATOM      2  C   UNL     1      45.218   8.240  11.770  0.00  0.00    +0.000 A 
ATOM      3  C   UNL     1      45.790   9.442  12.180  0.00  0.00    +0.000 A 
ATOM      4  C   UNL     1      47.147   9.504  12.513  0.00  0.00    +0.000 A 
ATOM      5  C   UNL     1      47.940   8.350  12.424  0.00  0.00    +0.000 A 
ATOM      6  C   UNL     1      47.347   7.168  11.947  0.00  0.00    +0.000 A 
ENDROOT
BRANCH   1   8
ATOM      7  C   UNL     1      45.630   5.378   9.887  0.00  0.00    +0.000 C 
ATOM      8  C   UNL     1      45.301   5.725  11.358  0.00  0.00    +0.000 C 
ATOM      9  C   UNL     1      45.839   4.625  12.313  0.00  0.00    +0.000 C 
ATOM     10  C   UNL     1      45.121   3.278  12.168  0.00  0.00    +0.000 C 
ATOM     11  C   UNL     1      43.605   3.400  12.301  0.00  0.00    +0.000 C 
ATOM     12  C   UNL     1      43.040   4.455  11.357  0.00  0.00    +0.000 C 
ATOM     13  C   UNL     1      43.747   5.801  11.515  0.00  0.00    +0.000 C 
BRANCH  11  14
ATOM     14  O   UNL     1      43.255   3.709  13.649  0.00  0.00    +0.000 OA
ATOM     15  H   UNL     1      43.581   4.601  13.864  0.00  0.00    +0.000 HD
ENDBRANCH  11  14
ENDBRANCH   1   8
BRANCH   5  16
ATOM     16  C   UNL     1      49.379   8.332  12.904  0.00  0.00    +0.000 C 
BRANCH  16  17
ATOM     17  C   UNL     1      49.524   8.369  14.434  0.00  0.00    +0.000 C 
BRANCH  17  18
ATOM     18  N   UNL     1      50.479   7.382  14.922  0.00  0.00    +0.000 N 
ATOM     19  C   UNL     1      49.829   6.386  15.646  0.00  0.00    +0.000 A 
ATOM     20  N   UNL     1      48.545   6.113  15.345  0.00  0.00    +0.000 NA
ATOM     21  C   UNL     1      47.927   5.180  16.075  0.00  0.00    +0.000 A 
ATOM     22  C   UNL     1      48.531   4.472  17.097  0.00  0.00    +0.000 A 
ATOM     23  C   UNL     1      49.837   4.822  17.331  0.00  0.00    +0.000 A 
ATOM     24  N   UNL     1      50.511   5.772  16.631  0.00  0.00    +0.000 NA
ATOM     25  H   UNL     1      51.204   7.751  15.516  0.00  0.00    +0.000 HD
BRANCH  22  26
ATOM     26  C   UNL     1      47.755   3.489  17.858  0.00  0.00    +0.000 C 
ATOM     27  N   UNL     1      48.235   3.075  19.068  0.00  0.00    +0.000 N 
ATOM     28  O   UNL     1      46.704   3.036  17.417  0.00  0.00    +0.000 OA
ATOM     29  H   UNL     1      49.088   3.388  19.509  0.00  0.00    +0.000 HD
ATOM     30  H   UNL     1      47.673   2.394  19.568  0.00  0.00    +0.000 HD
ENDBRANCH  22  26
ENDBRANCH  17  18
ENDBRANCH  16  17
ENDBRANCH   5  16
TORSDOF 6
ENDMDL
MODEL 5
REMARK VINA RESULT:    -7.070      5.104      7.980
REMARK INTER + INTRA:         -10.315
REMARK INTER:                  -9.419
REMARK INTRA:                  -0.895
REMARK UNBOUND:                -0.972
REMARK  Name = 
REMARK  7 active torsions:
REMARK  status: ('A' for Active; 'I' for Inactive)
REMARK    1  A    between atoms: C_1  and  C_2
REMARK    2  A    between atoms: C_2  and  C_3
REMARK    3  A    between atoms: C_7  and  C_8
REMARK    4  A    between atoms: C_8  and  C_9
REMARK    5  A    between atoms: C_9  and  N_10
REMARK    6  A    between atoms: C_14  and  C_15
REMARK    7  A    between atoms: C_23  and  O_24
REMARK                            x       y       z     vdW  Elec       q    Type
REMARK                         _______ _______ _______ _____ _____    ______ ____
ROOT
ATOM      1  C   UNL     1      46.226   6.575  12.458  0.00  0.00    +0.000 A 
ATOM      2  C   UNL     1      45.762   7.902  12.491  0.00  0.00    +0.000 A 
ATOM      3  C   UNL     1      46.418   8.877  13.240  0.00  0.00    +0.000 A 
ATOM      4  C   UNL     1      47.546   8.548  13.998  0.00  0.00    +0.000 A 
ATOM      5  C   UNL     1      48.026   7.229  13.998  0.00  0.00    +0.000 A 
ATOM      6  C   UNL     1      47.379   6.284  13.183  0.00  0.00    +0.000 A 
ENDROOT
BRANCH   1   8
ATOM      7  C   UNL     1      45.623   5.671  10.236  0.00  0.00    +0.000 C 
ATOM      8  C   UNL     1      45.393   5.489  11.755  0.00  0.00    +0.000 C 
ATOM      9  C   UNL     1      45.856   4.079  12.213  0.00  0.00    +0.000 C 
ATOM     10  C   UNL     1      44.999   2.937  11.654  0.00  0.00    +0.000 C 
ATOM     11  C   UNL     1      43.511   3.124  11.936  0.00  0.00    +0.000 C 
ATOM     12  C   UNL     1      43.017   4.490  11.474  0.00  0.00    +0.000 C 
ATOM     13  C   UNL     1      43.864   5.627  12.045  0.00  0.00    +0.000 C 
BRANCH  11  14
ATOM     14  O   UNL     1      43.251   2.953  13.329  0.00  0.00    +0.000 OA
ATOM     15  H   UNL     1      43.226   2.002  13.531  0.00  0.00    +0.000 HD
ENDBRANCH  11  14
ENDBRANCH   1   8
BRANCH   5  16
ATOM     16  C   UNL     1      49.158   6.793  14.909  0.00  0.00    +0.000 C 
BRANCH  16  17
ATOM     17  C   UNL     1      48.745   6.635  16.381  0.00  0.00    +0.000 C 
BRANCH  17  18
ATOM     18  N   UNL     1      48.084   5.362  16.636  0.00  0.00    +0.000 N 
ATOM     19  C   UNL     1      49.021   4.366  16.901  0.00  0.00    +0.000 A 
ATOM     20  N   UNL     1      50.202   4.728  17.438  0.00  0.00    +0.000 NA
ATOM     21  C   UNL     1      51.102   3.764  17.651  0.00  0.00    +0.000 A 
ATOM     22  C   UNL     1      50.885   2.428  17.372  0.00  0.00    +0.000 A 
ATOM     23  C   UNL     1      49.655   2.158  16.824  0.00  0.00    +0.000 A 
ATOM     24  N   UNL     1      48.708   3.099  16.573  0.00  0.00    +0.000 NA
ATOM     25  H   UNL     1      47.504   5.026  15.884  0.00  0.00    +0.000 HD
BRANCH  22  26
ATOM     26  C   UNL     1      51.951   1.451  17.615  0.00  0.00    +0.000 C 
ATOM     27  N   UNL     1      51.608   0.220  18.095  0.00  0.00    +0.000 N 
ATOM     28  O   UNL     1      53.125   1.733  17.404  0.00  0.00    +0.000 OA
ATOM     29  H   UNL     1      50.673  -0.101  18.300  0.00  0.00    +0.000 HD
ATOM     30  H   UNL     1      52.371  -0.432  18.252  0.00  0.00    +0.000 HD
ENDBRANCH  22  26
ENDBRANCH  17  18
ENDBRANCH  16  17
ENDBRANCH   5  16
TORSDOF 6
ENDMDL
MODEL 6
REMARK VINA RESULT:    -6.803      3.653      5.886
REMARK INTER + INTRA:          -9.962
REMARK INTER:                  -8.802
REMARK INTRA:                  -1.159
REMARK UNBOUND:                -0.972
REMARK  Name = 
REMARK  7 active torsions:
REMARK  status: ('A' for Active; 'I' for Inactive)
REMARK    1  A    between atoms: C_1  and  C_2
REMARK    2  A    between atoms: C_2  and  C_3
REMARK    3  A    between atoms: C_7  and  C_8
REMARK    4  A    between atoms: C_8  and  C_9
REMARK    5  A    between atoms: C_9  and  N_10
REMARK    6  A    between atoms: C_14  and  C_15
REMARK    7  A    between atoms: C_23  and  O_24
REMARK                            x       y       z     vdW  Elec       q    Type
REMARK                         _______ _______ _______ _____ _____    ______ ____
ROOT
ATOM      1  C   UNL     1      48.748   6.698  16.684  0.00  0.00    +0.000 A 
ATOM      2  C   UNL     1      48.618   7.881  17.432  0.00  0.00    +0.000 A 
ATOM      3  C   UNL     1      48.745   9.132  16.831  0.00  0.00    +0.000 A 
ATOM      4  C   UNL     1      49.030   9.236  15.466  0.00  0.00    +0.000 A 
ATOM      5  C   UNL     1      49.180   8.074  14.694  0.00  0.00    +0.000 A 
ATOM      6  C   UNL     1      48.983   6.829  15.318  0.00  0.00    +0.000 A 
ENDROOT
BRANCH   1   8
ATOM      7  C   UNL     1      48.435   5.615  18.886  0.00  0.00    +0.000 C 
ATOM      8  C   UNL     1      48.763   5.336  17.400  0.00  0.00    +0.000 C 
ATOM      9  C   UNL     1      47.701   4.391  16.774  0.00  0.00    +0.000 C 
ATOM     10  C   UNL     1      47.727   2.969  17.347  0.00  0.00    +0.000 C 
ATOM     11  C   UNL     1      49.112   2.331  17.276  0.00  0.00    +0.000 C 
ATOM     12  C   UNL     1      50.176   3.222  17.906  0.00  0.00    +0.000 C 
ATOM     13  C   UNL     1      50.157   4.634  17.323  0.00  0.00    +0.000 C 
BRANCH  11  14
ATOM     14  O   UNL     1      49.451   2.045  15.920  0.00  0.00    +0.000 OA
ATOM     15  H   UNL     1      50.420   2.060  15.826  0.00  0.00    +0.000 HD
ENDBRANCH  11  14
ENDBRANCH   1   8
BRANCH   5  16
ATOM     16  C   UNL     1      49.624   8.131  13.244  0.00  0.00    +0.000 C 
BRANCH  16  17
ATOM     17  C   UNL     1      48.952   7.079  12.348  0.00  0.00    +0.000 C 
BRANCH  17  18
ATOM     18  N   UNL     1      47.644   7.513  11.873  0.00  0.00    +0.000 N 
ATOM     19  C   UNL     1      46.728   6.465  11.933  0.00  0.00    +0.000 A 
ATOM     20  N   UNL     1      46.919   5.502  12.855  0.00  0.00    +0.000 NA
ATOM     21  C   UNL     1      46.052   4.486  12.873  0.00  0.00    +0.000 A 
ATOM     22  C   UNL     1      44.969   4.379  12.020  0.00  0.00    +0.000 A 
ATOM     23  C   UNL     1      44.860   5.405  11.114  0.00  0.00    +0.000 A 
ATOM     24  N   UNL     1      45.720   6.454  11.042  0.00  0.00    +0.000 NA
ATOM     25  H   UNL     1      47.629   7.862  10.929  0.00  0.00    +0.000 HD
BRANCH  22  26
ATOM     26  C   UNL     1      44.093   3.207  12.101  0.00  0.00    +0.000 C 
ATOM     27  N   UNL     1      43.890   2.466  10.972  0.00  0.00    +0.000 N 
ATOM     28  O   UNL     1      43.542   2.902  13.153  0.00  0.00    +0.000 OA
ATOM     29  H   UNL     1      44.297   2.640  10.064  0.00  0.00    +0.000 HD
ATOM     30  H   UNL     1      43.278   1.661  11.064  0.00  0.00    +0.000 HD
ENDBRANCH  22  26
ENDBRANCH  17  18
ENDBRANCH  16  17
ENDBRANCH   5  16
TORSDOF 6
ENDMDL
MODEL 7
REMARK VINA RESULT:    -6.334      4.826      6.947
REMARK INTER + INTRA:          -9.342
REMARK INTER:                  -8.431
REMARK INTRA:                  -0.912
REMARK UNBOUND:                -0.972
REMARK  Name = 
REMARK  7 active torsions:
REMARK  status: ('A' for Active; 'I' for Inactive)
REMARK    1  A    between atoms: C_1  and  C_2
REMARK    2  A    between atoms: C_2  and  C_3
REMARK    3  A    between atoms: C_7  and  C_8
REMARK    4  A    between atoms: C_8  and  C_9
REMARK    5  A    between atoms: C_9  and  N_10
REMARK    6  A    between atoms: C_14  and  C_15
REMARK    7  A    between atoms: C_23  and  O_24
REMARK                            x       y       z     vdW  Elec       q    Type
REMARK                         _______ _______ _______ _____ _____    ______ ____
ROOT
ATOM      1  C   UNL     1      47.698   7.706  12.691  0.00  0.00    +0.000 A 
ATOM      2  C   UNL     1      46.468   8.090  12.129  0.00  0.00    +0.000 A 
ATOM      3  C   UNL     1      45.334   7.290  12.260  0.00  0.00    +0.000 A 
ATOM      4  C   UNL     1      45.404   6.069  12.938  0.00  0.00    +0.000 A 
ATOM      5  C   UNL     1      46.621   5.650  13.497  0.00  0.00    +0.000 A 
ATOM      6  C   UNL     1      47.729   6.509  13.402  0.00  0.00    +0.000 A 
ENDROOT
BRANCH   1   8
ATOM      7  C   UNL     1      48.515   9.747  11.557  0.00  0.00    +0.000 C 
ATOM      8  C   UNL     1      48.965   8.527  12.394  0.00  0.00    +0.000 C 
ATOM      9  C   UNL     1      49.626   8.989  13.722  0.00  0.00    +0.000 C 
ATOM     10  C   UNL     1      50.964   9.712  13.526  0.00  0.00    +0.000 C 
ATOM     11  C   UNL     1      51.955   8.903  12.693  0.00  0.00    +0.000 C 
ATOM     12  C   UNL     1      51.346   8.456  11.370  0.00  0.00    +0.000 C 
ATOM     13  C   UNL     1      50.021   7.722  11.570  0.00  0.00    +0.000 C 
BRANCH  11  14
ATOM     14  O   UNL     1      52.406   7.771  13.434  0.00  0.00    +0.000 OA
ATOM     15  H   UNL     1      51.808   7.626  14.188  0.00  0.00    +0.000 HD
ENDBRANCH  11  14
ENDBRANCH   1   8
BRANCH   5  16
ATOM     16  C   UNL     1      46.781   4.276  14.120  0.00  0.00    +0.000 C 
BRANCH  16  17
ATOM     17  C   UNL     1      47.258   4.308  15.581  0.00  0.00    +0.000 C 
BRANCH  17  18
ATOM     18  N   UNL     1      47.617   2.985  16.074  0.00  0.00    +0.000 N 
ATOM     19  C   UNL     1      48.898   2.996  16.623  0.00  0.00    +0.000 A 
ATOM     20  N   UNL     1      49.360   4.150  17.141  0.00  0.00    +0.000 NA
ATOM     21  C   UNL     1      50.603   4.152  17.628  0.00  0.00    +0.000 A 
ATOM     22  C   UNL     1      51.427   3.041  17.648  0.00  0.00    +0.000 A 
ATOM     23  C   UNL     1      50.871   1.915  17.095  0.00  0.00    +0.000 A 
ATOM     24  N   UNL     1      49.617   1.861  16.572  0.00  0.00    +0.000 NA
ATOM     25  H   UNL     1      47.600   2.254  15.382  0.00  0.00    +0.000 HD
BRANCH  22  26
ATOM     26  C   UNL     1      52.789   3.156  18.178  0.00  0.00    +0.000 C 
ATOM     27  N   UNL     1      53.208   2.238  19.099  0.00  0.00    +0.000 N 
ATOM     28  O   UNL     1      53.534   4.060  17.817  0.00  0.00    +0.000 OA
ATOM     29  H   UNL     1      52.668   1.464  19.457  0.00  0.00    +0.000 HD
ATOM     30  H   UNL     1      54.156   2.346  19.445  0.00  0.00    +0.000 HD
ENDBRANCH  22  26
ENDBRANCH  17  18
ENDBRANCH  16  17
ENDBRANCH   5  16
TORSDOF 6
ENDMDL
MODEL 8
REMARK VINA RESULT:    -5.945      3.432      5.547
REMARK INTER + INTRA:          -8.829
REMARK INTER:                  -7.770
REMARK INTRA:                  -1.058
REMARK UNBOUND:                -0.972
REMARK  Name = 
REMARK  7 active torsions:
REMARK  status: ('A' for Active; 'I' for Inactive)
REMARK    1  A    between atoms: C_1  and  C_2
REMARK    2  A    between atoms: C_2  and  C_3
REMARK    3  A    between atoms: C_7  and  C_8
REMARK    4  A    between atoms: C_8  and  C_9
REMARK    5  A    between atoms: C_9  and  N_10
REMARK    6  A    between atoms: C_14  and  C_15
REMARK    7  A    between atoms: C_23  and  O_24
REMARK                            x       y       z     vdW  Elec       q    Type
REMARK                         _______ _______ _______ _____ _____    ______ ____
ROOT
ATOM      1  C   UNL     1      48.962   8.214  15.720  0.00  0.00    +0.000 A 
ATOM      2  C   UNL     1      49.759   9.336  16.006  0.00  0.00    +0.000 A 
ATOM      3  C   UNL     1      49.779  10.442  15.158  0.00  0.00    +0.000 A 
ATOM      4  C   UNL     1      49.017  10.448  13.985  0.00  0.00    +0.000 A 
ATOM      5  C   UNL     1      48.222   9.337  13.664  0.00  0.00    +0.000 A 
ATOM      6  C   UNL     1      48.176   8.265  14.572  0.00  0.00    +0.000 A 
ENDROOT
BRANCH   1   8
ATOM      7  C   UNL     1      50.574   6.540  16.568  0.00  0.00    +0.000 C 
ATOM      8  C   UNL     1      49.082   6.948  16.587  0.00  0.00    +0.000 C 
ATOM      9  C   UNL     1      48.615   7.247  18.038  0.00  0.00    +0.000 C 
ATOM     10  C   UNL     1      48.587   6.009  18.943  0.00  0.00    +0.000 C 
ATOM     11  C   UNL     1      47.772   4.863  18.349  0.00  0.00    +0.000 C 
ATOM     12  C   UNL     1      48.222   4.526  16.932  0.00  0.00    +0.000 C 
ATOM     13  C   UNL     1      48.236   5.759  16.029  0.00  0.00    +0.000 C 
BRANCH  11  14
ATOM     14  O   UNL     1      46.384   5.193  18.357  0.00  0.00    +0.000 OA
ATOM     15  H   UNL     1      46.176   5.665  19.182  0.00  0.00    +0.000 HD
ENDBRANCH  11  14
ENDBRANCH   1   8
BRANCH   5  16
ATOM     16  C   UNL     1      47.488   9.238  12.340  0.00  0.00    +0.000 C 
BRANCH  16  17
ATOM     17  C   UNL     1      45.966   9.411  12.460  0.00  0.00    +0.000 C 
BRANCH  17  18
ATOM     18  N   UNL     1      45.244   8.690  11.419  0.00  0.00    +0.000 N 
ATOM     19  C   UNL     1      45.211   7.326  11.700  0.00  0.00    +0.000 A 
ATOM     20  N   UNL     1      45.273   6.938  12.987  0.00  0.00    +0.000 NA
ATOM     21  C   UNL     1      45.278   5.625  13.235  0.00  0.00    +0.000 A 
ATOM     22  C   UNL     1      45.204   4.653  12.254  0.00  0.00    +0.000 A 
ATOM     23  C   UNL     1      45.148   5.146  10.974  0.00  0.00    +0.000 A 
ATOM     24  N   UNL     1      45.154   6.469  10.664  0.00  0.00    +0.000 NA
ATOM     25  H   UNL     1      45.623   8.791  10.492  0.00  0.00    +0.000 HD
BRANCH  22  26
ATOM     26  C   UNL     1      45.247   3.237  12.629  0.00  0.00    +0.000 C 
ATOM     27  N   UNL     1      44.161   2.457  12.351  0.00  0.00    +0.000 N 
ATOM     28  O   UNL     1      46.227   2.762  13.191  0.00  0.00    +0.000 OA
ATOM     29  H   UNL     1      43.312   2.758  11.896  0.00  0.00    +0.000 HD
ATOM     30  H   UNL     1      44.224   1.481  12.624  0.00  0.00    +0.000 HD
ENDBRANCH  22  26
ENDBRANCH  17  18
ENDBRANCH  16  17
ENDBRANCH   5  16
TORSDOF 6
ENDMDL
MODEL 9
REMARK VINA RESULT:    -5.811      4.054      6.151
REMARK INTER + INTRA:          -8.651
REMARK INTER:                  -7.826
REMARK INTRA:                  -0.825
REMARK UNBOUND:                -0.972
REMARK  Name = 
REMARK  7 active torsions:
REMARK  status: ('A' for Active; 'I' for Inactive)
REMARK    1  A    between atoms: C_1  and  C_2
REMARK    2  A    between atoms: C_2  and  C_3
REMARK    3  A    between atoms: C_7  and  C_8
REMARK    4  A    between atoms: C_8  and  C_9
REMARK    5  A    between atoms: C_9  and  N_10
REMARK    6  A    between atoms: C_14  and  C_15
REMARK    7  A    between atoms: C_23  and  O_24
REMARK                            x       y       z     vdW  Elec       q    Type
REMARK                         _______ _______ _______ _____ _____    ______ ____
ROOT
ATOM      1  C   UNL     1      50.704   6.525  16.632  0.00  0.00    +0.000 A 
ATOM      2  C   UNL     1      52.022   6.897  16.312  0.00  0.00    +0.000 A 
ATOM      3  C   UNL     1      52.287   7.785  15.271  0.00  0.00    +0.000 A 
ATOM      4  C   UNL     1      51.242   8.309  14.504  0.00  0.00    +0.000 A 
ATOM      5  C   UNL     1      49.917   7.946  14.789  0.00  0.00    +0.000 A 
ATOM      6  C   UNL     1      49.679   7.099  15.886  0.00  0.00    +0.000 A 
ENDROOT
BRANCH   1   8
ATOM      7  C   UNL     1      51.644   4.443  17.582  0.00  0.00    +0.000 C 
ATOM      8  C   UNL     1      50.452   5.423  17.678  0.00  0.00    +0.000 C 
ATOM      9  C   UNL     1      50.367   6.045  19.099  0.00  0.00    +0.000 C 
ATOM     10  C   UNL     1      49.996   5.035  20.191  0.00  0.00    +0.000 C 
ATOM     11  C   UNL     1      48.719   4.264  19.872  0.00  0.00    +0.000 C 
ATOM     12  C   UNL     1      48.779   3.618  18.493  0.00  0.00    +0.000 C 
ATOM     13  C   UNL     1      49.134   4.630  17.404  0.00  0.00    +0.000 C 
BRANCH  11  14
ATOM     14  O   UNL     1      47.589   5.130  19.960  0.00  0.00    +0.000 OA
ATOM     15  H   UNL     1      46.923   4.848  19.308  0.00  0.00    +0.000 HD
ENDBRANCH  11  14
ENDBRANCH   1   8
BRANCH   5  16
ATOM     16  C   UNL     1      48.763   8.377  13.903  0.00  0.00    +0.000 C 
BRANCH  16  17
ATOM     17  C   UNL     1      47.950   7.206  13.329  0.00  0.00    +0.000 C 
BRANCH  17  18
ATOM     18  N   UNL     1      46.515   7.459  13.366  0.00  0.00    +0.000 N 
ATOM     19  C   UNL     1      45.813   6.381  12.831  0.00  0.00    +0.000 A 
ATOM     20  N   UNL     1      46.369   5.157  12.905  0.00  0.00    +0.000 NA
ATOM     21  C   UNL     1      45.699   4.142  12.355  0.00  0.00    +0.000 A 
ATOM     22  C   UNL     1      44.469   4.272  11.736  0.00  0.00    +0.000 A 
ATOM     23  C   UNL     1      43.985   5.557  11.707  0.00  0.00    +0.000 A 
ATOM     24  N   UNL     1      44.631   6.628  12.238  0.00  0.00    +0.000 NA
ATOM     25  H   UNL     1      46.216   8.281  12.867  0.00  0.00    +0.000 HD
BRANCH  22  26
ATOM     26  C   UNL     1      43.829   3.099  11.135  0.00  0.00    +0.000 C 
ATOM     27  N   UNL     1      43.350   2.123  11.963  0.00  0.00    +0.000 N 
ATOM     28  O   UNL     1      43.733   2.985   9.918  0.00  0.00    +0.000 OA
ATOM     29  H   UNL     1      43.385   2.128  12.972  0.00  0.00    +0.000 HD
ATOM     30  H   UNL     1      42.913   1.325  11.514  0.00  0.00    +0.000 HD
ENDBRANCH  22  26
ENDBRANCH  17  18
ENDBRANCH  16  17
ENDBRANCH   5  16
TORSDOF 6
ENDMDL
