MODEL 1
REMARK VINA RESULT:    -6.934      0.000      0.000
REMARK INTER + INTRA:          -9.214
REMARK INTER:                  -8.556
REMARK INTRA:                  -0.658
REMARK UNBOUND:                -0.658
REMARK  Name = 
REMARK  6 active torsions:
REMARK  status: ('A' for Active; 'I' for Inactive)
REMARK    1  A    between atoms: C_1  and  C_2
REMARK    2  A    between atoms: C_5  and  C_6
REMARK    3  A    between atoms: C_10  and  N_11
REMARK    4  A    between atoms: N_11  and  C_12
REMARK    5  A    between atoms: C_12  and  C_13
REMARK    6  A    between atoms: C_12  and  C_14
REMARK                            x       y       z     vdW  Elec       q    Type
REMARK                         _______ _______ _______ _____ _____    ______ ____
ROOT
ATOM      1  C   UNL     1      46.911   8.125  12.201  0.00  0.00    +0.000 C 
ATOM      2  C   UNL     1      47.006   6.914  13.085  0.00  0.00    +0.000 A 
ATOM      3  C   UNL     1      48.088   6.806  13.964  0.00  0.00    +0.000 A 
ATOM      4  N   UNL     1      48.296   5.774  14.806  0.00  0.00    +0.000 NA
ATOM      5  C   UNL     1      47.375   4.779  14.742  0.00  0.00    +0.000 A 
ATOM      6  C   UNL     1      46.300   4.767  13.869  0.00  0.00    +0.000 A 
ATOM      7  C   UNL     1      46.075   5.857  13.028  0.00  0.00    +0.000 A 
ENDROOT
BRANCH   5   8
ATOM      8  C   UNL     1      47.541   3.642  15.704  0.00  0.00    +0.000 C 
ATOM      9  N   UNL     1      46.813   3.743  16.856  0.00  0.00    +0.000 N 
ATOM     10  O   UNL     1      48.264   2.681  15.478  0.00  0.00    +0.000 OA
ATOM     11  H   UNL     1      46.189   4.530  16.982  0.00  0.00    +0.000 HD
ATOM     12  H   UNL     1      46.829   2.983  17.524  0.00  0.00    +0.000 HD
ENDBRANCH   5   8
BRANCH   7  13
ATOM     13  N   UNL     1      45.030   5.885  12.112  0.00  0.00    +0.000 N 
ATOM     14  H   UNL     1      44.537   6.770  12.023  0.00  0.00    +0.000 HD
BRANCH  13  15
ATOM     15  C   UNL     1      44.174   4.721  11.830  0.00  0.00    +0.000 C 
ATOM     16  C   UNL     1      42.690   5.084  11.780  0.00  0.00    +0.000 C 
BRANCH  15  17
ATOM     17  C   UNL     1      44.583   4.096  10.494  0.00  0.00    +0.000 A 
ATOM     18  C   UNL     1      45.289   4.852   9.557  0.00  0.00    +0.000 A 
ATOM     19  C   UNL     1      45.682   4.252   8.363  0.00  0.00    +0.000 A 
ATOM     20  C   UNL     1      45.365   2.919   8.134  0.00  0.00    +0.000 A 
ATOM     21  C   UNL     1      44.661   2.236   9.111  0.00  0.00    +0.000 A 
ATOM     22  N   UNL     1      44.260   2.790  10.276  0.00  0.00    +0.000 NA
ENDBRANCH  15  17
ENDBRANCH  13  15
ENDBRANCH   7  13
TORSDOF 4
ENDMDL
MODEL 2
REMARK VINA RESULT:    -6.361      2.468      3.457
REMARK INTER + INTRA:          -8.506
REMARK INTER:                  -8.307
REMARK INTRA:                  -0.199
REMARK UNBOUND:                -0.658
REMARK  Name = 
REMARK  6 active torsions:
REMARK  status: ('A' for Active; 'I' for Inactive)
REMARK    1  A    between atoms: C_1  and  C_2
REMARK    2  A    between atoms: C_5  and  C_6
REMARK    3  A    between atoms: C_10  and  N_11
REMARK    4  A    between atoms: N_11  and  C_12
REMARK    5  A    between atoms: C_12  and  C_13
REMARK    6  A    between atoms: C_12  and  C_14
REMARK                            x       y       z     vdW  Elec       q    Type
REMARK                         _______ _______ _______ _____ _____    ______ ____
ROOT
ATOM      1  C   UNL     1      46.739   3.508  13.532  0.00  0.00    +0.000 C 
ATOM      2  C   UNL     1      46.441   4.952  13.247  0.00  0.00    +0.000 A 
ATOM      3  C   UNL     1      47.490   5.876  13.283  0.00  0.00    +0.000 A 
ATOM      4  N   UNL     1      47.360   7.198  13.052  0.00  0.00    +0.000 NA
ATOM      5  C   UNL     1      46.096   7.620  12.794  0.00  0.00    +0.000 A 
ATOM      6  C   UNL     1      44.984   6.795  12.789  0.00  0.00    +0.000 A 
ATOM      7  C   UNL     1      45.136   5.423  12.994  0.00  0.00    +0.000 A 
ENDROOT
BRANCH   5   8
ATOM      8  C   UNL     1      45.921   9.074  12.475  0.00  0.00    +0.000 C 
ATOM      9  N   UNL     1      44.692   9.592  12.773  0.00  0.00    +0.000 N 
ATOM     10  O   UNL     1      46.813   9.761  11.995  0.00  0.00    +0.000 OA
ATOM     11  H   UNL     1      43.999   9.002  13.216  0.00  0.00    +0.000 HD
ATOM     12  H   UNL     1      44.522  10.581  12.642  0.00  0.00    +0.000 HD
ENDBRANCH   5   8
BRANCH   7  13
ATOM     13  N   UNL     1      44.053   4.553  13.029  0.00  0.00    +0.000 N 
ATOM     14  H   UNL     1      44.195   3.681  13.533  0.00  0.00    +0.000 HD
BRANCH  13  15
ATOM     15  C   UNL     1      43.084   4.427  11.928  0.00  0.00    +0.000 C 
ATOM     16  C   UNL     1      42.403   5.753  11.592  0.00  0.00    +0.000 C 
BRANCH  15  17
ATOM     17  C   UNL     1      43.795   3.898  10.679  0.00  0.00    +0.000 A 
ATOM     18  C   UNL     1      44.321   4.790   9.744  0.00  0.00    +0.000 A 
ATOM     19  C   UNL     1      44.994   4.286   8.635  0.00  0.00    +0.000 A 
ATOM     20  C   UNL     1      45.130   2.912   8.485  0.00  0.00    +0.000 A 
ATOM     21  C   UNL     1      44.579   2.091   9.455  0.00  0.00    +0.000 A 
ATOM     22  N   UNL     1      43.915   2.547  10.540  0.00  0.00    +0.000 NA
ENDBRANCH  15  17
ENDBRANCH  13  15
ENDBRANCH   7  13
TORSDOF 4
ENDMDL
MODEL 3
REMARK VINA RESULT:    -6.257      2.940      6.278
REMARK INTER + INTRA:          -8.378
REMARK INTER:                  -7.753
REMARK INTRA:                  -0.625
REMARK UNBOUND:                -0.658
REMARK  Name = 
REMARK  6 active torsions:
REMARK  status: ('A' for Active; 'I' for Inactive)
REMARK    1  A    between atoms: C_1  and  C_2
REMARK    2  A    between atoms: C_5  and  C_6
REMARK    3  A    between atoms: C_10  and  N_11
REMARK    4  A    between atoms: N_11  and  C_12
REMARK    5  A    between atoms: C_12  and  C_13
REMARK    6  A    between atoms: C_12  and  C_14
REMARK                            x       y       z     vdW  Elec       q    Type
REMARK                         _______ _______ _______ _____ _____    ______ ____
ROOT
ATOM      1  C   UNL     1      43.239   2.966  11.641  0.00  0.00    +0.000 C 
ATOM      2  C   UNL     1      44.077   3.133  10.405  0.00  0.00    +0.000 A 
ATOM      3  C   UNL     1      44.478   1.991   9.704  0.00  0.00    +0.000 A 
ATOM      4  N   UNL     1      45.232   2.000   8.587  0.00  0.00    +0.000 NA
ATOM      5  C   UNL     1      45.628   3.226   8.163  0.00  0.00    +0.000 A 
ATOM      6  C   UNL     1      45.330   4.410   8.817  0.00  0.00    +0.000 A 
ATOM      7  C   UNL     1      44.518   4.392   9.952  0.00  0.00    +0.000 A 
ENDROOT
BRANCH   5   8
ATOM      8  C   UNL     1      46.419   3.279   6.892  0.00  0.00    +0.000 C 
ATOM      9  N   UNL     1      47.450   4.177   6.884  0.00  0.00    +0.000 N 
ATOM     10  O   UNL     1      46.177   2.565   5.928  0.00  0.00    +0.000 OA
ATOM     11  H   UNL     1      47.647   4.714   7.720  0.00  0.00    +0.000 HD
ATOM     12  H   UNL     1      48.064   4.224   6.082  0.00  0.00    +0.000 HD
ENDBRANCH   5   8
BRANCH   7  13
ATOM     13  N   UNL     1      44.212   5.546  10.663  0.00  0.00    +0.000 N 
ATOM     14  H   UNL     1      43.277   5.924  10.523  0.00  0.00    +0.000 HD
BRANCH  13  15
ATOM     15  C   UNL     1      45.206   6.584  10.985  0.00  0.00    +0.000 C 
ATOM     16  C   UNL     1      44.562   7.933  11.305  0.00  0.00    +0.000 C 
BRANCH  15  17
ATOM     17  C   UNL     1      46.047   6.133  12.181  0.00  0.00    +0.000 A 
ATOM     18  C   UNL     1      45.517   5.237  13.110  0.00  0.00    +0.000 A 
ATOM     19  C   UNL     1      46.313   4.813  14.171  0.00  0.00    +0.000 A 
ATOM     20  C   UNL     1      47.614   5.288  14.279  0.00  0.00    +0.000 A 
ATOM     21  C   UNL     1      48.068   6.177  13.319  0.00  0.00    +0.000 A 
ATOM     22  N   UNL     1      47.319   6.612  12.281  0.00  0.00    +0.000 NA
ENDBRANCH  15  17
ENDBRANCH  13  15
ENDBRANCH   7  13
TORSDOF 4
ENDMDL
MODEL 4
REMARK VINA RESULT:    -6.049      2.792      6.104
REMARK INTER + INTRA:          -8.121
REMARK INTER:                  -7.773
REMARK INTRA:                  -0.348
REMARK UNBOUND:                -0.658
REMARK  Name = 
REMARK  6 active torsions:
REMARK  status: ('A' for Active; 'I' for Inactive)
REMARK    1  A    between atoms: C_1  and  C_2
REMARK    2  A    between atoms: C_5  and  C_6
REMARK    3  A    between atoms: C_10  and  N_11
REMARK    4  A    between atoms: N_11  and  C_12
REMARK    5  A    between atoms: C_12  and  C_13
REMARK    6  A    between atoms: C_12  and  C_14
REMARK                            x       y       z     vdW  Elec       q    Type
REMARK                         _______ _______ _______ _____ _____    ______ ____
ROOT
ATOM      1  C   UNL     1      42.940   5.155  12.933  0.00  0.00    +0.000 C 
ATOM      2  C   UNL     1      43.657   4.533  11.769  0.00  0.00    +0.000 A 
ATOM      3  C   UNL     1      43.339   3.220  11.406  0.00  0.00    +0.000 A 
ATOM      4  N   UNL     1      43.909   2.545  10.388  0.00  0.00    +0.000 NA
ATOM      5  C   UNL     1      44.872   3.219   9.710  0.00  0.00    +0.000 A 
ATOM      6  C   UNL     1      45.296   4.498  10.026  0.00  0.00    +0.000 A 
ATOM      7  C   UNL     1      44.675   5.202  11.059  0.00  0.00    +0.000 A 
ENDROOT
BRANCH   5   8
ATOM      8  C   UNL     1      45.487   2.520   8.536  0.00  0.00    +0.000 C 
ATOM      9  N   UNL     1      45.654   3.293   7.421  0.00  0.00    +0.000 N 
ATOM     10  O   UNL     1      45.830   1.346   8.566  0.00  0.00    +0.000 OA
ATOM     11  H   UNL     1      45.403   4.273   7.454  0.00  0.00    +0.000 HD
ATOM     12  H   UNL     1      46.119   2.905   6.611  0.00  0.00    +0.000 HD
ENDBRANCH   5   8
BRANCH   7  13
ATOM     13  N   UNL     1      45.080   6.476  11.437  0.00  0.00    +0.000 N 
ATOM     14  H   UNL     1      45.211   7.147  10.683  0.00  0.00    +0.000 HD
BRANCH  13  15
ATOM     15  C   UNL     1      45.956   6.734  12.592  0.00  0.00    +0.000 C 
ATOM     16  C   UNL     1      46.793   5.514  12.977  0.00  0.00    +0.000 C 
BRANCH  15  17
ATOM     17  C   UNL     1      46.892   7.903  12.273  0.00  0.00    +0.000 A 
ATOM     18  C   UNL     1      48.207   7.656  11.876  0.00  0.00    +0.000 A 
ATOM     19  C   UNL     1      49.029   8.733  11.557  0.00  0.00    +0.000 A 
ATOM     20  C   UNL     1      48.524  10.024  11.637  0.00  0.00    +0.000 A 
ATOM     21  C   UNL     1      47.210  10.188  12.041  0.00  0.00    +0.000 A 
ATOM     22  N   UNL     1      46.387   9.165  12.363  0.00  0.00    +0.000 NA
ENDBRANCH  15  17
ENDBRANCH  13  15
ENDBRANCH   7  13
TORSDOF 4
ENDMDL
MODEL 5
REMARK VINA RESULT:    -5.971      1.556      1.949
REMARK INTER + INTRA:          -8.026
REMARK INTER:                  -7.370
REMARK INTRA:                  -0.656
REMARK UNBOUND:                -0.658
REMARK  Name = 
REMARK  6 active torsions:
REMARK  status: ('A' for Active; 'I' for Inactive)
REMARK    1  A    between atoms: C_1  and  C_2
REMARK    2  A    between atoms: C_5  and  C_6
REMARK    3  A    between atoms: C_10  and  N_11
REMARK    4  A    between atoms: N_11  and  C_12
REMARK    5  A    between atoms: C_12  and  C_13
REMARK    6  A    between atoms: C_12  and  C_14
REMARK                            x       y       z     vdW  Elec       q    Type
REMARK                         _______ _______ _______ _____ _____    ______ ____
ROOT
ATOM      1  C   UNL     1      48.715   8.188  13.670  0.00  0.00    +0.000 C 
ATOM      2  C   UNL     1      48.357   6.919  14.389  0.00  0.00    +0.000 A 
ATOM      3  C   UNL     1      48.987   6.633  15.605  0.00  0.00    +0.000 A 
ATOM      4  N   UNL     1      48.763   5.531  16.347  0.00  0.00    +0.000 NA
ATOM      5  C   UNL     1      47.869   4.652  15.826  0.00  0.00    +0.000 A 
ATOM      6  C   UNL     1      47.234   4.817  14.607  0.00  0.00    +0.000 A 
ATOM      7  C   UNL     1      47.447   5.979  13.864  0.00  0.00    +0.000 A 
ENDROOT
BRANCH   5   8
ATOM      8  C   UNL     1      47.551   3.443  16.652  0.00  0.00    +0.000 C 
ATOM      9  N   UNL     1      48.561   2.529  16.760  0.00  0.00    +0.000 N 
ATOM     10  O   UNL     1      46.471   3.282  17.205  0.00  0.00    +0.000 OA
ATOM     11  H   UNL     1      49.456   2.724  16.328  0.00  0.00    +0.000 HD
ATOM     12  H   UNL     1      48.438   1.717  17.352  0.00  0.00    +0.000 HD
ENDBRANCH   5   8
BRANCH   7  13
ATOM     13  N   UNL     1      46.859   6.183  12.621  0.00  0.00    +0.000 N 
ATOM     14  H   UNL     1      47.377   6.773  11.973  0.00  0.00    +0.000 HD
BRANCH  13  15
ATOM     15  C   UNL     1      45.402   6.252  12.420  0.00  0.00    +0.000 C 
ATOM     16  C   UNL     1      44.961   7.571  11.784  0.00  0.00    +0.000 C 
BRANCH  15  17
ATOM     17  C   UNL     1      44.953   5.091  11.530  0.00  0.00    +0.000 A 
ATOM     18  C   UNL     1      45.298   5.074  10.177  0.00  0.00    +0.000 A 
ATOM     19  C   UNL     1      44.909   3.990   9.395  0.00  0.00    +0.000 A 
ATOM     20  C   UNL     1      44.191   2.953   9.976  0.00  0.00    +0.000 A 
ATOM     21  C   UNL     1      43.886   3.043  11.323  0.00  0.00    +0.000 A 
ATOM     22  N   UNL     1      44.243   4.083  12.109  0.00  0.00    +0.000 NA
ENDBRANCH  15  17
ENDBRANCH  13  15
ENDBRANCH   7  13
TORSDOF 4
ENDMDL
MODEL 6
REMARK VINA RESULT:    -5.868      2.626      5.479
REMARK INTER + INTRA:          -7.898
REMARK INTER:                  -7.143
REMARK INTRA:                  -0.755
REMARK UNBOUND:                -0.658
REMARK  Name = 
REMARK  6 active torsions:
REMARK  status: ('A' for Active; 'I' for Inactive)
REMARK    1  A    between atoms: C_1  and  C_2
REMARK    2  A    between atoms: C_5  and  C_6
REMARK    3  A    between atoms: C_10  and  N_11
REMARK    4  A    between atoms: N_11  and  C_12
REMARK    5  A    between atoms: C_12  and  C_13
REMARK    6  A    between atoms: C_12  and  C_14
REMARK                            x       y       z     vdW  Elec       q    Type
REMARK                         _______ _______ _______ _____ _____    ______ ____
ROOT
ATOM      1  C   UNL     1      47.670   5.644  14.938  0.00  0.00    +0.000 C 
ATOM      2  C   UNL     1      46.732   5.032  13.938  0.00  0.00    +0.000 A 
ATOM      3  C   UNL     1      46.784   3.651  13.722  0.00  0.00    +0.000 A 
ATOM      4  N   UNL     1      46.004   2.978  12.853  0.00  0.00    +0.000 NA
ATOM      5  C   UNL     1      45.136   3.740  12.141  0.00  0.00    +0.000 A 
ATOM      6  C   UNL     1      45.046   5.118  12.242  0.00  0.00    +0.000 A 
ATOM      7  C   UNL     1      45.833   5.801  13.170  0.00  0.00    +0.000 A 
ENDROOT
BRANCH   5   8
ATOM      8  C   UNL     1      44.212   3.019  11.208  0.00  0.00    +0.000 C 
ATOM      9  N   UNL     1      44.808   2.472  10.106  0.00  0.00    +0.000 N 
ATOM     10  O   UNL     1      43.011   2.911  11.414  0.00  0.00    +0.000 OA
ATOM     11  H   UNL     1      45.812   2.541   9.998  0.00  0.00    +0.000 HD
ATOM     12  H   UNL     1      44.256   1.918   9.464  0.00  0.00    +0.000 HD
ENDBRANCH   5   8
BRANCH   7  13
ATOM     13  N   UNL     1      45.804   7.185  13.292  0.00  0.00    +0.000 N 
ATOM     14  H   UNL     1      45.130   7.561  13.955  0.00  0.00    +0.000 HD
BRANCH  13  15
ATOM     15  C   UNL     1      46.078   8.100  12.172  0.00  0.00    +0.000 C 
ATOM     16  C   UNL     1      45.233   9.372  12.235  0.00  0.00    +0.000 C 
BRANCH  15  17
ATOM     17  C   UNL     1      47.561   8.482  12.174  0.00  0.00    +0.000 A 
ATOM     18  C   UNL     1      48.499   7.640  11.576  0.00  0.00    +0.000 A 
ATOM     19  C   UNL     1      49.837   8.025  11.559  0.00  0.00    +0.000 A 
ATOM     20  C   UNL     1      50.206   9.235  12.131  0.00  0.00    +0.000 A 
ATOM     21  C   UNL     1      49.216  10.015  12.705  0.00  0.00    +0.000 A 
ATOM     22  N   UNL     1      47.911   9.668  12.745  0.00  0.00    +0.000 NA
ENDBRANCH  15  17
ENDBRANCH  13  15
ENDBRANCH   7  13
TORSDOF 4
ENDMDL
MODEL 7
REMARK VINA RESULT:    -5.802      2.552      5.985
REMARK INTER + INTRA:          -7.817
REMARK INTER:                  -7.188
REMARK INTRA:                  -0.629
REMARK UNBOUND:                -0.658
REMARK  Name = 
REMARK  6 active torsions:
REMARK  status: ('A' for Active; 'I' for Inactive)
REMARK    1  A    between atoms: C_1  and  C_2
REMARK    2  A    between atoms: C_5  and  C_6
REMARK    3  A    between atoms: C_10  and  N_11
REMARK    4  A    between atoms: N_11  and  C_12
REMARK    5  A    between atoms: C_12  and  C_13
REMARK    6  A    between atoms: C_12  and  C_14
REMARK                            x       y       z     vdW  Elec       q    Type
REMARK                         _______ _______ _______ _____ _____    ______ ____
ROOT
ATOM      1  C   UNL     1      44.909   8.729  12.048  0.00  0.00    +0.000 C 
ATOM      2  C   UNL     1      44.699   7.247  11.924  0.00  0.00    +0.000 A 
ATOM      3  C   UNL     1      43.642   6.780  11.136  0.00  0.00    +0.000 A 
ATOM      4  N   UNL     1      43.341   5.481  10.944  0.00  0.00    +0.000 NA
ATOM      5  C   UNL     1      44.134   4.598  11.602  0.00  0.00    +0.000 A 
ATOM      6  C   UNL     1      45.171   4.960  12.446  0.00  0.00    +0.000 A 
ATOM      7  C   UNL     1      45.496   6.307  12.609  0.00  0.00    +0.000 A 
ENDROOT
BRANCH   5   8
ATOM      8  C   UNL     1      43.866   3.143  11.366  0.00  0.00    +0.000 C 
ATOM      9  N   UNL     1      43.717   2.387  12.496  0.00  0.00    +0.000 N 
ATOM     10  O   UNL     1      43.772   2.657  10.247  0.00  0.00    +0.000 OA
ATOM     11  H   UNL     1      43.753   2.837  13.402  0.00  0.00    +0.000 HD
ATOM     12  H   UNL     1      43.473   1.409  12.413  0.00  0.00    +0.000 HD
ENDBRANCH   5   8
BRANCH   7  13
ATOM     13  N   UNL     1      46.506   6.728  13.466  0.00  0.00    +0.000 N 
ATOM     14  H   UNL     1      46.577   7.732  13.615  0.00  0.00    +0.000 HD
BRANCH  13  15
ATOM     15  C   UNL     1      47.801   6.038  13.587  0.00  0.00    +0.000 C 
ATOM     16  C   UNL     1      48.984   6.957  13.284  0.00  0.00    +0.000 C 
BRANCH  15  17
ATOM     17  C   UNL     1      47.952   5.478  15.004  0.00  0.00    +0.000 A 
ATOM     18  C   UNL     1      47.170   4.397  15.415  0.00  0.00    +0.000 A 
ATOM     19  C   UNL     1      47.350   3.882  16.695  0.00  0.00    +0.000 A 
ATOM     20  C   UNL     1      48.302   4.451  17.532  0.00  0.00    +0.000 A 
ATOM     21  C   UNL     1      49.037   5.522  17.053  0.00  0.00    +0.000 A 
ATOM     22  N   UNL     1      48.883   6.049  15.818  0.00  0.00    +0.000 NA
ENDBRANCH  15  17
ENDBRANCH  13  15
ENDBRANCH   7  13
TORSDOF 4
ENDMDL
MODEL 8
REMARK VINA RESULT:    -5.450      2.845      6.921
REMARK INTER + INTRA:          -7.383
REMARK INTER:                  -6.923
REMARK INTRA:                  -0.460
REMARK UNBOUND:                -0.658
REMARK  Name = 
REMARK  6 active torsions:
REMARK  status: ('A' for Active; 'I' for Inactive)
REMARK    1  A    between atoms: C_1  and  C_2
REMARK    2  A    between atoms: C_5  and  C_6
REMARK    3  A    between atoms: C_10  and  N_11
REMARK    4  A    between atoms: N_11  and  C_12
REMARK    5  A    between atoms: C_12  and  C_13
REMARK    6  A    between atoms: C_12  and  C_14
REMARK                            x       y       z     vdW  Elec       q    Type
REMARK                         _______ _______ _______ _____ _____    ______ ____
ROOT
ATOM      1  C   UNL     1      48.776   6.966  13.134  0.00  0.00    +0.000 C 
ATOM      2  C   UNL     1      47.509   6.166  13.029  0.00  0.00    +0.000 A 
ATOM      3  C   UNL     1      46.745   6.265  11.862  0.00  0.00    +0.000 A 
ATOM      4  N   UNL     1      45.589   5.607  11.641  0.00  0.00    +0.000 NA
ATOM      5  C   UNL     1      45.163   4.822  12.663  0.00  0.00    +0.000 A 
ATOM      6  C   UNL     1      45.819   4.700  13.877  0.00  0.00    +0.000 A 
ATOM      7  C   UNL     1      47.033   5.357  14.081  0.00  0.00    +0.000 A 
ENDROOT
BRANCH   5   8
ATOM      8  C   UNL     1      43.913   4.031  12.431  0.00  0.00    +0.000 C 
ATOM      9  N   UNL     1      44.051   2.676  12.546  0.00  0.00    +0.000 N 
ATOM     10  O   UNL     1      42.836   4.550  12.170  0.00  0.00    +0.000 OA
ATOM     11  H   UNL     1      44.948   2.289  12.813  0.00  0.00    +0.000 HD
ATOM     12  H   UNL     1      43.236   2.082  12.464  0.00  0.00    +0.000 HD
ENDBRANCH   5   8
BRANCH   7  13
ATOM     13  N   UNL     1      47.718   5.293  15.288  0.00  0.00    +0.000 N 
ATOM     14  H   UNL     1      48.717   5.478  15.246  0.00  0.00    +0.000 HD
BRANCH  13  15
ATOM     15  C   UNL     1      47.351   4.370  16.375  0.00  0.00    +0.000 C 
ATOM     16  C   UNL     1      47.941   2.973  16.182  0.00  0.00    +0.000 C 
BRANCH  15  17
ATOM     17  C   UNL     1      47.834   4.937  17.713  0.00  0.00    +0.000 A 
ATOM     18  C   UNL     1      46.926   5.538  18.585  0.00  0.00    +0.000 A 
ATOM     19  C   UNL     1      47.381   6.014  19.812  0.00  0.00    +0.000 A 
ATOM     20  C   UNL     1      48.724   5.879  20.139  0.00  0.00    +0.000 A 
ATOM     21  C   UNL     1      49.564   5.272  19.220  0.00  0.00    +0.000 A 
ATOM     22  N   UNL     1      49.155   4.805  18.020  0.00  0.00    +0.000 NA
ENDBRANCH  15  17
ENDBRANCH  13  15
ENDBRANCH   7  13
TORSDOF 4
ENDMDL
MODEL 9
REMARK VINA RESULT:    -5.383      2.807      6.401
REMARK INTER + INTRA:          -7.300
REMARK INTER:                  -6.675
REMARK INTRA:                  -0.625
REMARK UNBOUND:                -0.658
REMARK  Name = 
REMARK  6 active torsions:
REMARK  status: ('A' for Active; 'I' for Inactive)
REMARK    1  A    between atoms: C_1  and  C_2
REMARK    2  A    between atoms: C_5  and  C_6
REMARK    3  A    between atoms: C_10  and  N_11
REMARK    4  A    between atoms: N_11  and  C_12
REMARK    5  A    between atoms: C_12  and  C_13
REMARK    6  A    between atoms: C_12  and  C_14
REMARK                            x       y       z     vdW  Elec       q    Type
REMARK                         _______ _______ _______ _____ _____    ______ ____
ROOT
ATOM      1  C   UNL     1      45.503   9.063  12.163  0.00  0.00    +0.000 C 
ATOM      2  C   UNL     1      45.185   7.595  12.162  0.00  0.00    +0.000 A 
ATOM      3  C   UNL     1      44.134   7.134  11.361  0.00  0.00    +0.000 A 
ATOM      4  N   UNL     1      43.743   5.848  11.271  0.00  0.00    +0.000 NA
ATOM      5  C   UNL     1      44.431   4.975  12.049  0.00  0.00    +0.000 A 
ATOM      6  C   UNL     1      45.450   5.339  12.914  0.00  0.00    +0.000 A 
ATOM      7  C   UNL     1      45.870   6.668  12.973  0.00  0.00    +0.000 A 
ENDROOT
BRANCH   5   8
ATOM      8  C   UNL     1      44.063   3.528  11.931  0.00  0.00    +0.000 C 
ATOM      9  N   UNL     1      44.943   2.654  12.504  0.00  0.00    +0.000 N 
ATOM     10  O   UNL     1      43.041   3.145  11.376  0.00  0.00    +0.000 OA
ATOM     11  H   UNL     1      45.751   3.014  12.997  0.00  0.00    +0.000 HD
ATOM     12  H   UNL     1      44.728   1.665  12.516  0.00  0.00    +0.000 HD
ENDBRANCH   5   8
BRANCH   7  13
ATOM     13  N   UNL     1      46.866   7.093  13.844  0.00  0.00    +0.000 N 
ATOM     14  H   UNL     1      46.788   8.051  14.180  0.00  0.00    +0.000 HD
BRANCH  13  15
ATOM     15  C   UNL     1      48.260   6.625  13.766  0.00  0.00    +0.000 C 
ATOM     16  C   UNL     1      48.991   7.167  12.538  0.00  0.00    +0.000 C 
BRANCH  15  17
ATOM     17  C   UNL     1      49.015   7.052  15.027  0.00  0.00    +0.000 A 
ATOM     18  C   UNL     1      49.051   8.397  15.398  0.00  0.00    +0.000 A 
ATOM     19  C   UNL     1      49.713   8.757  16.569  0.00  0.00    +0.000 A 
ATOM     20  C   UNL     1      50.319   7.774  17.340  0.00  0.00    +0.000 A 
ATOM     21  C   UNL     1      50.242   6.461  16.905  0.00  0.00    +0.000 A 
ATOM     22  N   UNL     1      49.612   6.079  15.771  0.00  0.00    +0.000 NA
ENDBRANCH  15  17
ENDBRANCH  13  15
ENDBRANCH   7  13
TORSDOF 4
ENDMDL
