MODEL 1
REMARK VINA RESULT:    -8.631      0.000      0.000
REMARK INTER + INTRA:         -11.874
REMARK INTER:                 -11.154
REMARK INTRA:                  -0.721
REMARK UNBOUND:                -0.721
REMARK  Name = 
REMARK  5 active torsions:
REMARK  status: ('A' for Active; 'I' for Inactive)
REMARK    1  A    between atoms: C_2  and  C_5
REMARK    2  A    between atoms: C_9  and  N_10
REMARK    3  A    between atoms: N_10  and  C_11
REMARK    4  A    between atoms: C_11  and  C_12
REMARK    5  A    between atoms: C_16  and  C_17
REMARK                            x       y       z     vdW  Elec       q    Type
REMARK                         _______ _______ _______ _____ _____    ______ ____
ROOT
ATOM      1  C   UNL     1      43.533   3.681  11.645  0.00  0.00    +0.000 C 
ENDROOT
BRANCH   1   2
ATOM      2  C   UNL     1      44.755   4.282  12.300  0.00  0.00    +0.000 A 
ATOM      3  C   UNL     1      45.624   3.484  13.052  0.00  0.00    +0.000 A 
ATOM      4  C   UNL     1      46.796   4.027  13.571  0.00  0.00    +0.000 A 
ATOM      5  C   UNL     1      47.107   5.371  13.350  0.00  0.00    +0.000 A 
ATOM      6  C   UNL     1      46.257   6.214  12.610  0.00  0.00    +0.000 A 
ATOM      7  C   UNL     1      45.070   5.642  12.109  0.00  0.00    +0.000 A 
BRANCH   6   8
ATOM      8  C   UNL     1      46.612   7.635  12.350  0.00  0.00    +0.000 A 
ATOM      9  C   UNL     1      47.954   8.047  12.232  0.00  0.00    +0.000 A 
ATOM     10  C   UNL     1      48.294   9.382  11.987  0.00  0.00    +0.000 A 
ATOM     11  C   UNL     1      47.292  10.337  11.840  0.00  0.00    +0.000 A 
ATOM     12  C   UNL     1      45.963   9.956  11.957  0.00  0.00    +0.000 A 
ATOM     13 CL   UNL     1      44.716  11.132  11.771  0.00  0.00    +0.000 Cl
ATOM     14  C   UNL     1      45.623   8.625  12.220  0.00  0.00    +0.000 A 
ENDBRANCH   6   8
ENDBRANCH   1   2
BRANCH   1  15
ATOM     15  N   UNL     1      43.883   2.557  10.789  0.00  0.00    +0.000 N 
ATOM     16  H   UNL     1      44.212   1.740  11.297  0.00  0.00    +0.000 HD
BRANCH  15  21
ATOM     17  C   UNL     1      46.173   2.161   7.853  0.00  0.00    +0.000 A 
ATOM     18  C   UNL     1      46.055   3.445   7.342  0.00  0.00    +0.000 A 
ATOM     19  N   UNL     1      45.271   4.396   7.889  0.00  0.00    +0.000 NA
ATOM     20  C   UNL     1      44.567   4.049   8.997  0.00  0.00    +0.000 A 
ATOM     21  C   UNL     1      44.574   2.784   9.595  0.00  0.00    +0.000 A 
ATOM     22  C   UNL     1      45.425   1.846   9.000  0.00  0.00    +0.000 A 
BRANCH  17  24
ATOM     23  F   UNL     1      46.980  -0.090   7.756  0.00  0.00    +0.000 F 
ATOM     24  C   UNL     1      47.063   1.152   7.206  0.00  0.00    +0.000 C 
ATOM     25  F   UNL     1      48.378   1.502   7.274  0.00  0.00    +0.000 F 
ATOM     26  F   UNL     1      46.790   0.990   5.881  0.00  0.00    +0.000 F 
ENDBRANCH  17  24
ENDBRANCH  15  21
ENDBRANCH   1  15
TORSDOF 5
ENDMDL
MODEL 2
REMARK VINA RESULT:    -8.400      2.042      2.639
REMARK INTER + INTRA:         -11.576
REMARK INTER:                 -10.617
REMARK INTRA:                  -0.959
REMARK UNBOUND:                -0.721
REMARK  Name = 
REMARK  5 active torsions:
REMARK  status: ('A' for Active; 'I' for Inactive)
REMARK    1  A    between atoms: C_2  and  C_5
REMARK    2  A    between atoms: C_9  and  N_10
REMARK    3  A    between atoms: N_10  and  C_11
REMARK    4  A    between atoms: C_11  and  C_12
REMARK    5  A    between atoms: C_16  and  C_17
REMARK                            x       y       z     vdW  Elec       q    Type
REMARK                         _______ _______ _______ _____ _____    ______ ____
ROOT
ATOM      1  C   UNL     1      43.622   5.283  11.311  0.00  0.00    +0.000 C 
ENDROOT
BRANCH   1   2
ATOM      2  C   UNL     1      44.900   5.448  12.099  0.00  0.00    +0.000 A 
ATOM      3  C   UNL     1      45.251   4.521  13.088  0.00  0.00    +0.000 A 
ATOM      4  C   UNL     1      46.474   4.629  13.742  0.00  0.00    +0.000 A 
ATOM      5  C   UNL     1      47.355   5.666  13.422  0.00  0.00    +0.000 A 
ATOM      6  C   UNL     1      47.039   6.627  12.444  0.00  0.00    +0.000 A 
ATOM      7  C   UNL     1      45.787   6.503  11.807  0.00  0.00    +0.000 A 
BRANCH   6   8
ATOM      8  C   UNL     1      47.996   7.708  12.085  0.00  0.00    +0.000 A 
ATOM      9  C   UNL     1      47.617   9.065  12.114  0.00  0.00    +0.000 A 
ATOM     10  C   UNL     1      48.512  10.086  11.778  0.00  0.00    +0.000 A 
ATOM     11  C   UNL     1      49.820   9.770  11.417  0.00  0.00    +0.000 A 
ATOM     12  C   UNL     1      50.215   8.442  11.377  0.00  0.00    +0.000 A 
ATOM     13 CL   UNL     1      51.833   8.044  10.936  0.00  0.00    +0.000 Cl
ATOM     14  C   UNL     1      49.316   7.419  11.695  0.00  0.00    +0.000 A 
ENDBRANCH   6   8
ENDBRANCH   1   2
BRANCH   1  15
ATOM     15  N   UNL     1      43.885   5.160   9.885  0.00  0.00    +0.000 N 
ATOM     16  H   UNL     1      43.115   5.468   9.297  0.00  0.00    +0.000 HD
BRANCH  15  21
ATOM     17  C   UNL     1      45.975   2.856   7.799  0.00  0.00    +0.000 A 
ATOM     18  C   UNL     1      45.590   1.661   8.387  0.00  0.00    +0.000 A 
ATOM     19  N   UNL     1      44.719   1.582   9.414  0.00  0.00    +0.000 NA
ATOM     20  C   UNL     1      44.210   2.752   9.879  0.00  0.00    +0.000 A 
ATOM     21  C   UNL     1      44.537   4.024   9.395  0.00  0.00    +0.000 A 
ATOM     22  C   UNL     1      45.425   4.042   8.314  0.00  0.00    +0.000 A 
BRANCH  17  24
ATOM     23  F   UNL     1      48.245   2.927   7.044  0.00  0.00    +0.000 F 
ATOM     24  C   UNL     1      46.940   2.879   6.660  0.00  0.00    +0.000 C 
ATOM     25  F   UNL     1      46.752   3.954   5.845  0.00  0.00    +0.000 F 
ATOM     26  F   UNL     1      46.828   1.783   5.860  0.00  0.00    +0.000 F 
ENDBRANCH  17  24
ENDBRANCH  15  21
ENDBRANCH   1  15
TORSDOF 5
ENDMDL
MODEL 3
REMARK VINA RESULT:    -8.204      4.677      7.389
REMARK INTER + INTRA:         -11.322
REMARK INTER:                 -10.464
REMARK INTRA:                  -0.858
REMARK UNBOUND:                -0.721
REMARK  Name = 
REMARK  5 active torsions:
REMARK  status: ('A' for Active; 'I' for Inactive)
REMARK    1  A    between atoms: C_2  and  C_5
REMARK    2  A    between atoms: C_9  and  N_10
REMARK    3  A    between atoms: N_10  and  C_11
REMARK    4  A    between atoms: C_11  and  C_12
REMARK    5  A    between atoms: C_16  and  C_17
REMARK                            x       y       z     vdW  Elec       q    Type
REMARK                         _______ _______ _______ _____ _____    ______ ____
ROOT
ATOM      1  C   UNL     1      44.270   7.207  11.489  0.00  0.00    +0.000 C 
ENDROOT
BRANCH   1   2
ATOM      2  C   UNL     1      44.181   5.722  11.227  0.00  0.00    +0.000 A 
ATOM      3  C   UNL     1      43.304   4.920  11.966  0.00  0.00    +0.000 A 
ATOM      4  C   UNL     1      43.160   3.572  11.654  0.00  0.00    +0.000 A 
ATOM      5  C   UNL     1      43.895   3.010  10.606  0.00  0.00    +0.000 A 
ATOM      6  C   UNL     1      44.798   3.774   9.845  0.00  0.00    +0.000 A 
ATOM      7  C   UNL     1      44.935   5.134  10.192  0.00  0.00    +0.000 A 
BRANCH   6   8
ATOM      8  C   UNL     1      45.551   3.176   8.709  0.00  0.00    +0.000 A 
ATOM      9  C   UNL     1      46.075   3.975   7.674  0.00  0.00    +0.000 A 
ATOM     10  C   UNL     1      46.785   3.419   6.604  0.00  0.00    +0.000 A 
ATOM     11  C   UNL     1      47.000   2.044   6.555  0.00  0.00    +0.000 A 
ATOM     12  C   UNL     1      46.490   1.237   7.561  0.00  0.00    +0.000 A 
ATOM     13 CL   UNL     1      46.757  -0.466   7.509  0.00  0.00    +0.000 Cl
ATOM     14  C   UNL     1      45.765   1.790   8.621  0.00  0.00    +0.000 A 
ENDBRANCH   6   8
ENDBRANCH   1   2
BRANCH   1  15
ATOM     15  N   UNL     1      44.948   7.489  12.745  0.00  0.00    +0.000 N 
ATOM     16  H   UNL     1      44.561   8.280  13.253  0.00  0.00    +0.000 HD
BRANCH  15  21
ATOM     17  C   UNL     1      48.592   8.252  12.339  0.00  0.00    +0.000 A 
ATOM     18  C   UNL     1      49.095   7.048  12.808  0.00  0.00    +0.000 A 
ATOM     19  N   UNL     1      48.319   6.039  13.253  0.00  0.00    +0.000 NA
ATOM     20  C   UNL     1      46.976   6.242  13.232  0.00  0.00    +0.000 A 
ATOM     21  C   UNL     1      46.343   7.417  12.812  0.00  0.00    +0.000 A 
ATOM     22  C   UNL     1      47.197   8.419  12.337  0.00  0.00    +0.000 A 
BRANCH  17  24
ATOM     23  F   UNL     1      50.697   8.876  11.384  0.00  0.00    +0.000 F 
ATOM     24  C   UNL     1      49.503   9.331  11.853  0.00  0.00    +0.000 C 
ATOM     25  F   UNL     1      49.805  10.232  12.829  0.00  0.00    +0.000 F 
ATOM     26  F   UNL     1      48.956  10.055  10.837  0.00  0.00    +0.000 F 
ENDBRANCH  17  24
ENDBRANCH  15  21
ENDBRANCH   1  15
TORSDOF 5
ENDMDL
MODEL 4
REMARK VINA RESULT:    -8.188      2.840      4.386
REMARK INTER + INTRA:         -11.302
REMARK INTER:                 -10.451
REMARK INTRA:                  -0.850
REMARK UNBOUND:                -0.721
REMARK  Name = 
REMARK  5 active torsions:
REMARK  status: ('A' for Active; 'I' for Inactive)
REMARK    1  A    between atoms: C_2  and  C_5
REMARK    2  A    between atoms: C_9  and  N_10
REMARK    3  A    between atoms: N_10  and  C_11
REMARK    4  A    between atoms: C_11  and  C_12
REMARK    5  A    between atoms: C_16  and  C_17
REMARK                            x       y       z     vdW  Elec       q    Type
REMARK                         _______ _______ _______ _____ _____    ______ ____
ROOT
ATOM      1  C   UNL     1      44.726   5.807  11.323  0.00  0.00    +0.000 C 
ENDROOT
BRANCH   1   2
ATOM      2  C   UNL     1      46.048   6.068  12.005  0.00  0.00    +0.000 A 
ATOM      3  C   UNL     1      46.989   6.928  11.427  0.00  0.00    +0.000 A 
ATOM      4  C   UNL     1      48.164   7.236  12.107  0.00  0.00    +0.000 A 
ATOM      5  C   UNL     1      48.412   6.683  13.367  0.00  0.00    +0.000 A 
ATOM      6  C   UNL     1      47.501   5.805  13.981  0.00  0.00    +0.000 A 
ATOM      7  C   UNL     1      46.326   5.499  13.263  0.00  0.00    +0.000 A 
BRANCH   6   8
ATOM      8  C   UNL     1      47.757   5.248  15.337  0.00  0.00    +0.000 A 
ATOM      9  C   UNL     1      47.144   4.055  15.768  0.00  0.00    +0.000 A 
ATOM     10  C   UNL     1      47.382   3.526  17.042  0.00  0.00    +0.000 A 
ATOM     11  C   UNL     1      48.255   4.176  17.911  0.00  0.00    +0.000 A 
ATOM     12  C   UNL     1      48.867   5.354  17.509  0.00  0.00    +0.000 A 
ATOM     13 CL   UNL     1      49.953   6.161  18.578  0.00  0.00    +0.000 Cl
ATOM     14  C   UNL     1      48.616   5.893  16.244  0.00  0.00    +0.000 A 
ENDBRANCH   6   8
ENDBRANCH   1   2
BRANCH   1  15
ATOM     15  N   UNL     1      44.894   5.598   9.893  0.00  0.00    +0.000 N 
ATOM     16  H   UNL     1      44.222   6.106   9.321  0.00  0.00    +0.000 HD
BRANCH  15  21
ATOM     17  C   UNL     1      46.167   2.773   7.790  0.00  0.00    +0.000 A 
ATOM     18  C   UNL     1      45.485   1.742   8.418  0.00  0.00    +0.000 A 
ATOM     19  N   UNL     1      44.668   1.924   9.475  0.00  0.00    +0.000 NA
ATOM     20  C   UNL     1      44.527   3.196   9.930  0.00  0.00    +0.000 A 
ATOM     21  C   UNL     1      45.179   4.318   9.407  0.00  0.00    +0.000 A 
ATOM     22  C   UNL     1      45.993   4.072   8.296  0.00  0.00    +0.000 A 
BRANCH  17  24
ATOM     23  F   UNL     1      48.381   2.650   6.888  0.00  0.00    +0.000 F 
ATOM     24  C   UNL     1      47.055   2.509   6.618  0.00  0.00    +0.000 C 
ATOM     25  F   UNL     1      46.796   3.345   5.575  0.00  0.00    +0.000 F 
ATOM     26  F   UNL     1      46.907   1.247   6.128  0.00  0.00    +0.000 F 
ENDBRANCH  17  24
ENDBRANCH  15  21
ENDBRANCH   1  15
TORSDOF 5
ENDMDL
MODEL 5
REMARK VINA RESULT:    -7.929      4.748      7.503
REMARK INTER + INTRA:         -10.967
REMARK INTER:                 -10.061
REMARK INTRA:                  -0.906
REMARK UNBOUND:                -0.721
REMARK  Name = 
REMARK  5 active torsions:
REMARK  status: ('A' for Active; 'I' for Inactive)
REMARK    1  A    between atoms: C_2  and  C_5
REMARK    2  A    between atoms: C_9  and  N_10
REMARK    3  A    between atoms: N_10  and  C_11
REMARK    4  A    between atoms: C_11  and  C_12
REMARK    5  A    between atoms: C_16  and  C_17
REMARK                            x       y       z     vdW  Elec       q    Type
REMARK                         _______ _______ _______ _____ _____    ______ ____
ROOT
ATOM      1  C   UNL     1      45.630   7.186  12.221  0.00  0.00    +0.000 C 
ENDROOT
BRANCH   1   2
ATOM      2  C   UNL     1      44.989   5.962  11.611  0.00  0.00    +0.000 A 
ATOM      3  C   UNL     1      43.722   5.539  12.030  0.00  0.00    +0.000 A 
ATOM      4  C   UNL     1      43.100   4.467  11.397  0.00  0.00    +0.000 A 
ATOM      5  C   UNL     1      43.739   3.804  10.345  0.00  0.00    +0.000 A 
ATOM      6  C   UNL     1      45.017   4.186   9.900  0.00  0.00    +0.000 A 
ATOM      7  C   UNL     1      45.631   5.266  10.568  0.00  0.00    +0.000 A 
BRANCH   6   8
ATOM      8  C   UNL     1      45.676   3.497   8.757  0.00  0.00    +0.000 A 
ATOM      9  C   UNL     1      46.172   4.216   7.652  0.00  0.00    +0.000 A 
ATOM     10  C   UNL     1      46.793   3.573   6.576  0.00  0.00    +0.000 A 
ATOM     11  C   UNL     1      46.945   2.189   6.588  0.00  0.00    +0.000 A 
ATOM     12  C   UNL     1      46.462   1.459   7.664  0.00  0.00    +0.000 A 
ATOM     13 CL   UNL     1      46.651  -0.254   7.689  0.00  0.00    +0.000 Cl
ATOM     14  C   UNL     1      45.825   2.099   8.732  0.00  0.00    +0.000 A 
ENDBRANCH   6   8
ENDBRANCH   1   2
BRANCH   1  15
ATOM     15  N   UNL     1      47.075   7.041  12.319  0.00  0.00    +0.000 N 
ATOM     16  H   UNL     1      47.494   6.561  11.527  0.00  0.00    +0.000 HD
BRANCH  15  21
ATOM     17  C   UNL     1      47.965   5.235  15.477  0.00  0.00    +0.000 A 
ATOM     18  C   UNL     1      48.701   6.245  16.076  0.00  0.00    +0.000 A 
ATOM     19  N   UNL     1      48.925   7.445  15.503  0.00  0.00    +0.000 NA
ATOM     20  C   UNL     1      48.392   7.645  14.269  0.00  0.00    +0.000 A 
ATOM     21  C   UNL     1      47.656   6.701  13.545  0.00  0.00    +0.000 A 
ATOM     22  C   UNL     1      47.434   5.485  14.200  0.00  0.00    +0.000 A 
BRANCH  17  24
ATOM     23  F   UNL     1      46.616   3.888  16.925  0.00  0.00    +0.000 F 
ATOM     24  C   UNL     1      47.745   3.928  16.166  0.00  0.00    +0.000 C 
ATOM     25  F   UNL     1      48.769   3.607  17.004  0.00  0.00    +0.000 F 
ATOM     26  F   UNL     1      47.642   2.890  15.291  0.00  0.00    +0.000 F 
ENDBRANCH  17  24
ENDBRANCH  15  21
ENDBRANCH   1  15
TORSDOF 5
ENDMDL
MODEL 6
REMARK VINA RESULT:    -7.911      1.965      2.573
REMARK INTER + INTRA:         -10.944
REMARK INTER:                 -10.500
REMARK INTRA:                  -0.443
REMARK UNBOUND:                -0.721
REMARK  Name = 
REMARK  5 active torsions:
REMARK  status: ('A' for Active; 'I' for Inactive)
REMARK    1  A    between atoms: C_2  and  C_5
REMARK    2  A    between atoms: C_9  and  N_10
REMARK    3  A    between atoms: N_10  and  C_11
REMARK    4  A    between atoms: C_11  and  C_12
REMARK    5  A    between atoms: C_16  and  C_17
REMARK                            x       y       z     vdW  Elec       q    Type
REMARK                         _______ _______ _______ _____ _____    ______ ____
ROOT
ATOM      1  C   UNL     1      44.636   3.195  12.060  0.00  0.00    +0.000 C 
ENDROOT
BRANCH   1   2
ATOM      2  C   UNL     1      44.895   4.683  12.063  0.00  0.00    +0.000 A 
ATOM      3  C   UNL     1      43.834   5.590  11.960  0.00  0.00    +0.000 A 
ATOM      4  C   UNL     1      44.072   6.957  12.060  0.00  0.00    +0.000 A 
ATOM      5  C   UNL     1      45.372   7.432  12.255  0.00  0.00    +0.000 A 
ATOM      6  C   UNL     1      46.471   6.559  12.351  0.00  0.00    +0.000 A 
ATOM      7  C   UNL     1      46.203   5.179  12.233  0.00  0.00    +0.000 A 
BRANCH   6   8
ATOM      8  C   UNL     1      47.847   7.070  12.593  0.00  0.00    +0.000 A 
ATOM      9  C   UNL     1      48.570   7.738  11.585  0.00  0.00    +0.000 A 
ATOM     10  C   UNL     1      49.864   8.222  11.806  0.00  0.00    +0.000 A 
ATOM     11  C   UNL     1      50.461   8.060  13.054  0.00  0.00    +0.000 A 
ATOM     12  C   UNL     1      49.770   7.402  14.061  0.00  0.00    +0.000 A 
ATOM     13 CL   UNL     1      50.500   7.203  15.610  0.00  0.00    +0.000 Cl
ATOM     14  C   UNL     1      48.484   6.902  13.835  0.00  0.00    +0.000 A 
ENDBRANCH   6   8
ENDBRANCH   1   2
BRANCH   1  15
ATOM     15  N   UNL     1      43.995   2.766  10.826  0.00  0.00    +0.000 N 
ATOM     16  H   UNL     1      43.495   1.884  10.907  0.00  0.00    +0.000 HD
BRANCH  15  21
ATOM     17  C   UNL     1      46.203   2.153   7.864  0.00  0.00    +0.000 A 
ATOM     18  C   UNL     1      46.116   3.415   7.294  0.00  0.00    +0.000 A 
ATOM     19  N   UNL     1      45.377   4.417   7.812  0.00  0.00    +0.000 NA
ATOM     20  C   UNL     1      44.688   4.147   8.950  0.00  0.00    +0.000 A 
ATOM     21  C   UNL     1      44.667   2.912   9.608  0.00  0.00    +0.000 A 
ATOM     22  C   UNL     1      45.472   1.918   9.040  0.00  0.00    +0.000 A 
BRANCH  17  24
ATOM     23  F   UNL     1      46.906  -0.135   7.835  0.00  0.00    +0.000 F 
ATOM     24  C   UNL     1      47.045   1.085   7.246  0.00  0.00    +0.000 C 
ATOM     25  F   UNL     1      48.374   1.376   7.302  0.00  0.00    +0.000 F 
ATOM     26  F   UNL     1      46.761   0.896   5.928  0.00  0.00    +0.000 F 
ENDBRANCH  17  24
ENDBRANCH  15  21
ENDBRANCH   1  15
TORSDOF 5
ENDMDL
MODEL 7
REMARK VINA RESULT:    -7.376      5.215      7.892
REMARK INTER + INTRA:         -10.253
REMARK INTER:                  -9.493
REMARK INTRA:                  -0.760
REMARK UNBOUND:                -0.721
REMARK  Name = 
REMARK  5 active torsions:
REMARK  status: ('A' for Active; 'I' for Inactive)
REMARK    1  A    between atoms: C_2  and  C_5
REMARK    2  A    between atoms: C_9  and  N_10
REMARK    3  A    between atoms: N_10  and  C_11
REMARK    4  A    between atoms: C_11  and  C_12
REMARK    5  A    between atoms: C_16  and  C_17
REMARK                            x       y       z     vdW  Elec       q    Type
REMARK                         _______ _______ _______ _____ _____    ______ ____
ROOT
ATOM      1  C   UNL     1      48.405   7.539  13.668  0.00  0.00    +0.000 C 
ENDROOT
BRANCH   1   2
ATOM      2  C   UNL     1      47.091   7.478  12.925  0.00  0.00    +0.000 A 
ATOM      3  C   UNL     1      46.246   8.592  12.881  0.00  0.00    +0.000 A 
ATOM      4  C   UNL     1      45.084   8.557  12.116  0.00  0.00    +0.000 A 
ATOM      5  C   UNL     1      44.752   7.406  11.395  0.00  0.00    +0.000 A 
ATOM      6  C   UNL     1      45.564   6.259  11.419  0.00  0.00    +0.000 A 
ATOM      7  C   UNL     1      46.728   6.317  12.214  0.00  0.00    +0.000 A 
BRANCH   6   8
ATOM      8  C   UNL     1      45.221   5.050  10.622  0.00  0.00    +0.000 A 
ATOM      9  C   UNL     1      44.392   4.037  11.143  0.00  0.00    +0.000 A 
ATOM     10  C   UNL     1      44.066   2.899  10.398  0.00  0.00    +0.000 A 
ATOM     11  C   UNL     1      44.552   2.756   9.101  0.00  0.00    +0.000 A 
ATOM     12  C   UNL     1      45.373   3.738   8.568  0.00  0.00    +0.000 A 
ATOM     13 CL   UNL     1      45.974   3.571   6.961  0.00  0.00    +0.000 Cl
ATOM     14  C   UNL     1      45.715   4.868   9.318  0.00  0.00    +0.000 A 
ENDBRANCH   6   8
ENDBRANCH   1   2
BRANCH   1  15
ATOM     15  N   UNL     1      48.213   7.423  15.106  0.00  0.00    +0.000 N 
ATOM     16  H   UNL     1      48.235   8.314  15.597  0.00  0.00    +0.000 HD
BRANCH  15  21
ATOM     17  C   UNL     1      48.822   4.283  17.052  0.00  0.00    +0.000 A 
ATOM     18  C   UNL     1      50.150   4.513  17.380  0.00  0.00    +0.000 A 
ATOM     19  N   UNL     1      50.835   5.607  16.989  0.00  0.00    +0.000 NA
ATOM     20  C   UNL     1      50.164   6.513  16.231  0.00  0.00    +0.000 A 
ATOM     21  C   UNL     1      48.836   6.387  15.808  0.00  0.00    +0.000 A 
ATOM     22  C   UNL     1      48.169   5.246  16.265  0.00  0.00    +0.000 A 
BRANCH  17  24
ATOM     23  F   UNL     1      46.764   3.096  17.349  0.00  0.00    +0.000 F 
ATOM     24  C   UNL     1      48.114   3.054  17.521  0.00  0.00    +0.000 C 
ATOM     25  F   UNL     1      48.314   2.816  18.847  0.00  0.00    +0.000 F 
ATOM     26  F   UNL     1      48.537   1.932  16.875  0.00  0.00    +0.000 F 
ENDBRANCH  17  24
ENDBRANCH  15  21
ENDBRANCH   1  15
TORSDOF 5
ENDMDL
MODEL 8
REMARK VINA RESULT:    -7.372      2.515      3.757
REMARK INTER + INTRA:         -10.247
REMARK INTER:                  -9.517
REMARK INTRA:                  -0.731
REMARK UNBOUND:                -0.721
REMARK  Name = 
REMARK  5 active torsions:
REMARK  status: ('A' for Active; 'I' for Inactive)
REMARK    1  A    between atoms: C_2  and  C_5
REMARK    2  A    between atoms: C_9  and  N_10
REMARK    3  A    between atoms: N_10  and  C_11
REMARK    4  A    between atoms: C_11  and  C_12
REMARK    5  A    between atoms: C_16  and  C_17
REMARK                            x       y       z     vdW  Elec       q    Type
REMARK                         _______ _______ _______ _____ _____    ______ ____
ROOT
ATOM      1  C   UNL     1      45.041   5.699  11.477  0.00  0.00    +0.000 C 
ENDROOT
BRANCH   1   2
ATOM      2  C   UNL     1      45.715   7.030  11.715  0.00  0.00    +0.000 A 
ATOM      3  C   UNL     1      44.957   8.167  12.018  0.00  0.00    +0.000 A 
ATOM      4  C   UNL     1      45.591   9.366  12.329  0.00  0.00    +0.000 A 
ATOM      5  C   UNL     1      46.987   9.443  12.333  0.00  0.00    +0.000 A 
ATOM      6  C   UNL     1      47.789   8.329  12.023  0.00  0.00    +0.000 A 
ATOM      7  C   UNL     1      47.120   7.131  11.697  0.00  0.00    +0.000 A 
BRANCH   6   8
ATOM      8  C   UNL     1      49.274   8.411  12.063  0.00  0.00    +0.000 A 
ATOM      9  C   UNL     1      49.943   9.118  13.081  0.00  0.00    +0.000 A 
ATOM     10  C   UNL     1      51.340   9.198  13.124  0.00  0.00    +0.000 A 
ATOM     11  C   UNL     1      52.101   8.555  12.151  0.00  0.00    +0.000 A 
ATOM     12  C   UNL     1      51.464   7.856  11.137  0.00  0.00    +0.000 A 
ATOM     13 CL   UNL     1      52.401   7.053   9.932  0.00  0.00    +0.000 Cl
ATOM     14  C   UNL     1      50.068   7.791  11.082  0.00  0.00    +0.000 A 
ENDBRANCH   6   8
ENDBRANCH   1   2
BRANCH   1  15
ATOM     15  N   UNL     1      44.786   5.474  10.062  0.00  0.00    +0.000 N 
ATOM     16  H   UNL     1      43.905   5.863   9.736  0.00  0.00    +0.000 HD
BRANCH  15  21
ATOM     17  C   UNL     1      46.098   2.818   7.771  0.00  0.00    +0.000 A 
ATOM     18  C   UNL     1      45.434   1.736   8.328  0.00  0.00    +0.000 A 
ATOM     19  N   UNL     1      44.616   1.834   9.396  0.00  0.00    +0.000 NA
ATOM     20  C   UNL     1      44.457   3.070   9.937  0.00  0.00    +0.000 A 
ATOM     21  C   UNL     1      45.090   4.235   9.490  0.00  0.00    +0.000 A 
ATOM     22  C   UNL     1      45.906   4.077   8.364  0.00  0.00    +0.000 A 
BRANCH  17  24
ATOM     23  F   UNL     1      46.731   3.525   5.573  0.00  0.00    +0.000 F 
ATOM     24  C   UNL     1      46.987   2.648   6.582  0.00  0.00    +0.000 C 
ATOM     25  F   UNL     1      46.883   1.406   6.032  0.00  0.00    +0.000 F 
ATOM     26  F   UNL     1      48.303   2.808   6.890  0.00  0.00    +0.000 F 
ENDBRANCH  17  24
ENDBRANCH  15  21
ENDBRANCH   1  15
TORSDOF 5
ENDMDL
MODEL 9
REMARK VINA RESULT:    -7.332      2.595      3.349
REMARK INTER + INTRA:         -10.196
REMARK INTER:                  -9.426
REMARK INTRA:                  -0.770
REMARK UNBOUND:                -0.721
REMARK  Name = 
REMARK  5 active torsions:
REMARK  status: ('A' for Active; 'I' for Inactive)
REMARK    1  A    between atoms: C_2  and  C_5
REMARK    2  A    between atoms: C_9  and  N_10
REMARK    3  A    between atoms: N_10  and  C_11
REMARK    4  A    between atoms: C_11  and  C_12
REMARK    5  A    between atoms: C_16  and  C_17
REMARK                            x       y       z     vdW  Elec       q    Type
REMARK                         _______ _______ _______ _____ _____    ______ ____
ROOT
ATOM      1  C   UNL     1      45.131   6.290  10.330  0.00  0.00    +0.000 C 
ENDROOT
BRANCH   1   2
ATOM      2  C   UNL     1      45.913   6.102  11.609  0.00  0.00    +0.000 A 
ATOM      3  C   UNL     1      45.475   5.199  12.584  0.00  0.00    +0.000 A 
ATOM      4  C   UNL     1      46.251   4.963  13.715  0.00  0.00    +0.000 A 
ATOM      5  C   UNL     1      47.466   5.632  13.886  0.00  0.00    +0.000 A 
ATOM      6  C   UNL     1      47.940   6.558  12.939  0.00  0.00    +0.000 A 
ATOM      7  C   UNL     1      47.127   6.788  11.810  0.00  0.00    +0.000 A 
BRANCH   6   8
ATOM      8  C   UNL     1      49.250   7.240  13.113  0.00  0.00    +0.000 A 
ATOM      9  C   UNL     1      49.963   7.753  12.011  0.00  0.00    +0.000 A 
ATOM     10  C   UNL     1      51.195   8.397  12.168  0.00  0.00    +0.000 A 
ATOM     11  C   UNL     1      51.738   8.554  13.441  0.00  0.00    +0.000 A 
ATOM     12  C   UNL     1      51.057   8.054  14.540  0.00  0.00    +0.000 A 
ATOM     13 CL   UNL     1      51.720   8.250  16.119  0.00  0.00    +0.000 Cl
ATOM     14  C   UNL     1      49.834   7.395  14.383  0.00  0.00    +0.000 A 
ENDBRANCH   6   8
ENDBRANCH   1   2
BRANCH   1  15
ATOM     15  N   UNL     1      44.264   5.153  10.061  0.00  0.00    +0.000 N 
ATOM     16  H   UNL     1      43.610   4.948  10.813  0.00  0.00    +0.000 HD
BRANCH  15  21
ATOM     17  C   UNL     1      46.053   2.850   7.711  0.00  0.00    +0.000 A 
ATOM     18  C   UNL     1      45.583   1.650   8.222  0.00  0.00    +0.000 A 
ATOM     19  N   UNL     1      44.748   1.565   9.277  0.00  0.00    +0.000 NA
ATOM     20  C   UNL     1      44.367   2.734   9.854  0.00  0.00    +0.000 A 
ATOM     21  C   UNL     1      44.789   4.007   9.456  0.00  0.00    +0.000 A 
ATOM     22  C   UNL     1      45.633   4.035   8.340  0.00  0.00    +0.000 A 
BRANCH  17  24
ATOM     23  F   UNL     1      46.776   3.946   5.709  0.00  0.00    +0.000 F 
ATOM     24  C   UNL     1      46.972   2.881   6.534  0.00  0.00    +0.000 C 
ATOM     25  F   UNL     1      46.845   1.774   5.750  0.00  0.00    +0.000 F 
ATOM     26  F   UNL     1      48.283   2.929   6.899  0.00  0.00    +0.000 F 
ENDBRANCH  17  24
ENDBRANCH  15  21
ENDBRANCH   1  15
TORSDOF 5
ENDMDL
