MODEL 1
REMARK VINA RESULT:    -8.438      0.000      0.000
REMARK INTER + INTRA:         -13.820
REMARK INTER:                 -12.384
REMARK INTRA:                  -1.436
REMARK UNBOUND:                -1.436
REMARK  Name = 
REMARK  9 active torsions:
REMARK  status: ('A' for Active; 'I' for Inactive)
REMARK    1  A    between atoms: C_1  and  O_2
REMARK    2  A    between atoms: O_2  and  C_3
REMARK    3  A    between atoms: C_10  and  C_11
REMARK    4  A    between atoms: N_13  and  C_14
REMARK    5  A    between atoms: C_14  and  C_15
REMARK    6  A    between atoms: C_18  and  C_19
REMARK    7  A    between atoms: C_19  and  O_20
REMARK    8  A    between atoms: O_20  and  C_21
REMARK    9  A    between atoms: C_21  and  C_22
REMARK                            x       y       z     vdW  Elec       q    Type
REMARK                         _______ _______ _______ _____ _____    ______ ____
ROOT
ATOM      1  C   UNL     1      47.093   8.205  13.398  0.00  0.00    +0.000 C 
ENDROOT
BRANCH   1   2
ATOM      2  C   UNL     1      46.257   7.347  12.491  0.00  0.00    +0.000 A 
ATOM      3  C   UNL     1      46.811   6.689  11.390  0.00  0.00    +0.000 A 
ATOM      4  C   UNL     1      46.025   5.830  10.624  0.00  0.00    +0.000 A 
ATOM      5  C   UNL     1      44.687   5.646  10.969  0.00  0.00    +0.000 A 
ATOM      6  N   UNL     1      44.127   6.275  12.035  0.00  0.00    +0.000 NA
ATOM      7  C   UNL     1      44.918   7.098  12.766  0.00  0.00    +0.000 A 
BRANCH   5   8
ATOM      8  C   UNL     1      43.817   4.699  10.171  0.00  0.00    +0.000 C 
BRANCH   8   9
ATOM      9  O   UNL     1      44.611   3.620   9.672  0.00  0.00    +0.000 OA
BRANCH   9  10
ATOM     10  C   UNL     1      44.645   3.602   8.244  0.00  0.00    +0.000 C 
BRANCH  10  11
ATOM     11  C   UNL     1      45.846   2.824   7.767  0.00  0.00    +0.000 A 
ATOM     12  C   UNL     1      46.013   1.475   8.095  0.00  0.00    +0.000 A 
ATOM     13  C   UNL     1      47.122   0.799   7.613  0.00  0.00    +0.000 A 
ATOM     14  N   UNL     1      48.060   1.361   6.822  0.00  0.00    +0.000 NA
ATOM     15  C   UNL     1      47.874   2.658   6.497  0.00  0.00    +0.000 A 
ATOM     16  C   UNL     1      46.797   3.419   6.932  0.00  0.00    +0.000 A 
ENDBRANCH  10  11
ENDBRANCH   9  10
ENDBRANCH   8   9
ENDBRANCH   5   8
ENDBRANCH   1   2
BRANCH   1  19
ATOM     17  C   UNL     1      48.761   6.894  14.662  0.00  0.00    +0.000 C 
ATOM     18  O   UNL     1      49.592   6.999  13.759  0.00  0.00    +0.000 OA
ATOM     19  N   UNL     1      47.520   7.451  14.553  0.00  0.00    +0.000 N 
ATOM     20  H   UNL     1      46.841   7.305  15.287  0.00  0.00    +0.000 HD
BRANCH  17  28
ATOM     21  C   UNL     1      47.270   4.228  16.255  0.00  0.00    +0.000 A 
ATOM     22  N   UNL     1      46.895   3.223  17.068  0.00  0.00    +0.000 NA
ATOM     23  C   UNL     1      47.614   3.009  18.173  0.00  0.00    +0.000 A 
ATOM     24  N   UNL     1      48.684   3.687  18.576  0.00  0.00    +0.000 NA
ATOM     25  C   UNL     1      49.029   4.675  17.733  0.00  0.00    +0.000 A 
ATOM     26  S   UNL     1      50.374   5.648  18.086  0.00  0.00    +0.000 S 
ATOM     27  C   UNL     1      50.149   6.564  16.674  0.00  0.00    +0.000 A 
ATOM     28  C   UNL     1      49.062   6.158  15.906  0.00  0.00    +0.000 A 
ATOM     29  C   UNL     1      48.392   5.024  16.545  0.00  0.00    +0.000 A 
BRANCH  21  31
ATOM     30  C   UNL     1      47.050   3.683  13.986  0.00  0.00    +0.000 C 
ATOM     31  O   UNL     1      46.550   4.427  15.095  0.00  0.00    +0.000 OA
ENDBRANCH  21  31
ENDBRANCH  17  28
ENDBRANCH   1  19
TORSDOF 8
ENDMDL
MODEL 2
REMARK VINA RESULT:    -7.614      1.791      2.083
REMARK INTER + INTRA:         -12.611
REMARK INTER:                 -11.385
REMARK INTRA:                  -1.227
REMARK UNBOUND:                -1.436
REMARK  Name = 
REMARK  9 active torsions:
REMARK  status: ('A' for Active; 'I' for Inactive)
REMARK    1  A    between atoms: C_1  and  O_2
REMARK    2  A    between atoms: O_2  and  C_3
REMARK    3  A    between atoms: C_10  and  C_11
REMARK    4  A    between atoms: N_13  and  C_14
REMARK    5  A    between atoms: C_14  and  C_15
REMARK    6  A    between atoms: C_18  and  C_19
REMARK    7  A    between atoms: C_19  and  O_20
REMARK    8  A    between atoms: O_20  and  C_21
REMARK    9  A    between atoms: C_21  and  C_22
REMARK                            x       y       z     vdW  Elec       q    Type
REMARK                         _______ _______ _______ _____ _____    ______ ____
ROOT
ATOM      1  C   UNL     1      47.979   6.821  13.256  0.00  0.00    +0.000 C 
ENDROOT
BRANCH   1   2
ATOM      2  C   UNL     1      46.816   6.018  12.744  0.00  0.00    +0.000 A 
ATOM      3  C   UNL     1      46.200   6.316  11.526  0.00  0.00    +0.000 A 
ATOM      4  C   UNL     1      45.184   5.495  11.040  0.00  0.00    +0.000 A 
ATOM      5  C   UNL     1      44.793   4.385  11.787  0.00  0.00    +0.000 A 
ATOM      6  N   UNL     1      45.378   4.075  12.974  0.00  0.00    +0.000 NA
ATOM      7  C   UNL     1      46.369   4.887  13.417  0.00  0.00    +0.000 A 
BRANCH   5   8
ATOM      8  C   UNL     1      43.711   3.461  11.271  0.00  0.00    +0.000 C 
BRANCH   8   9
ATOM      9  O   UNL     1      43.844   3.306   9.856  0.00  0.00    +0.000 OA
BRANCH   9  10
ATOM     10  C   UNL     1      44.453   2.060   9.514  0.00  0.00    +0.000 C 
BRANCH  10  11
ATOM     11  C   UNL     1      45.561   2.285   8.515  0.00  0.00    +0.000 A 
ATOM     12  C   UNL     1      46.374   1.231   8.085  0.00  0.00    +0.000 A 
ATOM     13  C   UNL     1      47.362   1.486   7.148  0.00  0.00    +0.000 A 
ATOM     14  N   UNL     1      47.588   2.700   6.603  0.00  0.00    +0.000 NA
ATOM     15  C   UNL     1      46.781   3.703   7.013  0.00  0.00    +0.000 A 
ATOM     16  C   UNL     1      45.766   3.546   7.947  0.00  0.00    +0.000 A 
ENDBRANCH  10  11
ENDBRANCH   9  10
ENDBRANCH   8   9
ENDBRANCH   5   8
ENDBRANCH   1   2
BRANCH   1  19
ATOM     17  C   UNL     1      48.964   6.879  15.519  0.00  0.00    +0.000 C 
ATOM     18  O   UNL     1      50.088   6.626  15.084  0.00  0.00    +0.000 OA
ATOM     19  N   UNL     1      47.888   6.984  14.687  0.00  0.00    +0.000 N 
ATOM     20  H   UNL     1      46.969   7.141  15.078  0.00  0.00    +0.000 HD
BRANCH  17  28
ATOM     21  C   UNL     1      48.818   4.740  18.215  0.00  0.00    +0.000 A 
ATOM     22  N   UNL     1      48.710   4.142  19.417  0.00  0.00    +0.000 NA
ATOM     23  C   UNL     1      48.442   4.908  20.477  0.00  0.00    +0.000 A 
ATOM     24  N   UNL     1      48.266   6.226  20.488  0.00  0.00    +0.000 NA
ATOM     25  C   UNL     1      48.391   6.785  19.273  0.00  0.00    +0.000 A 
ATOM     26  S   UNL     1      48.198   8.462  19.095  0.00  0.00    +0.000 S 
ATOM     27  C   UNL     1      48.477   8.370  17.423  0.00  0.00    +0.000 A 
ATOM     28  C   UNL     1      48.723   7.081  16.961  0.00  0.00    +0.000 A 
ATOM     29  C   UNL     1      48.670   6.131  18.075  0.00  0.00    +0.000 A 
BRANCH  21  31
ATOM     30  C   UNL     1      47.985   3.408  16.476  0.00  0.00    +0.000 C 
ATOM     31  O   UNL     1      49.131   3.955  17.125  0.00  0.00    +0.000 OA
ENDBRANCH  21  31
ENDBRANCH  17  28
ENDBRANCH   1  19
TORSDOF 8
ENDMDL
MODEL 3
REMARK VINA RESULT:    -7.501      2.146      2.760
REMARK INTER + INTRA:         -12.445
REMARK INTER:                 -11.535
REMARK INTRA:                  -0.910
REMARK UNBOUND:                -1.436
REMARK  Name = 
REMARK  9 active torsions:
REMARK  status: ('A' for Active; 'I' for Inactive)
REMARK    1  A    between atoms: C_1  and  O_2
REMARK    2  A    between atoms: O_2  and  C_3
REMARK    3  A    between atoms: C_10  and  C_11
REMARK    4  A    between atoms: N_13  and  C_14
REMARK    5  A    between atoms: C_14  and  C_15
REMARK    6  A    between atoms: C_18  and  C_19
REMARK    7  A    between atoms: C_19  and  O_20
REMARK    8  A    between atoms: O_20  and  C_21
REMARK    9  A    between atoms: C_21  and  C_22
REMARK                            x       y       z     vdW  Elec       q    Type
REMARK                         _______ _______ _______ _____ _____    ______ ____
ROOT
ATOM      1  C   UNL     1      48.041   6.628  13.569  0.00  0.00    +0.000 C 
ENDROOT
BRANCH   1   2
ATOM      2  C   UNL     1      46.871   6.096  12.791  0.00  0.00    +0.000 A 
ATOM      3  C   UNL     1      46.303   6.818  11.737  0.00  0.00    +0.000 A 
ATOM      4  C   UNL     1      45.278   6.253  10.979  0.00  0.00    +0.000 A 
ATOM      5  C   UNL     1      44.829   4.972  11.293  0.00  0.00    +0.000 A 
ATOM      6  N   UNL     1      45.366   4.252  12.313  0.00  0.00    +0.000 NA
ATOM      7  C   UNL     1      46.367   4.823  13.026  0.00  0.00    +0.000 A 
BRANCH   5   8
ATOM      8  C   UNL     1      43.736   4.324  10.470  0.00  0.00    +0.000 C 
BRANCH   8   9
ATOM      9  O   UNL     1      44.293   3.289   9.659  0.00  0.00    +0.000 OA
BRANCH   9  10
ATOM     10  C   UNL     1      44.756   3.790   8.404  0.00  0.00    +0.000 C 
BRANCH  10  11
ATOM     11  C   UNL     1      45.838   2.890   7.857  0.00  0.00    +0.000 A 
ATOM     12  C   UNL     1      45.922   1.547   8.235  0.00  0.00    +0.000 A 
ATOM     13  C   UNL     1      46.920   0.757   7.687  0.00  0.00    +0.000 A 
ATOM     14  N   UNL     1      47.821   1.202   6.786  0.00  0.00    +0.000 NA
ATOM     15  C   UNL     1      47.713   2.496   6.415  0.00  0.00    +0.000 A 
ATOM     16  C   UNL     1      46.750   3.364   6.909  0.00  0.00    +0.000 A 
ENDBRANCH  10  11
ENDBRANCH   9  10
ENDBRANCH   8   9
ENDBRANCH   5   8
ENDBRANCH   1   2
BRANCH   1  19
ATOM     17  C   UNL     1      48.987   6.327  15.830  0.00  0.00    +0.000 C 
ATOM     18  O   UNL     1      50.090   6.739  15.471  0.00  0.00    +0.000 OA
ATOM     19  N   UNL     1      47.942   6.241  14.956  0.00  0.00    +0.000 N 
ATOM     20  H   UNL     1      47.063   5.850  15.266  0.00  0.00    +0.000 HD
BRANCH  17  28
ATOM     21  C   UNL     1      47.909   7.986  18.649  0.00  0.00    +0.000 A 
ATOM     22  N   UNL     1      47.515   8.380  19.875  0.00  0.00    +0.000 NA
ATOM     23  C   UNL     1      47.496   7.468  20.851  0.00  0.00    +0.000 A 
ATOM     24  N   UNL     1      47.828   6.184  20.753  0.00  0.00    +0.000 NA
ATOM     25  C   UNL     1      48.206   5.830  19.514  0.00  0.00    +0.000 A 
ATOM     26  S   UNL     1      48.665   4.227  19.201  0.00  0.00    +0.000 S 
ATOM     27  C   UNL     1      48.974   4.577  17.568  0.00  0.00    +0.000 A 
ATOM     28  C   UNL     1      48.737   5.904  17.222  0.00  0.00    +0.000 A 
ATOM     29  C   UNL     1      48.276   6.653  18.392  0.00  0.00    +0.000 A 
BRANCH  21  31
ATOM     30  C   UNL     1      49.098   9.676  17.544  0.00  0.00    +0.000 C 
ATOM     31  O   UNL     1      47.894   8.918  17.633  0.00  0.00    +0.000 OA
ENDBRANCH  21  31
ENDBRANCH  17  28
ENDBRANCH   1  19
TORSDOF 8
ENDMDL
MODEL 4
REMARK VINA RESULT:    -7.400      2.003      3.807
REMARK INTER + INTRA:         -12.297
REMARK INTER:                 -10.925
REMARK INTRA:                  -1.372
REMARK UNBOUND:                -1.436
REMARK  Name = 
REMARK  9 active torsions:
REMARK  status: ('A' for Active; 'I' for Inactive)
REMARK    1  A    between atoms: C_1  and  O_2
REMARK    2  A    between atoms: O_2  and  C_3
REMARK    3  A    between atoms: C_10  and  C_11
REMARK    4  A    between atoms: N_13  and  C_14
REMARK    5  A    between atoms: C_14  and  C_15
REMARK    6  A    between atoms: C_18  and  C_19
REMARK    7  A    between atoms: C_19  and  O_20
REMARK    8  A    between atoms: O_20  and  C_21
REMARK    9  A    between atoms: C_21  and  C_22
REMARK                            x       y       z     vdW  Elec       q    Type
REMARK                         _______ _______ _______ _____ _____    ______ ____
ROOT
ATOM      1  C   UNL     1      47.148   4.397  14.975  0.00  0.00    +0.000 C 
ENDROOT
BRANCH   1   2
ATOM      2  C   UNL     1      46.346   4.405  13.704  0.00  0.00    +0.000 A 
ATOM      3  C   UNL     1      46.110   3.234  12.980  0.00  0.00    +0.000 A 
ATOM      4  C   UNL     1      45.285   3.264  11.856  0.00  0.00    +0.000 A 
ATOM      5  C   UNL     1      44.712   4.473  11.468  0.00  0.00    +0.000 A 
ATOM      6  N   UNL     1      44.927   5.624  12.157  0.00  0.00    +0.000 NA
ATOM      7  C   UNL     1      45.726   5.563  13.250  0.00  0.00    +0.000 A 
BRANCH   5   8
ATOM      8  C   UNL     1      43.792   4.530  10.267  0.00  0.00    +0.000 C 
BRANCH   8   9
ATOM      9  O   UNL     1      44.142   3.498   9.343  0.00  0.00    +0.000 OA
BRANCH   9  10
ATOM     10  C   UNL     1      44.843   4.014   8.211  0.00  0.00    +0.000 C 
BRANCH  10  11
ATOM     11  C   UNL     1      45.892   3.027   7.760  0.00  0.00    +0.000 A 
ATOM     12  C   UNL     1      46.969   3.428   6.965  0.00  0.00    +0.000 A 
ATOM     13  C   UNL     1      47.918   2.488   6.597  0.00  0.00    +0.000 A 
ATOM     14  N   UNL     1      47.879   1.193   6.974  0.00  0.00    +0.000 NA
ATOM     15  C   UNL     1      46.844   0.826   7.759  0.00  0.00    +0.000 A 
ATOM     16  C   UNL     1      45.845   1.694   8.178  0.00  0.00    +0.000 A 
ENDBRANCH  10  11
ENDBRANCH   9  10
ENDBRANCH   8   9
ENDBRANCH   5   8
ENDBRANCH   1   2
BRANCH   1  19
ATOM     17  C   UNL     1      48.631   6.013  16.110  0.00  0.00    +0.000 C 
ATOM     18  O   UNL     1      49.333   5.112  16.571  0.00  0.00    +0.000 OA
ATOM     19  N   UNL     1      47.547   5.739  15.327  0.00  0.00    +0.000 N 
ATOM     20  H   UNL     1      46.960   6.496  15.006  0.00  0.00    +0.000 HD
BRANCH  17  28
ATOM     21  C   UNL     1      48.771   8.819  14.118  0.00  0.00    +0.000 A 
ATOM     22  N   UNL     1      48.891  10.049  13.582  0.00  0.00    +0.000 NA
ATOM     23  C   UNL     1      49.224  11.056  14.393  0.00  0.00    +0.000 A 
ATOM     24  N   UNL     1      49.456  10.989  15.701  0.00  0.00    +0.000 NA
ATOM     25  C   UNL     1      49.317   9.747  16.197  0.00  0.00    +0.000 A 
ATOM     26  S   UNL     1      49.575   9.471  17.851  0.00  0.00    +0.000 S 
ATOM     27  C   UNL     1      49.241   7.814  17.680  0.00  0.00    +0.000 A 
ATOM     28  C   UNL     1      48.926   7.434  16.380  0.00  0.00    +0.000 A 
ATOM     29  C   UNL     1      48.973   8.597  15.491  0.00  0.00    +0.000 A 
BRANCH  21  31
ATOM     30  C   UNL     1      49.407   7.402  12.363  0.00  0.00    +0.000 C 
ATOM     31  O   UNL     1      48.391   7.785  13.288  0.00  0.00    +0.000 OA
ENDBRANCH  21  31
ENDBRANCH  17  28
ENDBRANCH   1  19
TORSDOF 8
ENDMDL
MODEL 5
REMARK VINA RESULT:    -7.232      2.570      3.426
REMARK INTER + INTRA:         -12.051
REMARK INTER:                 -11.075
REMARK INTRA:                  -0.976
REMARK UNBOUND:                -1.436
REMARK  Name = 
REMARK  9 active torsions:
REMARK  status: ('A' for Active; 'I' for Inactive)
REMARK    1  A    between atoms: C_1  and  O_2
REMARK    2  A    between atoms: O_2  and  C_3
REMARK    3  A    between atoms: C_10  and  C_11
REMARK    4  A    between atoms: N_13  and  C_14
REMARK    5  A    between atoms: C_14  and  C_15
REMARK    6  A    between atoms: C_18  and  C_19
REMARK    7  A    between atoms: C_19  and  O_20
REMARK    8  A    between atoms: O_20  and  C_21
REMARK    9  A    between atoms: C_21  and  C_22
REMARK                            x       y       z     vdW  Elec       q    Type
REMARK                         _______ _______ _______ _____ _____    ______ ____
ROOT
ATOM      1  C   UNL     1      47.255   4.293  14.884  0.00  0.00    +0.000 C 
ENDROOT
BRANCH   1   2
ATOM      2  C   UNL     1      46.291   4.383  13.735  0.00  0.00    +0.000 A 
ATOM      3  C   UNL     1      45.737   5.603  13.339  0.00  0.00    +0.000 A 
ATOM      4  C   UNL     1      44.917   5.663  12.212  0.00  0.00    +0.000 A 
ATOM      5  C   UNL     1      44.658   4.494  11.500  0.00  0.00    +0.000 A 
ATOM      6  N   UNL     1      45.186   3.297  11.867  0.00  0.00    +0.000 NA
ATOM      7  C   UNL     1      45.985   3.271  12.960  0.00  0.00    +0.000 A 
BRANCH   5   8
ATOM      8  C   UNL     1      43.793   4.534  10.258  0.00  0.00    +0.000 C 
BRANCH   8   9
ATOM      9  O   UNL     1      44.243   3.547   9.327  0.00  0.00    +0.000 OA
BRANCH   9  10
ATOM     10  C   UNL     1      45.081   4.112   8.318  0.00  0.00    +0.000 C 
BRANCH  10  11
ATOM     11  C   UNL     1      45.985   3.049   7.745  0.00  0.00    +0.000 A 
ATOM     12  C   UNL     1      46.019   1.759   8.282  0.00  0.00    +0.000 A 
ATOM     13  C   UNL     1      46.850   0.813   7.704  0.00  0.00    +0.000 A 
ATOM     14  N   UNL     1      47.631   1.053   6.630  0.00  0.00    +0.000 NA
ATOM     15  C   UNL     1      47.571   2.298   6.109  0.00  0.00    +0.000 A 
ATOM     16  C   UNL     1      46.772   3.312   6.618  0.00  0.00    +0.000 A 
ENDBRANCH  10  11
ENDBRANCH   9  10
ENDBRANCH   8   9
ENDBRANCH   5   8
ENDBRANCH   1   2
BRANCH   1  19
ATOM     17  C   UNL     1      48.629   5.872  16.194  0.00  0.00    +0.000 C 
ATOM     18  O   UNL     1      49.413   4.983  16.527  0.00  0.00    +0.000 OA
ATOM     19  N   UNL     1      47.552   5.608  15.399  0.00  0.00    +0.000 N 
ATOM     20  H   UNL     1      46.897   6.348  15.184  0.00  0.00    +0.000 HD
BRANCH  17  28
ATOM     21  C   UNL     1      47.701   7.594  19.029  0.00  0.00    +0.000 A 
ATOM     22  N   UNL     1      47.467   8.487  20.010  0.00  0.00    +0.000 NA
ATOM     23  C   UNL     1      47.902   9.737  19.836  0.00  0.00    +0.000 A 
ATOM     24  N   UNL     1      48.557  10.219  18.784  0.00  0.00    +0.000 NA
ATOM     25  C   UNL     1      48.778   9.295  17.833  0.00  0.00    +0.000 A 
ATOM     26  S   UNL     1      49.602   9.730  16.415  0.00  0.00    +0.000 S 
ATOM     27  C   UNL     1      49.474   8.155  15.794  0.00  0.00    +0.000 A 
ATOM     28  C   UNL     1      48.813   7.268  16.638  0.00  0.00    +0.000 A 
ATOM     29  C   UNL     1      48.396   7.956  17.861  0.00  0.00    +0.000 A 
BRANCH  21  31
ATOM     30  C   UNL     1      48.205   5.514  19.983  0.00  0.00    +0.000 C 
ATOM     31  O   UNL     1      47.285   6.294  19.223  0.00  0.00    +0.000 OA
ENDBRANCH  21  31
ENDBRANCH  17  28
ENDBRANCH   1  19
TORSDOF 8
ENDMDL
MODEL 6
REMARK VINA RESULT:    -7.175      2.031      3.370
REMARK INTER + INTRA:         -11.967
REMARK INTER:                 -10.957
REMARK INTRA:                  -1.011
REMARK UNBOUND:                -1.436
REMARK  Name = 
REMARK  9 active torsions:
REMARK  status: ('A' for Active; 'I' for Inactive)
REMARK    1  A    between atoms: C_1  and  O_2
REMARK    2  A    between atoms: O_2  and  C_3
REMARK    3  A    between atoms: C_10  and  C_11
REMARK    4  A    between atoms: N_13  and  C_14
REMARK    5  A    between atoms: C_14  and  C_15
REMARK    6  A    between atoms: C_18  and  C_19
REMARK    7  A    between atoms: C_19  and  O_20
REMARK    8  A    between atoms: O_20  and  C_21
REMARK    9  A    between atoms: C_21  and  C_22
REMARK                            x       y       z     vdW  Elec       q    Type
REMARK                         _______ _______ _______ _____ _____    ______ ____
ROOT
ATOM      1  C   UNL     1      47.159   3.687  14.953  0.00  0.00    +0.000 C 
ENDROOT
BRANCH   1   2
ATOM      2  C   UNL     1      46.528   4.235  13.704  0.00  0.00    +0.000 A 
ATOM      3  C   UNL     1      46.810   5.524  13.247  0.00  0.00    +0.000 A 
ATOM      4  C   UNL     1      46.277   5.966  12.036  0.00  0.00    +0.000 A 
ATOM      5  C   UNL     1      45.460   5.108  11.302  0.00  0.00    +0.000 A 
ATOM      6  N   UNL     1      45.172   3.850  11.727  0.00  0.00    +0.000 NA
ATOM      7  C   UNL     1      45.712   3.445  12.902  0.00  0.00    +0.000 A 
BRANCH   5   8
ATOM      8  C   UNL     1      44.889   5.551   9.972  0.00  0.00    +0.000 C 
BRANCH   8   9
ATOM      9  O   UNL     1      45.664   4.997   8.906  0.00  0.00    +0.000 OA
BRANCH   9  10
ATOM     10  C   UNL     1      44.994   3.905   8.275  0.00  0.00    +0.000 C 
BRANCH  10  11
ATOM     11  C   UNL     1      46.003   2.969   7.657  0.00  0.00    +0.000 A 
ATOM     12  C   UNL     1      46.169   1.665   8.134  0.00  0.00    +0.000 A 
ATOM     13  C   UNL     1      47.092   0.837   7.517  0.00  0.00    +0.000 A 
ATOM     14  N   UNL     1      47.845   1.207   6.459  0.00  0.00    +0.000 NA
ATOM     15  C   UNL     1      47.659   2.462   5.997  0.00  0.00    +0.000 A 
ATOM     16  C   UNL     1      46.759   3.364   6.549  0.00  0.00    +0.000 A 
ENDBRANCH  10  11
ENDBRANCH   9  10
ENDBRANCH   8   9
ENDBRANCH   5   8
ENDBRANCH   1   2
BRANCH   1  19
ATOM     17  C   UNL     1      47.576   4.564  17.223  0.00  0.00    +0.000 C 
ATOM     18  O   UNL     1      47.421   3.451  17.729  0.00  0.00    +0.000 OA
ATOM     19  N   UNL     1      47.458   4.754  15.877  0.00  0.00    +0.000 N 
ATOM     20  H   UNL     1      47.539   5.687  15.496  0.00  0.00    +0.000 HD
BRANCH  17  28
ATOM     21  C   UNL     1      49.405   7.424  16.644  0.00  0.00    +0.000 A 
ATOM     22  N   UNL     1      50.046   8.608  16.684  0.00  0.00    +0.000 NA
ATOM     23  C   UNL     1      49.990   9.313  17.817  0.00  0.00    +0.000 A 
ATOM     24  N   UNL     1      49.360   8.978  18.938  0.00  0.00    +0.000 NA
ATOM     25  C   UNL     1      48.726   7.796  18.853  0.00  0.00    +0.000 A 
ATOM     26  S   UNL     1      47.866   7.206  20.192  0.00  0.00    +0.000 S 
ATOM     27  C   UNL     1      47.413   5.802  19.350  0.00  0.00    +0.000 A 
ATOM     28  C   UNL     1      47.895   5.747  18.046  0.00  0.00    +0.000 A 
ATOM     29  C   UNL     1      48.683   6.946  17.751  0.00  0.00    +0.000 A 
BRANCH  21  31
ATOM     30  C   UNL     1      50.037   7.427  14.387  0.00  0.00    +0.000 C 
ATOM     31  O   UNL     1      49.431   6.713  15.462  0.00  0.00    +0.000 OA
ENDBRANCH  21  31
ENDBRANCH  17  28
ENDBRANCH   1  19
TORSDOF 8
ENDMDL
MODEL 7
REMARK VINA RESULT:    -6.787      1.876      2.205
REMARK INTER + INTRA:         -11.397
REMARK INTER:                 -10.336
REMARK INTRA:                  -1.061
REMARK UNBOUND:                -1.436
REMARK  Name = 
REMARK  9 active torsions:
REMARK  status: ('A' for Active; 'I' for Inactive)
REMARK    1  A    between atoms: C_1  and  O_2
REMARK    2  A    between atoms: O_2  and  C_3
REMARK    3  A    between atoms: C_10  and  C_11
REMARK    4  A    between atoms: N_13  and  C_14
REMARK    5  A    between atoms: C_14  and  C_15
REMARK    6  A    between atoms: C_18  and  C_19
REMARK    7  A    between atoms: C_19  and  O_20
REMARK    8  A    between atoms: O_20  and  C_21
REMARK    9  A    between atoms: C_21  and  C_22
REMARK                            x       y       z     vdW  Elec       q    Type
REMARK                         _______ _______ _______ _____ _____    ______ ____
ROOT
ATOM      1  C   UNL     1      48.142   7.644  14.720  0.00  0.00    +0.000 C 
ENDROOT
BRANCH   1   2
ATOM      2  C   UNL     1      47.308   6.879  13.731  0.00  0.00    +0.000 A 
ATOM      3  C   UNL     1      47.208   5.486  13.780  0.00  0.00    +0.000 A 
ATOM      4  C   UNL     1      46.354   4.818  12.903  0.00  0.00    +0.000 A 
ATOM      5  C   UNL     1      45.614   5.557  11.982  0.00  0.00    +0.000 A 
ATOM      6  N   UNL     1      45.695   6.912  11.917  0.00  0.00    +0.000 NA
ATOM      7  C   UNL     1      46.527   7.535  12.787  0.00  0.00    +0.000 A 
BRANCH   5   8
ATOM      8  C   UNL     1      44.659   4.861  11.036  0.00  0.00    +0.000 C 
BRANCH   8   9
ATOM      9  O   UNL     1      45.091   3.516  10.820  0.00  0.00    +0.000 OA
BRANCH   9  10
ATOM     10  C   UNL     1      44.457   2.932   9.681  0.00  0.00    +0.000 C 
BRANCH  10  11
ATOM     11  C   UNL     1      45.480   2.657   8.606  0.00  0.00    +0.000 A 
ATOM     12  C   UNL     1      46.010   1.376   8.421  0.00  0.00    +0.000 A 
ATOM     13  C   UNL     1      46.929   1.171   7.405  0.00  0.00    +0.000 A 
ATOM     14  N   UNL     1      47.343   2.137   6.559  0.00  0.00    +0.000 NA
ATOM     15  C   UNL     1      46.806   3.363   6.737  0.00  0.00    +0.000 A 
ATOM     16  C   UNL     1      45.881   3.667   7.726  0.00  0.00    +0.000 A 
ENDBRANCH  10  11
ENDBRANCH   9  10
ENDBRANCH   8   9
ENDBRANCH   5   8
ENDBRANCH   1   2
BRANCH   1  19
ATOM     17  C   UNL     1      49.223   6.534  16.643  0.00  0.00    +0.000 C 
ATOM     18  O   UNL     1      48.432   7.044  17.438  0.00  0.00    +0.000 OA
ATOM     19  N   UNL     1      49.145   6.786  15.304  0.00  0.00    +0.000 N 
ATOM     20  H   UNL     1      49.839   6.395  14.682  0.00  0.00    +0.000 HD
BRANCH  17  28
ATOM     21  C   UNL     1      49.535   3.106  16.748  0.00  0.00    +0.000 A 
ATOM     22  N   UNL     1      49.913   1.822  16.899  0.00  0.00    +0.000 NA
ATOM     23  C   UNL     1      51.114   1.581  17.431  0.00  0.00    +0.000 A 
ATOM     24  N   UNL     1      52.005   2.480  17.839  0.00  0.00    +0.000 NA
ATOM     25  C   UNL     1      51.593   3.747  17.662  0.00  0.00    +0.000 A 
ATOM     26  S   UNL     1      52.602   5.030  18.126  0.00  0.00    +0.000 S 
ATOM     27  C   UNL     1      51.457   6.181  17.625  0.00  0.00    +0.000 A 
ATOM     28  C   UNL     1      50.295   5.628  17.097  0.00  0.00    +0.000 A 
ATOM     29  C   UNL     1      50.380   4.166  17.121  0.00  0.00    +0.000 A 
BRANCH  21  31
ATOM     30  C   UNL     1      47.244   3.443  17.107  0.00  0.00    +0.000 C 
ATOM     31  O   UNL     1      48.310   3.356  16.165  0.00  0.00    +0.000 OA
ENDBRANCH  21  31
ENDBRANCH  17  28
ENDBRANCH   1  19
TORSDOF 8
ENDMDL
MODEL 8
REMARK VINA RESULT:    -6.742      1.857      2.321
REMARK INTER + INTRA:         -11.332
REMARK INTER:                 -10.123
REMARK INTRA:                  -1.209
REMARK UNBOUND:                -1.436
REMARK  Name = 
REMARK  9 active torsions:
REMARK  status: ('A' for Active; 'I' for Inactive)
REMARK    1  A    between atoms: C_1  and  O_2
REMARK    2  A    between atoms: O_2  and  C_3
REMARK    3  A    between atoms: C_10  and  C_11
REMARK    4  A    between atoms: N_13  and  C_14
REMARK    5  A    between atoms: C_14  and  C_15
REMARK    6  A    between atoms: C_18  and  C_19
REMARK    7  A    between atoms: C_19  and  O_20
REMARK    8  A    between atoms: O_20  and  C_21
REMARK    9  A    between atoms: C_21  and  C_22
REMARK                            x       y       z     vdW  Elec       q    Type
REMARK                         _______ _______ _______ _____ _____    ______ ____
ROOT
ATOM      1  C   UNL     1      46.728   8.091  13.181  0.00  0.00    +0.000 C 
ENDROOT
BRANCH   1   2
ATOM      2  C   UNL     1      45.935   6.914  12.689  0.00  0.00    +0.000 A 
ATOM      3  C   UNL     1      45.094   7.012  11.577  0.00  0.00    +0.000 A 
ATOM      4  C   UNL     1      44.443   5.877  11.094  0.00  0.00    +0.000 A 
ATOM      5  C   UNL     1      44.640   4.657  11.738  0.00  0.00    +0.000 A 
ATOM      6  N   UNL     1      45.454   4.538  12.820  0.00  0.00    +0.000 NA
ATOM      7  C   UNL     1      46.079   5.656  13.262  0.00  0.00    +0.000 A 
BRANCH   5   8
ATOM      8  C   UNL     1      43.968   3.404  11.219  0.00  0.00    +0.000 C 
BRANCH   8   9
ATOM      9  O   UNL     1      44.937   2.563  10.589  0.00  0.00    +0.000 OA
BRANCH   9  10
ATOM     10  C   UNL     1      44.554   2.219   9.256  0.00  0.00    +0.000 C 
BRANCH  10  11
ATOM     11  C   UNL     1      45.734   2.365   8.327  0.00  0.00    +0.000 A 
ATOM     12  C   UNL     1      46.516   1.261   7.971  0.00  0.00    +0.000 A 
ATOM     13  C   UNL     1      47.574   1.444   7.096  0.00  0.00    +0.000 A 
ATOM     14  N   UNL     1      47.898   2.633   6.544  0.00  0.00    +0.000 NA
ATOM     15  C   UNL     1      47.121   3.684   6.882  0.00  0.00    +0.000 A 
ATOM     16  C   UNL     1      46.041   3.601   7.750  0.00  0.00    +0.000 A 
ENDBRANCH  10  11
ENDBRANCH   9  10
ENDBRANCH   8   9
ENDBRANCH   5   8
ENDBRANCH   1   2
BRANCH   1  19
ATOM     17  C   UNL     1      48.856   8.502  14.365  0.00  0.00    +0.000 C 
ATOM     18  O   UNL     1      48.642   9.714  14.420  0.00  0.00    +0.000 OA
ATOM     19  N   UNL     1      47.970   7.651  13.771  0.00  0.00    +0.000 N 
ATOM     20  H   UNL     1      48.197   6.669  13.694  0.00  0.00    +0.000 HD
BRANCH  17  28
ATOM     21  C   UNL     1      49.441   5.800  16.419  0.00  0.00    +0.000 A 
ATOM     22  N   UNL     1      49.942   4.820  17.195  0.00  0.00    +0.000 NA
ATOM     23  C   UNL     1      51.264   4.785  17.385  0.00  0.00    +0.000 A 
ATOM     24  N   UNL     1      52.167   5.622  16.884  0.00  0.00    +0.000 NA
ATOM     25  C   UNL     1      51.627   6.578  16.110  0.00  0.00    +0.000 A 
ATOM     26  S   UNL     1      52.632   7.738  15.385  0.00  0.00    +0.000 S 
ATOM     27  C   UNL     1      51.306   8.507  14.654  0.00  0.00    +0.000 A 
ATOM     28  C   UNL     1      50.081   7.909  14.935  0.00  0.00    +0.000 A 
ATOM     29  C   UNL     1      50.278   6.751  15.810  0.00  0.00    +0.000 A 
BRANCH  21  31
ATOM     30  C   UNL     1      47.462   4.545  16.382  0.00  0.00    +0.000 C 
ATOM     31  O   UNL     1      48.080   5.816  16.193  0.00  0.00    +0.000 OA
ENDBRANCH  21  31
ENDBRANCH  17  28
ENDBRANCH   1  19
TORSDOF 8
ENDMDL
MODEL 9
REMARK VINA RESULT:    -6.533      3.271      5.259
REMARK INTER + INTRA:         -11.025
REMARK INTER:                 -10.086
REMARK INTRA:                  -0.939
REMARK UNBOUND:                -1.436
REMARK  Name = 
REMARK  9 active torsions:
REMARK  status: ('A' for Active; 'I' for Inactive)
REMARK    1  A    between atoms: C_1  and  O_2
REMARK    2  A    between atoms: O_2  and  C_3
REMARK    3  A    between atoms: C_10  and  C_11
REMARK    4  A    between atoms: N_13  and  C_14
REMARK    5  A    between atoms: C_14  and  C_15
REMARK    6  A    between atoms: C_18  and  C_19
REMARK    7  A    between atoms: C_19  and  O_20
REMARK    8  A    between atoms: O_20  and  C_21
REMARK    9  A    between atoms: C_21  and  C_22
REMARK                            x       y       z     vdW  Elec       q    Type
REMARK                         _______ _______ _______ _____ _____    ______ ____
ROOT
ATOM      1  C   UNL     1      47.795   6.158  13.902  0.00  0.00    +0.000 C 
ENDROOT
BRANCH   1   2
ATOM      2  C   UNL     1      46.810   5.457  13.010  0.00  0.00    +0.000 A 
ATOM      3  C   UNL     1      46.380   4.154  13.277  0.00  0.00    +0.000 A 
ATOM      4  C   UNL     1      45.397   3.569  12.480  0.00  0.00    +0.000 A 
ATOM      5  C   UNL     1      44.862   4.296  11.418  0.00  0.00    +0.000 A 
ATOM      6  N   UNL     1      45.265   5.564  11.141  0.00  0.00    +0.000 NA
ATOM      7  C   UNL     1      46.215   6.110  11.937  0.00  0.00    +0.000 A 
BRANCH   5   8
ATOM      8  C   UNL     1      43.775   3.696  10.553  0.00  0.00    +0.000 C 
BRANCH   8   9
ATOM      9  O   UNL     1      44.363   2.871   9.545  0.00  0.00    +0.000 OA
BRANCH   9  10
ATOM     10  C   UNL     1      44.880   3.645   8.461  0.00  0.00    +0.000 C 
BRANCH  10  11
ATOM     11  C   UNL     1      45.907   2.843   7.700  0.00  0.00    +0.000 A 
ATOM     12  C   UNL     1      46.556   3.373   6.581  0.00  0.00    +0.000 A 
ATOM     13  C   UNL     1      47.508   2.605   5.931  0.00  0.00    +0.000 A 
ATOM     14  N   UNL     1      47.866   1.363   6.320  0.00  0.00    +0.000 NA
ATOM     15  C   UNL     1      47.246   0.873   7.414  0.00  0.00    +0.000 A 
ATOM     16  C   UNL     1      46.279   1.566   8.131  0.00  0.00    +0.000 A 
ENDBRANCH  10  11
ENDBRANCH   9  10
ENDBRANCH   8   9
ENDBRANCH   5   8
ENDBRANCH   1   2
BRANCH   1  19
ATOM     17  C   UNL     1      48.159   8.512  13.249  0.00  0.00    +0.000 C 
ATOM     18  O   UNL     1      47.224   8.897  13.953  0.00  0.00    +0.000 OA
ATOM     19  N   UNL     1      48.491   7.190  13.171  0.00  0.00    +0.000 N 
ATOM     20  H   UNL     1      49.229   6.897  12.545  0.00  0.00    +0.000 HD
BRANCH  17  28
ATOM     21  C   UNL     1      51.532   9.184  13.081  0.00  0.00    +0.000 A 
ATOM     22  N   UNL     1      52.773   9.638  12.820  0.00  0.00    +0.000 NA
ATOM     23  C   UNL     1      52.906  10.615  11.919  0.00  0.00    +0.000 A 
ATOM     24  N   UNL     1      51.935  11.208  11.231  0.00  0.00    +0.000 NA
ATOM     25  C   UNL     1      50.716  10.720  11.514  0.00  0.00    +0.000 A 
ATOM     26  S   UNL     1      49.353  11.357  10.729  0.00  0.00    +0.000 S 
ATOM     27  C   UNL     1      48.313  10.309  11.568  0.00  0.00    +0.000 A 
ATOM     28  C   UNL     1      48.965   9.457  12.453  0.00  0.00    +0.000 A 
ATOM     29  C   UNL     1      50.408   9.707  12.418  0.00  0.00    +0.000 A 
BRANCH  21  31
ATOM     30  C   UNL     1      51.552   8.561  15.340  0.00  0.00    +0.000 C 
ATOM     31  O   UNL     1      51.398   8.150  13.984  0.00  0.00    +0.000 OA
ENDBRANCH  21  31
ENDBRANCH  17  28
ENDBRANCH   1  19
TORSDOF 8
ENDMDL
