MODEL 1
REMARK VINA RESULT:    -8.013      0.000      0.000
REMARK INTER + INTRA:         -11.013
REMARK INTER:                 -10.355
REMARK INTRA:                  -0.658
REMARK UNBOUND:                -0.658
REMARK  Name = 
REMARK  6 active torsions:
REMARK  status: ('A' for Active; 'I' for Inactive)
REMARK    1  A    between atoms: C_1  and  C_2
REMARK    2  A    between atoms: C_2  and  C_3
REMARK    3  A    between atoms: C_2  and  C_14
REMARK    4  A    between atoms: C_3  and  O_4
REMARK    5  A    between atoms: O_4  and  C_5
REMARK    6  A    between atoms: C_8  and  C_9
REMARK                            x       y       z     vdW  Elec       q    Type
REMARK                         _______ _______ _______ _____ _____    ______ ____
ROOT
ATOM      1  C   UNL     1      44.447   3.118   9.358  0.00  0.00    +0.000 A 
ATOM      2  C   UNL     1      44.969   4.144   8.566  0.00  0.00    +0.000 A 
ATOM      3  C   UNL     1      45.985   3.880   7.644  0.00  0.00    +0.000 A 
ATOM      4  C   UNL     1      46.501   2.589   7.509  0.00  0.00    +0.000 A 
ATOM      5  C   UNL     1      45.984   1.556   8.300  0.00  0.00    +0.000 A 
ATOM      6  C   UNL     1      44.961   1.825   9.220  0.00  0.00    +0.000 A 
ENDROOT
BRANCH   4   7
ATOM      7  C   UNL     1      47.567   2.374   6.495  0.00  0.00    +0.000 C 
ATOM      8  N   UNL     1      47.541   3.152   5.375  0.00  0.00    +0.000 N 
ATOM      9  O   UNL     1      48.417   1.503   6.634  0.00  0.00    +0.000 OA
ATOM     10  H   UNL     1      46.735   3.699   5.110  0.00  0.00    +0.000 HD
ATOM     11  H   UNL     1      48.205   2.908   4.651  0.00  0.00    +0.000 HD
ENDBRANCH   4   7
BRANCH   1  12
ATOM     12  O   UNL     1      43.439   3.261  10.280  0.00  0.00    +0.000 OA
BRANCH  12  13
ATOM     13  C   UNL     1      43.825   3.051  11.645  0.00  0.00    +0.000 C 
BRANCH  13  15
ATOM     14  C   UNL     1      42.705   5.288  12.282  0.00  0.00    +0.000 C 
ATOM     15  C   UNL     1      43.858   4.345  12.394  0.00  0.00    +0.000 C 
BRANCH  15  16
ATOM     16  C   UNL     1      45.165   4.855  12.808  0.00  0.00    +0.000 A 
ATOM     17  N   UNL     1      45.733   4.320  13.902  0.00  0.00    +0.000 NA
ATOM     18  C   UNL     1      46.939   4.813  14.248  0.00  0.00    +0.000 A 
ATOM     19  C   UNL     1      47.584   5.811  13.555  0.00  0.00    +0.000 A 
ATOM     20  C   UNL     1      46.913   6.296  12.460  0.00  0.00    +0.000 A 
ATOM     21  N   UNL     1      45.709   5.840  12.070  0.00  0.00    +0.000 NA
ENDBRANCH  15  16
ENDBRANCH  13  15
ENDBRANCH  12  13
ENDBRANCH   1  12
TORSDOF 5
ENDMDL
MODEL 2
REMARK VINA RESULT:    -7.271      1.797      2.400
REMARK INTER + INTRA:         -10.055
REMARK INTER:                  -9.495
REMARK INTRA:                  -0.559
REMARK UNBOUND:                -0.658
REMARK  Name = 
REMARK  6 active torsions:
REMARK  status: ('A' for Active; 'I' for Inactive)
REMARK    1  A    between atoms: C_1  and  C_2
REMARK    2  A    between atoms: C_2  and  C_3
REMARK    3  A    between atoms: C_2  and  C_14
REMARK    4  A    between atoms: C_3  and  O_4
REMARK    5  A    between atoms: O_4  and  C_5
REMARK    6  A    between atoms: C_8  and  C_9
REMARK                            x       y       z     vdW  Elec       q    Type
REMARK                         _______ _______ _______ _____ _____    ______ ____
ROOT
ATOM      1  C   UNL     1      44.521   3.996   9.174  0.00  0.00    +0.000 A 
ATOM      2  C   UNL     1      45.570   4.358   8.324  0.00  0.00    +0.000 A 
ATOM      3  C   UNL     1      46.391   3.381   7.756  0.00  0.00    +0.000 A 
ATOM      4  C   UNL     1      46.182   2.028   8.039  0.00  0.00    +0.000 A 
ATOM      5  C   UNL     1      45.134   1.658   8.890  0.00  0.00    +0.000 A 
ATOM      6  C   UNL     1      44.309   2.642   9.453  0.00  0.00    +0.000 A 
ENDROOT
BRANCH   4   7
ATOM      7  C   UNL     1      47.080   1.040   7.386  0.00  0.00    +0.000 C 
ATOM      8  N   UNL     1      46.873  -0.281   7.660  0.00  0.00    +0.000 N 
ATOM      9  O   UNL     1      48.001   1.392   6.660  0.00  0.00    +0.000 OA
ATOM     10  H   UNL     1      46.297  -0.594   8.428  0.00  0.00    +0.000 HD
ATOM     11  H   UNL     1      47.567  -0.922   7.297  0.00  0.00    +0.000 HD
ENDBRANCH   4   7
BRANCH   1  12
ATOM     12  O   UNL     1      43.644   4.869   9.770  0.00  0.00    +0.000 OA
BRANCH  12  13
ATOM     13  C   UNL     1      43.536   4.749  11.194  0.00  0.00    +0.000 C 
BRANCH  13  15
ATOM     14  C   UNL     1      45.515   4.006  12.675  0.00  0.00    +0.000 C 
ATOM     15  C   UNL     1      44.841   5.058  11.856  0.00  0.00    +0.000 C 
BRANCH  15  16
ATOM     16  C   UNL     1      45.171   6.464  12.081  0.00  0.00    +0.000 A 
ATOM     17  N   UNL     1      44.455   7.393  11.424  0.00  0.00    +0.000 NA
ATOM     18  C   UNL     1      44.785   8.678  11.662  0.00  0.00    +0.000 A 
ATOM     19  C   UNL     1      45.794   9.062  12.514  0.00  0.00    +0.000 A 
ATOM     20  C   UNL     1      46.471   8.037  13.126  0.00  0.00    +0.000 A 
ATOM     21  N   UNL     1      46.182   6.738  12.925  0.00  0.00    +0.000 NA
ENDBRANCH  15  16
ENDBRANCH  13  15
ENDBRANCH  12  13
ENDBRANCH   1  12
TORSDOF 5
ENDMDL
MODEL 3
REMARK VINA RESULT:    -6.644      2.823      5.839
REMARK INTER + INTRA:          -9.244
REMARK INTER:                  -8.452
REMARK INTRA:                  -0.793
REMARK UNBOUND:                -0.658
REMARK  Name = 
REMARK  6 active torsions:
REMARK  status: ('A' for Active; 'I' for Inactive)
REMARK    1  A    between atoms: C_1  and  C_2
REMARK    2  A    between atoms: C_2  and  C_3
REMARK    3  A    between atoms: C_2  and  C_14
REMARK    4  A    between atoms: C_3  and  O_4
REMARK    5  A    between atoms: O_4  and  C_5
REMARK    6  A    between atoms: C_8  and  C_9
REMARK                            x       y       z     vdW  Elec       q    Type
REMARK                         _______ _______ _______ _____ _____    ______ ____
ROOT
ATOM      1  C   UNL     1      45.109   5.752  12.557  0.00  0.00    +0.000 A 
ATOM      2  C   UNL     1      45.913   5.135  13.519  0.00  0.00    +0.000 A 
ATOM      3  C   UNL     1      47.241   5.533  13.694  0.00  0.00    +0.000 A 
ATOM      4  C   UNL     1      47.786   6.547  12.901  0.00  0.00    +0.000 A 
ATOM      5  C   UNL     1      46.987   7.170  11.935  0.00  0.00    +0.000 A 
ATOM      6  C   UNL     1      45.653   6.769  11.768  0.00  0.00    +0.000 A 
ENDROOT
BRANCH   4   7
ATOM      7  C   UNL     1      49.198   6.936  13.153  0.00  0.00    +0.000 C 
ATOM      8  N   UNL     1      49.972   7.245  12.072  0.00  0.00    +0.000 N 
ATOM      9  O   UNL     1      49.671   6.941  14.283  0.00  0.00    +0.000 OA
ATOM     10  H   UNL     1      49.701   7.020  11.126  0.00  0.00    +0.000 HD
ATOM     11  H   UNL     1      50.956   7.392  12.260  0.00  0.00    +0.000 HD
ENDBRANCH   4   7
BRANCH   1  12
ATOM     12  O   UNL     1      43.790   5.453  12.314  0.00  0.00    +0.000 OA
BRANCH  12  13
ATOM     13  C   UNL     1      43.475   5.148  10.950  0.00  0.00    +0.000 C 
BRANCH  13  15
ATOM     14  C   UNL     1      43.418   2.685  11.719  0.00  0.00    +0.000 C 
ATOM     15  C   UNL     1      43.705   3.699  10.660  0.00  0.00    +0.000 C 
BRANCH  15  16
ATOM     16  C   UNL     1      44.626   3.363   9.575  0.00  0.00    +0.000 A 
ATOM     17  N   UNL     1      45.114   4.369   8.828  0.00  0.00    +0.000 NA
ATOM     18  C   UNL     1      45.962   4.019   7.841  0.00  0.00    +0.000 A 
ATOM     19  C   UNL     1      46.329   2.721   7.572  0.00  0.00    +0.000 A 
ATOM     20  C   UNL     1      45.765   1.770   8.385  0.00  0.00    +0.000 A 
ATOM     21  N   UNL     1      44.914   2.063   9.385  0.00  0.00    +0.000 NA
ENDBRANCH  15  16
ENDBRANCH  13  15
ENDBRANCH  12  13
ENDBRANCH   1  12
TORSDOF 5
ENDMDL
MODEL 4
REMARK VINA RESULT:    -6.529      2.430      6.511
REMARK INTER + INTRA:          -9.096
REMARK INTER:                  -8.529
REMARK INTRA:                  -0.567
REMARK UNBOUND:                -0.658
REMARK  Name = 
REMARK  6 active torsions:
REMARK  status: ('A' for Active; 'I' for Inactive)
REMARK    1  A    between atoms: C_1  and  C_2
REMARK    2  A    between atoms: C_2  and  C_3
REMARK    3  A    between atoms: C_2  and  C_14
REMARK    4  A    between atoms: C_3  and  O_4
REMARK    5  A    between atoms: O_4  and  C_5
REMARK    6  A    between atoms: C_8  and  C_9
REMARK                            x       y       z     vdW  Elec       q    Type
REMARK                         _______ _______ _______ _____ _____    ______ ____
ROOT
ATOM      1  C   UNL     1      45.489   5.017  11.781  0.00  0.00    +0.000 A 
ATOM      2  C   UNL     1      45.807   4.405  12.996  0.00  0.00    +0.000 A 
ATOM      3  C   UNL     1      46.792   4.946  13.825  0.00  0.00    +0.000 A 
ATOM      4  C   UNL     1      47.481   6.102  13.446  0.00  0.00    +0.000 A 
ATOM      5  C   UNL     1      47.169   6.720  12.229  0.00  0.00    +0.000 A 
ATOM      6  C   UNL     1      46.175   6.175  11.404  0.00  0.00    +0.000 A 
ENDROOT
BRANCH   4   7
ATOM      7  C   UNL     1      48.503   6.635  14.384  0.00  0.00    +0.000 C 
ATOM      8  N   UNL     1      48.259   6.515  15.721  0.00  0.00    +0.000 N 
ATOM      9  O   UNL     1      49.511   7.201  13.980  0.00  0.00    +0.000 OA
ATOM     10  H   UNL     1      47.348   6.283  16.090  0.00  0.00    +0.000 HD
ATOM     11  H   UNL     1      48.911   6.988  16.335  0.00  0.00    +0.000 HD
ENDBRANCH   4   7
BRANCH   1  12
ATOM     12  O   UNL     1      44.529   4.582  10.900  0.00  0.00    +0.000 OA
BRANCH  12  13
ATOM     13  C   UNL     1      44.929   4.557   9.523  0.00  0.00    +0.000 C 
BRANCH  13  15
ATOM     14  C   UNL     1      44.244   2.083   9.787  0.00  0.00    +0.000 C 
ATOM     15  C   UNL     1      44.884   3.164   8.980  0.00  0.00    +0.000 C 
BRANCH  15  16
ATOM     16  C   UNL     1      45.854   2.810   7.945  0.00  0.00    +0.000 A 
ATOM     17  N   UNL     1      46.478   1.623   8.045  0.00  0.00    +0.000 NA
ATOM     18  C   UNL     1      47.361   1.330   7.069  0.00  0.00    +0.000 A 
ATOM     19  C   UNL     1      47.644   2.170   6.019  0.00  0.00    +0.000 A 
ATOM     20  C   UNL     1      46.963   3.362   6.016  0.00  0.00    +0.000 A 
ATOM     21  N   UNL     1      46.071   3.704   6.964  0.00  0.00    +0.000 NA
ENDBRANCH  15  16
ENDBRANCH  13  15
ENDBRANCH  12  13
ENDBRANCH   1  12
TORSDOF 5
ENDMDL
MODEL 5
REMARK VINA RESULT:    -6.440      1.393      2.417
REMARK INTER + INTRA:          -8.980
REMARK INTER:                  -8.390
REMARK INTRA:                  -0.590
REMARK UNBOUND:                -0.658
REMARK  Name = 
REMARK  6 active torsions:
REMARK  status: ('A' for Active; 'I' for Inactive)
REMARK    1  A    between atoms: C_1  and  C_2
REMARK    2  A    between atoms: C_2  and  C_3
REMARK    3  A    between atoms: C_2  and  C_14
REMARK    4  A    between atoms: C_3  and  O_4
REMARK    5  A    between atoms: O_4  and  C_5
REMARK    6  A    between atoms: C_8  and  C_9
REMARK                            x       y       z     vdW  Elec       q    Type
REMARK                         _______ _______ _______ _____ _____    ______ ____
ROOT
ATOM      1  C   UNL     1      44.799   3.782   9.875  0.00  0.00    +0.000 A 
ATOM      2  C   UNL     1      44.979   2.406   9.717  0.00  0.00    +0.000 A 
ATOM      3  C   UNL     1      45.787   1.910   8.691  0.00  0.00    +0.000 A 
ATOM      4  C   UNL     1      46.420   2.785   7.803  0.00  0.00    +0.000 A 
ATOM      5  C   UNL     1      46.245   4.165   7.955  0.00  0.00    +0.000 A 
ATOM      6  C   UNL     1      45.436   4.657   8.990  0.00  0.00    +0.000 A 
ENDROOT
BRANCH   4   7
ATOM      7  C   UNL     1      47.282   2.191   6.748  0.00  0.00    +0.000 C 
ATOM      8  N   UNL     1      47.655   2.994   5.709  0.00  0.00    +0.000 N 
ATOM      9  O   UNL     1      47.617   1.013   6.780  0.00  0.00    +0.000 OA
ATOM     10  H   UNL     1      47.210   3.880   5.519  0.00  0.00    +0.000 HD
ATOM     11  H   UNL     1      48.142   2.537   4.949  0.00  0.00    +0.000 HD
ENDBRANCH   4   7
BRANCH   1  12
ATOM     12  O   UNL     1      44.043   4.377  10.857  0.00  0.00    +0.000 OA
BRANCH  12  13
ATOM     13  C   UNL     1      44.563   5.614  11.362  0.00  0.00    +0.000 C 
BRANCH  13  15
ATOM     14  C   UNL     1      45.562   4.457  13.441  0.00  0.00    +0.000 C 
ATOM     15  C   UNL     1      45.725   5.372  12.272  0.00  0.00    +0.000 C 
BRANCH  15  16
ATOM     16  C   UNL     1      46.796   6.367  12.282  0.00  0.00    +0.000 A 
ATOM     17  N   UNL     1      46.556   7.559  11.708  0.00  0.00    +0.000 NA
ATOM     18  C   UNL     1      47.566   8.451  11.742  0.00  0.00    +0.000 A 
ATOM     19  C   UNL     1      48.791   8.196  12.312  0.00  0.00    +0.000 A 
ATOM     20  C   UNL     1      48.938   6.946  12.859  0.00  0.00    +0.000 A 
ATOM     21  N   UNL     1      47.963   6.019  12.854  0.00  0.00    +0.000 NA
ENDBRANCH  15  16
ENDBRANCH  13  15
ENDBRANCH  12  13
ENDBRANCH   1  12
TORSDOF 5
ENDMDL
MODEL 6
REMARK VINA RESULT:    -5.775      3.933      6.140
REMARK INTER + INTRA:          -8.121
REMARK INTER:                  -7.639
REMARK INTRA:                  -0.482
REMARK UNBOUND:                -0.658
REMARK  Name = 
REMARK  6 active torsions:
REMARK  status: ('A' for Active; 'I' for Inactive)
REMARK    1  A    between atoms: C_1  and  C_2
REMARK    2  A    between atoms: C_2  and  C_3
REMARK    3  A    between atoms: C_2  and  C_14
REMARK    4  A    between atoms: C_3  and  O_4
REMARK    5  A    between atoms: O_4  and  C_5
REMARK    6  A    between atoms: C_8  and  C_9
REMARK                            x       y       z     vdW  Elec       q    Type
REMARK                         _______ _______ _______ _____ _____    ______ ____
ROOT
ATOM      1  C   UNL     1      46.771   4.729  13.705  0.00  0.00    +0.000 A 
ATOM      2  C   UNL     1      46.318   5.984  13.291  0.00  0.00    +0.000 A 
ATOM      3  C   UNL     1      45.316   6.092  12.324  0.00  0.00    +0.000 A 
ATOM      4  C   UNL     1      44.760   4.946  11.750  0.00  0.00    +0.000 A 
ATOM      5  C   UNL     1      45.208   3.685  12.159  0.00  0.00    +0.000 A 
ATOM      6  C   UNL     1      46.211   3.583  13.134  0.00  0.00    +0.000 A 
ENDROOT
BRANCH   4   7
ATOM      7  C   UNL     1      43.683   5.132  10.742  0.00  0.00    +0.000 C 
ATOM      8  N   UNL     1      43.915   4.679   9.476  0.00  0.00    +0.000 N 
ATOM      9  O   UNL     1      42.638   5.708  11.019  0.00  0.00    +0.000 OA
ATOM     10  H   UNL     1      44.837   4.427   9.149  0.00  0.00    +0.000 HD
ATOM     11  H   UNL     1      43.218   4.921   8.784  0.00  0.00    +0.000 HD
ENDBRANCH   4   7
BRANCH   1  12
ATOM     12  O   UNL     1      47.736   4.507  14.659  0.00  0.00    +0.000 OA
BRANCH  12  13
ATOM     13  C   UNL     1      47.590   3.290  15.402  0.00  0.00    +0.000 C 
BRANCH  13  15
ATOM     14  C   UNL     1      47.226   4.407  17.700  0.00  0.00    +0.000 C 
ATOM     15  C   UNL     1      48.007   3.481  16.825  0.00  0.00    +0.000 C 
BRANCH  15  16
ATOM     16  C   UNL     1      49.389   3.156  17.176  0.00  0.00    +0.000 A 
ATOM     17  N   UNL     1      49.859   1.945  16.831  0.00  0.00    +0.000 NA
ATOM     18  C   UNL     1      51.139   1.686  17.167  0.00  0.00    +0.000 A 
ATOM     19  C   UNL     1      51.949   2.574  17.833  0.00  0.00    +0.000 A 
ATOM     20  C   UNL     1      51.369   3.778  18.150  0.00  0.00    +0.000 A 
ATOM     21  N   UNL     1      50.098   4.089  17.837  0.00  0.00    +0.000 NA
ENDBRANCH  15  16
ENDBRANCH  13  15
ENDBRANCH  12  13
ENDBRANCH   1  12
TORSDOF 5
ENDMDL
MODEL 7
REMARK VINA RESULT:    -5.767      4.203      6.269
REMARK INTER + INTRA:          -8.110
REMARK INTER:                  -7.521
REMARK INTRA:                  -0.590
REMARK UNBOUND:                -0.658
REMARK  Name = 
REMARK  6 active torsions:
REMARK  status: ('A' for Active; 'I' for Inactive)
REMARK    1  A    between atoms: C_1  and  C_2
REMARK    2  A    between atoms: C_2  and  C_3
REMARK    3  A    between atoms: C_2  and  C_14
REMARK    4  A    between atoms: C_3  and  O_4
REMARK    5  A    between atoms: O_4  and  C_5
REMARK    6  A    between atoms: C_8  and  C_9
REMARK                            x       y       z     vdW  Elec       q    Type
REMARK                         _______ _______ _______ _____ _____    ______ ____
ROOT
ATOM      1  C   UNL     1      47.174   5.742  13.202  0.00  0.00    +0.000 A 
ATOM      2  C   UNL     1      46.215   4.788  13.552  0.00  0.00    +0.000 A 
ATOM      3  C   UNL     1      44.992   4.731  12.879  0.00  0.00    +0.000 A 
ATOM      4  C   UNL     1      44.707   5.635  11.852  0.00  0.00    +0.000 A 
ATOM      5  C   UNL     1      45.662   6.595  11.496  0.00  0.00    +0.000 A 
ATOM      6  C   UNL     1      46.889   6.644  12.172  0.00  0.00    +0.000 A 
ENDROOT
BRANCH   4   7
ATOM      7  C   UNL     1      43.395   5.507  11.164  0.00  0.00    +0.000 C 
ATOM      8  N   UNL     1      42.318   6.118  11.736  0.00  0.00    +0.000 N 
ATOM      9  O   UNL     1      43.270   4.843  10.143  0.00  0.00    +0.000 OA
ATOM     10  H   UNL     1      42.326   6.460  12.686  0.00  0.00    +0.000 HD
ATOM     11  H   UNL     1      41.420   5.919  11.314  0.00  0.00    +0.000 HD
ENDBRANCH   4   7
BRANCH   1  12
ATOM     12  O   UNL     1      48.412   5.876  13.783  0.00  0.00    +0.000 OA
BRANCH  12  13
ATOM     13  C   UNL     1      48.525   6.934  14.743  0.00  0.00    +0.000 C 
BRANCH  13  15
ATOM     14  C   UNL     1      50.720   6.970  16.099  0.00  0.00    +0.000 C 
ATOM     15  C   UNL     1      49.315   6.492  15.933  0.00  0.00    +0.000 C 
BRANCH  15  16
ATOM     16  C   UNL     1      48.885   5.273  16.617  0.00  0.00    +0.000 A 
ATOM     17  N   UNL     1      47.579   5.137  16.903  0.00  0.00    +0.000 NA
ATOM     18  C   UNL     1      47.221   3.998  17.528  0.00  0.00    +0.000 A 
ATOM     19  C   UNL     1      48.109   3.009  17.880  0.00  0.00    +0.000 A 
ATOM     20  C   UNL     1      49.421   3.251  17.553  0.00  0.00    +0.000 A 
ATOM     21  N   UNL     1      49.831   4.369  16.928  0.00  0.00    +0.000 NA
ENDBRANCH  15  16
ENDBRANCH  13  15
ENDBRANCH  12  13
ENDBRANCH   1  12
TORSDOF 5
ENDMDL
MODEL 8
REMARK VINA RESULT:    -5.593      3.158      5.598
REMARK INTER + INTRA:          -7.886
REMARK INTER:                  -7.335
REMARK INTRA:                  -0.551
REMARK UNBOUND:                -0.658
REMARK  Name = 
REMARK  6 active torsions:
REMARK  status: ('A' for Active; 'I' for Inactive)
REMARK    1  A    between atoms: C_1  and  C_2
REMARK    2  A    between atoms: C_2  and  C_3
REMARK    3  A    between atoms: C_2  and  C_14
REMARK    4  A    between atoms: C_3  and  O_4
REMARK    5  A    between atoms: O_4  and  C_5
REMARK    6  A    between atoms: C_8  and  C_9
REMARK                            x       y       z     vdW  Elec       q    Type
REMARK                         _______ _______ _______ _____ _____    ______ ____
ROOT
ATOM      1  C   UNL     1      46.527   6.358  12.893  0.00  0.00    +0.000 A 
ATOM      2  C   UNL     1      45.839   5.226  13.337  0.00  0.00    +0.000 A 
ATOM      3  C   UNL     1      45.055   4.481  12.453  0.00  0.00    +0.000 A 
ATOM      4  C   UNL     1      44.941   4.863  11.114  0.00  0.00    +0.000 A 
ATOM      5  C   UNL     1      45.627   5.995  10.661  0.00  0.00    +0.000 A 
ATOM      6  C   UNL     1      46.417   6.737  11.552  0.00  0.00    +0.000 A 
ENDROOT
BRANCH   4   7
ATOM      7  C   UNL     1      44.107   4.014  10.223  0.00  0.00    +0.000 C 
ATOM      8  N   UNL     1      44.093   4.315   8.892  0.00  0.00    +0.000 N 
ATOM      9  O   UNL     1      43.421   3.100  10.665  0.00  0.00    +0.000 OA
ATOM     10  H   UNL     1      44.440   5.190   8.528  0.00  0.00    +0.000 HD
ATOM     11  H   UNL     1      43.431   3.798   8.328  0.00  0.00    +0.000 HD
ENDBRANCH   4   7
BRANCH   1  12
ATOM     12  O   UNL     1      47.338   7.151  13.669  0.00  0.00    +0.000 OA
BRANCH  12  13
ATOM     13  C   UNL     1      48.717   6.762  13.706  0.00  0.00    +0.000 C 
BRANCH  13  15
ATOM     14  C   UNL     1      50.665   7.466  15.246  0.00  0.00    +0.000 C 
ATOM     15  C   UNL     1      49.281   6.928  15.081  0.00  0.00    +0.000 C 
BRANCH  15  16
ATOM     16  C   UNL     1      48.684   6.140  16.158  0.00  0.00    +0.000 A 
ATOM     17  N   UNL     1      48.287   4.886  15.877  0.00  0.00    +0.000 NA
ATOM     18  C   UNL     1      47.746   4.190  16.897  0.00  0.00    +0.000 A 
ATOM     19  C   UNL     1      47.582   4.696  18.165  0.00  0.00    +0.000 A 
ATOM     20  C   UNL     1      48.009   5.989  18.343  0.00  0.00    +0.000 A 
ATOM     21  N   UNL     1      48.557   6.728  17.361  0.00  0.00    +0.000 NA
ENDBRANCH  15  16
ENDBRANCH  13  15
ENDBRANCH  12  13
ENDBRANCH   1  12
TORSDOF 5
ENDMDL
MODEL 9
REMARK VINA RESULT:    -5.479      3.523      6.510
REMARK INTER + INTRA:          -7.739
REMARK INTER:                  -7.200
REMARK INTRA:                  -0.539
REMARK UNBOUND:                -0.658
REMARK  Name = 
REMARK  6 active torsions:
REMARK  status: ('A' for Active; 'I' for Inactive)
REMARK    1  A    between atoms: C_1  and  C_2
REMARK    2  A    between atoms: C_2  and  C_3
REMARK    3  A    between atoms: C_2  and  C_14
REMARK    4  A    between atoms: C_3  and  O_4
REMARK    5  A    between atoms: O_4  and  C_5
REMARK    6  A    between atoms: C_8  and  C_9
REMARK                            x       y       z     vdW  Elec       q    Type
REMARK                         _______ _______ _______ _____ _____    ______ ____
ROOT
ATOM      1  C   UNL     1      47.112   6.280  12.631  0.00  0.00    +0.000 A 
ATOM      2  C   UNL     1      47.787   6.241  13.854  0.00  0.00    +0.000 A 
ATOM      3  C   UNL     1      48.948   6.993  14.047  0.00  0.00    +0.000 A 
ATOM      4  C   UNL     1      49.457   7.787  13.015  0.00  0.00    +0.000 A 
ATOM      5  C   UNL     1      48.787   7.831  11.787  0.00  0.00    +0.000 A 
ATOM      6  C   UNL     1      47.618   7.078  11.601  0.00  0.00    +0.000 A 
ENDROOT
BRANCH   4   7
ATOM      7  C   UNL     1      50.685   8.577  13.294  0.00  0.00    +0.000 C 
ATOM      8  N   UNL     1      51.748   7.922  13.844  0.00  0.00    +0.000 N 
ATOM      9  O   UNL     1      50.735   9.782  13.079  0.00  0.00    +0.000 OA
ATOM     10  H   UNL     1      51.667   7.004  14.257  0.00  0.00    +0.000 HD
ATOM     11  H   UNL     1      52.526   8.502  14.131  0.00  0.00    +0.000 HD
ENDBRANCH   4   7
BRANCH   1  12
ATOM     12  O   UNL     1      45.955   5.598  12.339  0.00  0.00    +0.000 OA
BRANCH  12  13
ATOM     13  C   UNL     1      44.959   6.356  11.641  0.00  0.00    +0.000 C 
BRANCH  13  15
ATOM     14  C   UNL     1      42.652   5.204  11.520  0.00  0.00    +0.000 C 
ATOM     15  C   UNL     1      44.002   5.453  10.930  0.00  0.00    +0.000 C 
BRANCH  15  16
ATOM     16  C   UNL     1      44.558   4.492   9.978  0.00  0.00    +0.000 A 
ATOM     17  N   UNL     1      45.399   4.952   9.036  0.00  0.00    +0.000 NA
ATOM     18  C   UNL     1      45.894   4.034   8.181  0.00  0.00    +0.000 A 
ATOM     19  C   UNL     1      45.577   2.698   8.227  0.00  0.00    +0.000 A 
ATOM     20  C   UNL     1      44.700   2.334   9.219  0.00  0.00    +0.000 A 
ATOM     21  N   UNL     1      44.178   3.207  10.099  0.00  0.00    +0.000 NA
ENDBRANCH  15  16
ENDBRANCH  13  15
ENDBRANCH  12  13
ENDBRANCH   1  12
TORSDOF 5
ENDMDL
