MODEL 1
REMARK VINA RESULT:    -7.770      0.000      0.000
REMARK INTER + INTRA:         -11.574
REMARK INTER:                 -10.723
REMARK INTRA:                  -0.851
REMARK UNBOUND:                -0.851
REMARK  Name = 
REMARK  8 active torsions:
REMARK  status: ('A' for Active; 'I' for Inactive)
REMARK    1  A    between atoms: C_1  and  S_2
REMARK    2  A    between atoms: S_2  and  C_3
REMARK    3  A    between atoms: C_6  and  C_7
REMARK    4  A    between atoms: C_7  and  C_8
REMARK    5  A    between atoms: C_8  and  N_9
REMARK    6  A    between atoms: C_14  and  O_15
REMARK    7  A    between atoms: O_15  and  C_16
REMARK    8  A    between atoms: C_18  and  O_19
REMARK                            x       y       z     vdW  Elec       q    Type
REMARK                         _______ _______ _______ _____ _____    ______ ____
ROOT
ATOM      1  N   UNL     1      43.770   4.699  13.173  0.00  0.00    +0.000 N 
ATOM      2  C   UNL     1      45.112   5.068  13.267  0.00  0.00    +0.000 A 
ATOM      3  C   UNL     1      45.705   5.969  12.382  0.00  0.00    +0.000 A 
ATOM      4  C   UNL     1      47.046   6.307  12.523  0.00  0.00    +0.000 A 
ATOM      5  C   UNL     1      47.766   5.763  13.570  0.00  0.00    +0.000 A 
ATOM      6  C   UNL     1      47.095   4.915  14.435  0.00  0.00    +0.000 A 
ATOM      7  N   UNL     1      45.798   4.546  14.307  0.00  0.00    +0.000 NA
ATOM      8  H   UNL     1      43.637   3.904  13.795  0.00  0.00    +0.000 HD
ENDROOT
BRANCH   1   9
ATOM      9  C   UNL     1      43.176   4.593  11.845  0.00  0.00    +0.000 C 
BRANCH   9  10
ATOM     10  C   UNL     1      43.313   3.175  11.280  0.00  0.00    +0.000 C 
BRANCH  10  14
ATOM     11  C   UNL     1      45.785   3.246   7.802  0.00  0.00    +0.000 A 
ATOM     12  C   UNL     1      45.609   2.038   8.462  0.00  0.00    +0.000 A 
ATOM     13  C   UNL     1      44.794   1.995   9.595  0.00  0.00    +0.000 A 
ATOM     14  C   UNL     1      44.169   3.161  10.040  0.00  0.00    +0.000 A 
ATOM     15  C   UNL     1      44.415   4.325   9.318  0.00  0.00    +0.000 A 
ATOM     16  N   UNL     1      45.204   4.392   8.219  0.00  0.00    +0.000 NA
BRANCH  11  18
ATOM     17  C   UNL     1      47.937   1.896   6.698  0.00  0.00    +0.000 C 
ATOM     18  S   UNL     1      46.832   3.290   6.356  0.00  0.00    +0.000 S 
ENDBRANCH  11  18
ENDBRANCH  10  14
ENDBRANCH   9  10
ENDBRANCH   1   9
BRANCH   6  19
ATOM     19  O   UNL     1      47.837   4.453  15.510  0.00  0.00    +0.000 OA
BRANCH  19  20
ATOM     20  C   UNL     1      47.095   4.163  16.716  0.00  0.00    +0.000 C 
ATOM     21  C   UNL     1      47.533   4.903  18.006  0.00  0.00    +0.000 C 
ATOM     22  C   UNL     1      48.427   3.690  18.339  0.00  0.00    +0.000 C 
ATOM     23  C   UNL     1      47.516   2.849  17.422  0.00  0.00    +0.000 C 
BRANCH  22  24
ATOM     24  O   UNL     1      48.493   3.296  19.721  0.00  0.00    +0.000 OA
ATOM     25  H   UNL     1      47.810   2.613  19.836  0.00  0.00    +0.000 HD
ENDBRANCH  22  24
ENDBRANCH  19  20
ENDBRANCH   6  19
TORSDOF 7
ENDMDL
MODEL 2
REMARK VINA RESULT:    -7.315      4.227      8.167
REMARK INTER + INTRA:         -10.946
REMARK INTER:                 -10.037
REMARK INTRA:                  -0.909
REMARK UNBOUND:                -0.851
REMARK  Name = 
REMARK  8 active torsions:
REMARK  status: ('A' for Active; 'I' for Inactive)
REMARK    1  A    between atoms: C_1  and  S_2
REMARK    2  A    between atoms: S_2  and  C_3
REMARK    3  A    between atoms: C_6  and  C_7
REMARK    4  A    between atoms: C_7  and  C_8
REMARK    5  A    between atoms: C_8  and  N_9
REMARK    6  A    between atoms: C_14  and  O_15
REMARK    7  A    between atoms: O_15  and  C_16
REMARK    8  A    between atoms: C_18  and  O_19
REMARK                            x       y       z     vdW  Elec       q    Type
REMARK                         _______ _______ _______ _____ _____    ______ ____
ROOT
ATOM      1  N   UNL     1      45.002   6.503  10.710  0.00  0.00    +0.000 N 
ATOM      2  C   UNL     1      44.817   5.152  10.416  0.00  0.00    +0.000 A 
ATOM      3  C   UNL     1      44.361   4.236  11.364  0.00  0.00    +0.000 A 
ATOM      4  C   UNL     1      44.189   2.900  11.018  0.00  0.00    +0.000 A 
ATOM      5  C   UNL     1      44.444   2.509   9.717  0.00  0.00    +0.000 A 
ATOM      6  C   UNL     1      44.846   3.485   8.822  0.00  0.00    +0.000 A 
ATOM      7  N   UNL     1      45.049   4.787   9.136  0.00  0.00    +0.000 NA
ATOM      8  H   UNL     1      45.514   6.909   9.928  0.00  0.00    +0.000 HD
ENDROOT
BRANCH   1   9
ATOM      9  C   UNL     1      45.465   6.861  12.046  0.00  0.00    +0.000 C 
BRANCH   9  10
ATOM     10  C   UNL     1      46.985   6.706  12.174  0.00  0.00    +0.000 C 
BRANCH  10  14
ATOM     11  C   UNL     1      48.054   5.019  15.946  0.00  0.00    +0.000 A 
ATOM     12  C   UNL     1      47.095   4.370  15.180  0.00  0.00    +0.000 A 
ATOM     13  C   UNL     1      46.742   4.902  13.939  0.00  0.00    +0.000 A 
ATOM     14  C   UNL     1      47.360   6.070  13.488  0.00  0.00    +0.000 A 
ATOM     15  C   UNL     1      48.302   6.653  14.330  0.00  0.00    +0.000 A 
ATOM     16  N   UNL     1      48.657   6.157  15.539  0.00  0.00    +0.000 NA
BRANCH  11  18
ATOM     17  C   UNL     1      47.369   2.914  17.611  0.00  0.00    +0.000 C 
ATOM     18  S   UNL     1      48.496   4.331  17.533  0.00  0.00    +0.000 S 
ENDBRANCH  11  18
ENDBRANCH  10  14
ENDBRANCH   9  10
ENDBRANCH   1   9
BRANCH   6  19
ATOM     19  O   UNL     1      45.017   3.061   7.515  0.00  0.00    +0.000 OA
BRANCH  19  20
ATOM     20  C   UNL     1      46.193   3.553   6.836  0.00  0.00    +0.000 C 
ATOM     21  C   UNL     1      46.512   2.942   5.446  0.00  0.00    +0.000 C 
ATOM     22  C   UNL     1      47.425   1.923   6.159  0.00  0.00    +0.000 C 
ATOM     23  C   UNL     1      47.523   2.924   7.327  0.00  0.00    +0.000 C 
BRANCH  22  24
ATOM     24  O   UNL     1      48.656   1.583   5.495  0.00  0.00    +0.000 OA
ATOM     25  H   UNL     1      49.306   1.429   6.201  0.00  0.00    +0.000 HD
ENDBRANCH  22  24
ENDBRANCH  19  20
ENDBRANCH   6  19
TORSDOF 7
ENDMDL
MODEL 3
REMARK VINA RESULT:    -6.651      4.475      8.176
REMARK INTER + INTRA:         -10.029
REMARK INTER:                  -9.600
REMARK INTRA:                  -0.429
REMARK UNBOUND:                -0.851
REMARK  Name = 
REMARK  8 active torsions:
REMARK  status: ('A' for Active; 'I' for Inactive)
REMARK    1  A    between atoms: C_1  and  S_2
REMARK    2  A    between atoms: S_2  and  C_3
REMARK    3  A    between atoms: C_6  and  C_7
REMARK    4  A    between atoms: C_7  and  C_8
REMARK    5  A    between atoms: C_8  and  N_9
REMARK    6  A    between atoms: C_14  and  O_15
REMARK    7  A    between atoms: O_15  and  C_16
REMARK    8  A    between atoms: C_18  and  O_19
REMARK                            x       y       z     vdW  Elec       q    Type
REMARK                         _______ _______ _______ _____ _____    ______ ____
ROOT
ATOM      1  N   UNL     1      45.651   6.686  11.605  0.00  0.00    +0.000 N 
ATOM      2  C   UNL     1      45.264   5.590  10.833  0.00  0.00    +0.000 A 
ATOM      3  C   UNL     1      44.325   4.658  11.274  0.00  0.00    +0.000 A 
ATOM      4  C   UNL     1      43.969   3.586  10.463  0.00  0.00    +0.000 A 
ATOM      5  C   UNL     1      44.534   3.483   9.206  0.00  0.00    +0.000 A 
ATOM      6  C   UNL     1      45.420   4.474   8.820  0.00  0.00    +0.000 A 
ATOM      7  N   UNL     1      45.806   5.513   9.598  0.00  0.00    +0.000 NA
ATOM      8  H   UNL     1      46.468   7.092  11.153  0.00  0.00    +0.000 HD
ENDROOT
BRANCH   1   9
ATOM      9  C   UNL     1      45.725   6.517  13.052  0.00  0.00    +0.000 C 
BRANCH   9  10
ATOM     10  C   UNL     1      46.962   5.710  13.461  0.00  0.00    +0.000 C 
BRANCH  10  14
ATOM     11  C   UNL     1      50.476   8.114  13.745  0.00  0.00    +0.000 A 
ATOM     12  C   UNL     1      49.965   7.838  12.484  0.00  0.00    +0.000 A 
ATOM     13  C   UNL     1      48.809   7.063  12.375  0.00  0.00    +0.000 A 
ATOM     14  C   UNL     1      48.187   6.584  13.529  0.00  0.00    +0.000 A 
ATOM     15  C   UNL     1      48.781   6.905  14.746  0.00  0.00    +0.000 A 
ATOM     16  N   UNL     1      49.902   7.652  14.877  0.00  0.00    +0.000 NA
BRANCH  11  18
ATOM     17  C   UNL     1      52.842   8.582  12.382  0.00  0.00    +0.000 C 
ATOM     18  S   UNL     1      51.957   9.104  13.874  0.00  0.00    +0.000 S 
ENDBRANCH  11  18
ENDBRANCH  10  14
ENDBRANCH   9  10
ENDBRANCH   1   9
BRANCH   6  19
ATOM     19  O   UNL     1      45.904   4.370   7.526  0.00  0.00    +0.000 OA
BRANCH  19  20
ATOM     20  C   UNL     1      45.940   3.038   6.967  0.00  0.00    +0.000 C 
ATOM     21  C   UNL     1      47.080   2.104   7.448  0.00  0.00    +0.000 C 
ATOM     22  C   UNL     1      47.908   2.570   6.233  0.00  0.00    +0.000 C 
ATOM     23  C   UNL     1      46.578   2.957   5.556  0.00  0.00    +0.000 C 
BRANCH  22  24
ATOM     24  O   UNL     1      48.703   1.569   5.570  0.00  0.00    +0.000 OA
ATOM     25  H   UNL     1      48.803   0.843   6.209  0.00  0.00    +0.000 HD
ENDBRANCH  22  24
ENDBRANCH  19  20
ENDBRANCH   6  19
TORSDOF 7
ENDMDL
MODEL 4
REMARK VINA RESULT:    -6.368      1.957      2.331
REMARK INTER + INTRA:          -9.638
REMARK INTER:                  -8.833
REMARK INTRA:                  -0.805
REMARK UNBOUND:                -0.851
REMARK  Name = 
REMARK  8 active torsions:
REMARK  status: ('A' for Active; 'I' for Inactive)
REMARK    1  A    between atoms: C_1  and  S_2
REMARK    2  A    between atoms: S_2  and  C_3
REMARK    3  A    between atoms: C_6  and  C_7
REMARK    4  A    between atoms: C_7  and  C_8
REMARK    5  A    between atoms: C_8  and  N_9
REMARK    6  A    between atoms: C_14  and  O_15
REMARK    7  A    between atoms: O_15  and  C_16
REMARK    8  A    between atoms: C_18  and  O_19
REMARK                            x       y       z     vdW  Elec       q    Type
REMARK                         _______ _______ _______ _____ _____    ______ ____
ROOT
ATOM      1  N   UNL     1      44.431   5.385  13.014  0.00  0.00    +0.000 N 
ATOM      2  C   UNL     1      45.508   6.256  12.849  0.00  0.00    +0.000 A 
ATOM      3  C   UNL     1      45.377   7.498  12.228  0.00  0.00    +0.000 A 
ATOM      4  C   UNL     1      46.482   8.332  12.093  0.00  0.00    +0.000 A 
ATOM      5  C   UNL     1      47.695   7.923  12.614  0.00  0.00    +0.000 A 
ATOM      6  C   UNL     1      47.735   6.699  13.260  0.00  0.00    +0.000 A 
ATOM      7  N   UNL     1      46.683   5.855  13.382  0.00  0.00    +0.000 NA
ATOM      8  H   UNL     1      44.818   4.490  13.310  0.00  0.00    +0.000 HD
ENDROOT
BRANCH   1   9
ATOM      9  C   UNL     1      43.414   5.340  11.970  0.00  0.00    +0.000 C 
BRANCH   9  10
ATOM     10  C   UNL     1      43.211   3.915  11.445  0.00  0.00    +0.000 C 
BRANCH  10  14
ATOM     11  C   UNL     1      45.693   3.277   8.032  0.00  0.00    +0.000 A 
ATOM     12  C   UNL     1      45.363   2.183   8.822  0.00  0.00    +0.000 A 
ATOM     13  C   UNL     1      44.542   2.374   9.935  0.00  0.00    +0.000 A 
ATOM     14  C   UNL     1      44.066   3.652  10.232  0.00  0.00    +0.000 A 
ATOM     15  C   UNL     1      44.461   4.685   9.387  0.00  0.00    +0.000 A 
ATOM     16  N   UNL     1      45.258   4.526   8.305  0.00  0.00    +0.000 NA
BRANCH  11  18
ATOM     17  C   UNL     1      47.583   1.486   7.084  0.00  0.00    +0.000 C 
ATOM     18  S   UNL     1      46.747   3.023   6.613  0.00  0.00    +0.000 S 
ENDBRANCH  11  18
ENDBRANCH  10  14
ENDBRANCH   9  10
ENDBRANCH   1   9
BRANCH   6  19
ATOM     19  O   UNL     1      48.952   6.366  13.830  0.00  0.00    +0.000 OA
BRANCH  19  20
ATOM     20  C   UNL     1      49.494   7.317  14.774  0.00  0.00    +0.000 C 
ATOM     21  C   UNL     1      50.525   6.781  15.800  0.00  0.00    +0.000 C 
ATOM     22  C   UNL     1      49.358   6.563  16.785  0.00  0.00    +0.000 C 
ATOM     23  C   UNL     1      48.568   7.615  15.981  0.00  0.00    +0.000 C 
BRANCH  22  24
ATOM     24  O   UNL     1      49.615   6.866  18.168  0.00  0.00    +0.000 OA
ATOM     25  H   UNL     1      48.776   7.201  18.527  0.00  0.00    +0.000 HD
ENDBRANCH  22  24
ENDBRANCH  19  20
ENDBRANCH   6  19
TORSDOF 7
ENDMDL
MODEL 5
REMARK VINA RESULT:    -6.248      4.390      8.131
REMARK INTER + INTRA:          -9.473
REMARK INTER:                  -8.855
REMARK INTRA:                  -0.618
REMARK UNBOUND:                -0.851
REMARK  Name = 
REMARK  8 active torsions:
REMARK  status: ('A' for Active; 'I' for Inactive)
REMARK    1  A    between atoms: C_1  and  S_2
REMARK    2  A    between atoms: S_2  and  C_3
REMARK    3  A    between atoms: C_6  and  C_7
REMARK    4  A    between atoms: C_7  and  C_8
REMARK    5  A    between atoms: C_8  and  N_9
REMARK    6  A    between atoms: C_14  and  O_15
REMARK    7  A    between atoms: O_15  and  C_16
REMARK    8  A    between atoms: C_18  and  O_19
REMARK                            x       y       z     vdW  Elec       q    Type
REMARK                         _______ _______ _______ _____ _____    ______ ____
ROOT
ATOM      1  N   UNL     1      44.661   6.453  10.855  0.00  0.00    +0.000 N 
ATOM      2  C   UNL     1      44.450   5.090  10.649  0.00  0.00    +0.000 A 
ATOM      3  C   UNL     1      43.679   4.312  11.512  0.00  0.00    +0.000 A 
ATOM      4  C   UNL     1      43.495   2.958  11.258  0.00  0.00    +0.000 A 
ATOM      5  C   UNL     1      44.059   2.409  10.121  0.00  0.00    +0.000 A 
ATOM      6  C   UNL     1      44.769   3.255   9.286  0.00  0.00    +0.000 A 
ATOM      7  N   UNL     1      44.988   4.571   9.523  0.00  0.00    +0.000 NA
ATOM      8  H   UNL     1      45.397   6.739  10.212  0.00  0.00    +0.000 HD
ENDROOT
BRANCH   1   9
ATOM      9  C   UNL     1      44.774   6.932  12.228  0.00  0.00    +0.000 C 
BRANCH   9  10
ATOM     10  C   UNL     1      45.628   8.202  12.311  0.00  0.00    +0.000 C 
BRANCH  10  14
ATOM     11  C   UNL     1      49.196   7.545  14.559  0.00  0.00    +0.000 A 
ATOM     12  C   UNL     1      48.791   6.566  13.661  0.00  0.00    +0.000 A 
ATOM     13  C   UNL     1      47.633   6.772  12.909  0.00  0.00    +0.000 A 
ATOM     14  C   UNL     1      46.906   7.952  13.069  0.00  0.00    +0.000 A 
ATOM     15  C   UNL     1      47.386   8.868  14.001  0.00  0.00    +0.000 A 
ATOM     16  N   UNL     1      48.504   8.690  14.743  0.00  0.00    +0.000 NA
BRANCH  11  18
ATOM     17  C   UNL     1      49.980   7.132  17.183  0.00  0.00    +0.000 C 
ATOM     18  S   UNL     1      50.678   7.271  15.517  0.00  0.00    +0.000 S 
ENDBRANCH  11  18
ENDBRANCH  10  14
ENDBRANCH   9  10
ENDBRANCH   1   9
BRANCH   6  19
ATOM     19  O   UNL     1      45.251   2.678   8.124  0.00  0.00    +0.000 OA
BRANCH  19  20
ATOM     20  C   UNL     1      46.684   2.505   8.047  0.00  0.00    +0.000 C 
ATOM     21  C   UNL     1      47.434   3.321   6.962  0.00  0.00    +0.000 C 
ATOM     22  C   UNL     1      47.298   2.104   6.024  0.00  0.00    +0.000 C 
ATOM     23  C   UNL     1      47.132   1.232   7.284  0.00  0.00    +0.000 C 
BRANCH  22  24
ATOM     24  O   UNL     1      48.427   1.811   5.180  0.00  0.00    +0.000 OA
ATOM     25  H   UNL     1      48.838   1.013   5.553  0.00  0.00    +0.000 HD
ENDBRANCH  22  24
ENDBRANCH  19  20
ENDBRANCH   6  19
TORSDOF 7
ENDMDL
MODEL 6
REMARK VINA RESULT:    -6.126      4.275      8.672
REMARK INTER + INTRA:          -9.305
REMARK INTER:                  -9.367
REMARK INTRA:                   0.062
REMARK UNBOUND:                -0.851
REMARK  Name = 
REMARK  8 active torsions:
REMARK  status: ('A' for Active; 'I' for Inactive)
REMARK    1  A    between atoms: C_1  and  S_2
REMARK    2  A    between atoms: S_2  and  C_3
REMARK    3  A    between atoms: C_6  and  C_7
REMARK    4  A    between atoms: C_7  and  C_8
REMARK    5  A    between atoms: C_8  and  N_9
REMARK    6  A    between atoms: C_14  and  O_15
REMARK    7  A    between atoms: O_15  and  C_16
REMARK    8  A    between atoms: C_18  and  O_19
REMARK                            x       y       z     vdW  Elec       q    Type
REMARK                         _______ _______ _______ _____ _____    ______ ____
ROOT
ATOM      1  N   UNL     1      47.094   3.578  14.612  0.00  0.00    +0.000 N 
ATOM      2  C   UNL     1      46.404   4.322  13.654  0.00  0.00    +0.000 A 
ATOM      3  C   UNL     1      46.396   5.717  13.653  0.00  0.00    +0.000 A 
ATOM      4  C   UNL     1      45.696   6.411  12.672  0.00  0.00    +0.000 A 
ATOM      5  C   UNL     1      45.043   5.697  11.686  0.00  0.00    +0.000 A 
ATOM      6  C   UNL     1      45.138   4.316  11.725  0.00  0.00    +0.000 A 
ATOM      7  N   UNL     1      45.789   3.613  12.683  0.00  0.00    +0.000 NA
ATOM      8  H   UNL     1      46.789   2.611  14.511  0.00  0.00    +0.000 HD
ENDROOT
BRANCH   1   9
ATOM      9  C   UNL     1      47.163   4.100  15.972  0.00  0.00    +0.000 C 
BRANCH   9  10
ATOM     10  C   UNL     1      47.601   3.019  16.967  0.00  0.00    +0.000 C 
BRANCH  10  14
ATOM     11  C   UNL     1      51.757   3.333  17.883  0.00  0.00    +0.000 A 
ATOM     12  C   UNL     1      51.284   2.135  17.364  0.00  0.00    +0.000 A 
ATOM     13  C   UNL     1      49.929   2.021  17.048  0.00  0.00    +0.000 A 
ATOM     14  C   UNL     1      49.078   3.107  17.253  0.00  0.00    +0.000 A 
ATOM     15  C   UNL     1      49.643   4.262  17.787  0.00  0.00    +0.000 A 
ATOM     16  N   UNL     1      50.953   4.396  18.104  0.00  0.00    +0.000 NA
BRANCH  11  18
ATOM     17  C   UNL     1      53.405   3.647  20.087  0.00  0.00    +0.000 C 
ATOM     18  S   UNL     1      53.492   3.469  18.286  0.00  0.00    +0.000 S 
ENDBRANCH  11  18
ENDBRANCH  10  14
ENDBRANCH   9  10
ENDBRANCH   1   9
BRANCH   6  19
ATOM     19  O   UNL     1      44.531   3.647  10.676  0.00  0.00    +0.000 OA
BRANCH  19  20
ATOM     20  C   UNL     1      44.440   4.371   9.428  0.00  0.00    +0.000 C 
ATOM     21  C   UNL     1      44.531   3.538   8.123  0.00  0.00    +0.000 C 
ATOM     22  C   UNL     1      46.048   3.823   8.106  0.00  0.00    +0.000 C 
ATOM     23  C   UNL     1      45.761   5.054   8.990  0.00  0.00    +0.000 C 
BRANCH  22  24
ATOM     24  O   UNL     1      46.643   4.076   6.821  0.00  0.00    +0.000 OA
ATOM     25  H   UNL     1      45.904   4.265   6.218  0.00  0.00    +0.000 HD
ENDBRANCH  22  24
ENDBRANCH  19  20
ENDBRANCH   6  19
TORSDOF 7
ENDMDL
MODEL 7
REMARK VINA RESULT:    -6.124      3.304      3.929
REMARK INTER + INTRA:          -9.301
REMARK INTER:                  -8.526
REMARK INTRA:                  -0.775
REMARK UNBOUND:                -0.851
REMARK  Name = 
REMARK  8 active torsions:
REMARK  status: ('A' for Active; 'I' for Inactive)
REMARK    1  A    between atoms: C_1  and  S_2
REMARK    2  A    between atoms: S_2  and  C_3
REMARK    3  A    between atoms: C_6  and  C_7
REMARK    4  A    between atoms: C_7  and  C_8
REMARK    5  A    between atoms: C_8  and  N_9
REMARK    6  A    between atoms: C_14  and  O_15
REMARK    7  A    between atoms: O_15  and  C_16
REMARK    8  A    between atoms: C_18  and  O_19
REMARK                            x       y       z     vdW  Elec       q    Type
REMARK                         _______ _______ _______ _____ _____    ______ ____
ROOT
ATOM      1  N   UNL     1      44.176   6.211  12.620  0.00  0.00    +0.000 N 
ATOM      2  C   UNL     1      44.973   7.348  12.486  0.00  0.00    +0.000 A 
ATOM      3  C   UNL     1      44.608   8.428  11.682  0.00  0.00    +0.000 A 
ATOM      4  C   UNL     1      45.436   9.540  11.587  0.00  0.00    +0.000 A 
ATOM      5  C   UNL     1      46.603   9.569  12.327  0.00  0.00    +0.000 A 
ATOM      6  C   UNL     1      46.873   8.481  13.140  0.00  0.00    +0.000 A 
ATOM      7  N   UNL     1      46.100   7.373  13.231  0.00  0.00    +0.000 NA
ATOM      8  H   UNL     1      44.741   5.507  13.092  0.00  0.00    +0.000 HD
ENDROOT
BRANCH   1   9
ATOM      9  C   UNL     1      43.415   5.762  11.459  0.00  0.00    +0.000 C 
BRANCH   9  10
ATOM     10  C   UNL     1      43.518   4.245  11.273  0.00  0.00    +0.000 C 
BRANCH  10  14
ATOM     11  C   UNL     1      45.828   3.348   7.797  0.00  0.00    +0.000 A 
ATOM     12  C   UNL     1      45.185   2.304   8.451  0.00  0.00    +0.000 A 
ATOM     13  C   UNL     1      44.416   2.583   9.582  0.00  0.00    +0.000 A 
ATOM     14  C   UNL     1      44.303   3.899  10.033  0.00  0.00    +0.000 A 
ATOM     15  C   UNL     1      44.992   4.874   9.318  0.00  0.00    +0.000 A 
ATOM     16  N   UNL     1      45.746   4.628   8.221  0.00  0.00    +0.000 NA
BRANCH  11  18
ATOM     17  C   UNL     1      47.816   1.605   6.971  0.00  0.00    +0.000 C 
ATOM     18  S   UNL     1      46.811   2.980   6.353  0.00  0.00    +0.000 S 
ENDBRANCH  11  18
ENDBRANCH  10  14
ENDBRANCH   9  10
ENDBRANCH   1   9
BRANCH   6  19
ATOM     19  O   UNL     1      48.014   8.588  13.918  0.00  0.00    +0.000 OA
BRANCH  19  20
ATOM     20  C   UNL     1      48.998   7.543  13.749  0.00  0.00    +0.000 C 
ATOM     21  C   UNL     1      50.472   7.907  14.065  0.00  0.00    +0.000 C 
ATOM     22  C   UNL     1      50.658   8.239  12.569  0.00  0.00    +0.000 C 
ATOM     23  C   UNL     1      49.450   7.325  12.282  0.00  0.00    +0.000 C 
BRANCH  22  24
ATOM     24  O   UNL     1      51.912   7.859  11.974  0.00  0.00    +0.000 OA
ATOM     25  H   UNL     1      51.880   8.181  11.057  0.00  0.00    +0.000 HD
ENDBRANCH  22  24
ENDBRANCH  19  20
ENDBRANCH   6  19
TORSDOF 7
ENDMDL
MODEL 8
REMARK VINA RESULT:    -5.937      4.009      8.100
REMARK INTER + INTRA:          -9.043
REMARK INTER:                  -8.706
REMARK INTRA:                  -0.337
REMARK UNBOUND:                -0.851
REMARK  Name = 
REMARK  8 active torsions:
REMARK  status: ('A' for Active; 'I' for Inactive)
REMARK    1  A    between atoms: C_1  and  S_2
REMARK    2  A    between atoms: S_2  and  C_3
REMARK    3  A    between atoms: C_6  and  C_7
REMARK    4  A    between atoms: C_7  and  C_8
REMARK    5  A    between atoms: C_8  and  N_9
REMARK    6  A    between atoms: C_14  and  O_15
REMARK    7  A    between atoms: O_15  and  C_16
REMARK    8  A    between atoms: C_18  and  O_19
REMARK                            x       y       z     vdW  Elec       q    Type
REMARK                         _______ _______ _______ _____ _____    ______ ____
ROOT
ATOM      1  N   UNL     1      45.617   7.223  11.642  0.00  0.00    +0.000 N 
ATOM      2  C   UNL     1      44.884   6.037  11.680  0.00  0.00    +0.000 A 
ATOM      3  C   UNL     1      43.624   5.954  12.272  0.00  0.00    +0.000 A 
ATOM      4  C   UNL     1      42.933   4.747  12.278  0.00  0.00    +0.000 A 
ATOM      5  C   UNL     1      43.500   3.649  11.660  0.00  0.00    +0.000 A 
ATOM      6  C   UNL     1      44.731   3.822  11.051  0.00  0.00    +0.000 A 
ATOM      7  N   UNL     1      45.440   4.977  11.053  0.00  0.00    +0.000 NA
ATOM      8  H   UNL     1      46.558   6.980  11.339  0.00  0.00    +0.000 HD
ENDROOT
BRANCH   1   9
ATOM      9  C   UNL     1      45.514   8.133  12.778  0.00  0.00    +0.000 C 
BRANCH   9  10
ATOM     10  C   UNL     1      46.828   8.885  13.016  0.00  0.00    +0.000 C 
BRANCH  10  14
ATOM     11  C   UNL     1      49.269   6.883  15.888  0.00  0.00    +0.000 A 
ATOM     12  C   UNL     1      48.936   8.211  16.116  0.00  0.00    +0.000 A 
ATOM     13  C   UNL     1      48.128   8.877  15.192  0.00  0.00    +0.000 A 
ATOM     14  C   UNL     1      47.668   8.199  14.062  0.00  0.00    +0.000 A 
ATOM     15  C   UNL     1      48.065   6.873  13.916  0.00  0.00    +0.000 A 
ATOM     16  N   UNL     1      48.849   6.207  14.796  0.00  0.00    +0.000 NA
BRANCH  11  18
ATOM     17  C   UNL     1      49.521   6.550  18.626  0.00  0.00    +0.000 C 
ATOM     18  S   UNL     1      50.305   6.042  17.074  0.00  0.00    +0.000 S 
ENDBRANCH  11  18
ENDBRANCH  10  14
ENDBRANCH   9  10
ENDBRANCH   1   9
BRANCH   6  19
ATOM     19  O   UNL     1      45.225   2.716  10.380  0.00  0.00    +0.000 OA
BRANCH  19  20
ATOM     20  C   UNL     1      44.879   2.613   8.981  0.00  0.00    +0.000 C 
ATOM     21  C   UNL     1      46.002   2.170   8.009  0.00  0.00    +0.000 C 
ATOM     22  C   UNL     1      46.307   3.662   7.760  0.00  0.00    +0.000 C 
ATOM     23  C   UNL     1      44.869   3.967   8.226  0.00  0.00    +0.000 C 
BRANCH  22  24
ATOM     24  O   UNL     1      46.642   4.037   6.411  0.00  0.00    +0.000 OA
ATOM     25  H   UNL     1      47.301   4.748   6.489  0.00  0.00    +0.000 HD
ENDBRANCH  22  24
ENDBRANCH  19  20
ENDBRANCH   6  19
TORSDOF 7
ENDMDL
MODEL 9
REMARK VINA RESULT:    -5.798      2.614      4.046
REMARK INTER + INTRA:          -8.852
REMARK INTER:                  -8.127
REMARK INTRA:                  -0.725
REMARK UNBOUND:                -0.851
REMARK  Name = 
REMARK  8 active torsions:
REMARK  status: ('A' for Active; 'I' for Inactive)
REMARK    1  A    between atoms: C_1  and  S_2
REMARK    2  A    between atoms: S_2  and  C_3
REMARK    3  A    between atoms: C_6  and  C_7
REMARK    4  A    between atoms: C_7  and  C_8
REMARK    5  A    between atoms: C_8  and  N_9
REMARK    6  A    between atoms: C_14  and  O_15
REMARK    7  A    between atoms: O_15  and  C_16
REMARK    8  A    between atoms: C_18  and  O_19
REMARK                            x       y       z     vdW  Elec       q    Type
REMARK                         _______ _______ _______ _____ _____    ______ ____
ROOT
ATOM      1  N   UNL     1      45.162   5.911  11.642  0.00  0.00    +0.000 N 
ATOM      2  C   UNL     1      46.056   5.875  12.712  0.00  0.00    +0.000 A 
ATOM      3  C   UNL     1      46.303   4.713  13.442  0.00  0.00    +0.000 A 
ATOM      4  C   UNL     1      47.209   4.730  14.497  0.00  0.00    +0.000 A 
ATOM      5  C   UNL     1      47.881   5.903  14.782  0.00  0.00    +0.000 A 
ATOM      6  C   UNL     1      47.619   7.002  13.982  0.00  0.00    +0.000 A 
ATOM      7  N   UNL     1      46.722   7.023  12.967  0.00  0.00    +0.000 NA
ATOM      8  H   UNL     1      45.017   6.893  11.410  0.00  0.00    +0.000 HD
ENDROOT
BRANCH   1   9
ATOM      9  C   UNL     1      43.967   5.078  11.715  0.00  0.00    +0.000 C 
BRANCH   9  10
ATOM     10  C   UNL     1      43.419   4.759  10.320  0.00  0.00    +0.000 C 
BRANCH  10  14
ATOM     11  C   UNL     1      46.021   2.172   8.138  0.00  0.00    +0.000 A 
ATOM     12  C   UNL     1      45.983   3.516   7.791  0.00  0.00    +0.000 A 
ATOM     13  C   UNL     1      45.146   4.378   8.503  0.00  0.00    +0.000 A 
ATOM     14  C   UNL     1      44.368   3.877   9.549  0.00  0.00    +0.000 A 
ATOM     15  C   UNL     1      44.467   2.515   9.814  0.00  0.00    +0.000 A 
ATOM     16  N   UNL     1      45.268   1.660   9.136  0.00  0.00    +0.000 NA
BRANCH  11  18
ATOM     17  C   UNL     1      47.858   2.248   6.067  0.00  0.00    +0.000 C 
ATOM     18  S   UNL     1      47.092   1.079   7.219  0.00  0.00    +0.000 S 
ENDBRANCH  11  18
ENDBRANCH  10  14
ENDBRANCH   9  10
ENDBRANCH   1   9
BRANCH   6  19
ATOM     19  O   UNL     1      48.369   8.133  14.258  0.00  0.00    +0.000 OA
BRANCH  19  20
ATOM     20  C   UNL     1      49.101   8.697  13.147  0.00  0.00    +0.000 C 
ATOM     21  C   UNL     1      49.970   7.722  12.310  0.00  0.00    +0.000 C 
ATOM     22  C   UNL     1      51.167   8.097  13.209  0.00  0.00    +0.000 C 
ATOM     23  C   UNL     1      50.422   9.404  13.547  0.00  0.00    +0.000 C 
BRANCH  22  24
ATOM     24  O   UNL     1      52.445   8.232  12.560  0.00  0.00    +0.000 OA
ATOM     25  H   UNL     1      52.513   9.166  12.299  0.00  0.00    +0.000 HD
ENDBRANCH  22  24
ENDBRANCH  19  20
ENDBRANCH   6  19
TORSDOF 7
ENDMDL
