MODEL 1
REMARK VINA RESULT:    -7.780      0.000      0.000
REMARK INTER + INTRA:         -10.349
REMARK INTER:                  -9.827
REMARK INTRA:                  -0.522
REMARK UNBOUND:                -0.522
REMARK  Name = 
REMARK  5 active torsions:
REMARK  status: ('A' for Active; 'I' for Inactive)
REMARK    1  A    between atoms: N_1  and  C_2
REMARK    2  A    between atoms: C_2  and  C_3
REMARK    3  A    between atoms: C_3  and  C_4
REMARK    4  A    between atoms: C_7  and  C_8
REMARK    5  A    between atoms: C_8  and  N_9
REMARK                            x       y       z     vdW  Elec       q    Type
REMARK                         _______ _______ _______ _____ _____    ______ ____
ROOT
ATOM      1  C   UNL     1      45.860   3.190   7.716  0.00  0.00    +0.000 A 
ATOM      2  C   UNL     1      45.443   2.160   8.554  0.00  0.00    +0.000 A 
ATOM      3  C   UNL     1      44.922   2.476   9.806  0.00  0.00    +0.000 A 
ATOM      4  C   UNL     1      44.836   3.812  10.205  0.00  0.00    +0.000 A 
ATOM      5  C   UNL     1      45.283   4.772   9.306  0.00  0.00    +0.000 A 
ATOM      6  N   UNL     1      45.783   4.492   8.080  0.00  0.00    +0.000 NA
ENDROOT
BRANCH   1   7
ATOM      7  C   UNL     1      46.464   2.889   6.368  0.00  0.00    +0.000 C 
BRANCH   7   8
ATOM      8  C   UNL     1      47.365   1.654   6.436  0.00  0.00    +0.000 C 
BRANCH   8   9
ATOM      9  N   UNL     1      48.592   1.847   5.659  0.00  0.00    +0.000 NA
ATOM     10  H   UNL     1      49.111   2.633   6.050  0.00  0.00    +0.000 HD
ATOM     11  H   UNL     1      48.346   2.124   4.709  0.00  0.00    +0.000 HD
ENDBRANCH   8   9
ENDBRANCH   7   8
ENDBRANCH   1   7
BRANCH   4  12
ATOM     12  C   UNL     1      44.299   4.213  11.548  0.00  0.00    +0.000 C 
BRANCH  12  13
ATOM     13  N   UNL     1      45.359   4.435  12.522  0.00  0.00    +0.000 N 
ATOM     14  N   UNL     1      45.902   3.373  13.157  0.00  0.00    +0.000 NA
ATOM     15  C   UNL     1      46.905   3.902  13.864  0.00  0.00    +0.000 A 
ATOM     16  C   UNL     1      47.028   5.295  13.677  0.00  0.00    +0.000 A 
ATOM     17  C   UNL     1      47.895   6.300  14.141  0.00  0.00    +0.000 A 
ATOM     18  C   UNL     1      47.688   7.605  13.699  0.00  0.00    +0.000 A 
ATOM     19  F   UNL     1      48.516   8.573  14.115  0.00  0.00    +0.000 F 
ATOM     20  C   UNL     1      46.651   7.931  12.832  0.00  0.00    +0.000 A 
ATOM     21  C   UNL     1      45.776   6.944  12.364  0.00  0.00    +0.000 A 
ATOM     22  C   UNL     1      45.995   5.626  12.801  0.00  0.00    +0.000 A 
ENDBRANCH  12  13
ENDBRANCH   4  12
TORSDOF 5
ENDMDL
MODEL 2
REMARK VINA RESULT:    -7.397      1.693      2.333
REMARK INTER + INTRA:          -9.865
REMARK INTER:                  -9.284
REMARK INTRA:                  -0.581
REMARK UNBOUND:                -0.522
REMARK  Name = 
REMARK  5 active torsions:
REMARK  status: ('A' for Active; 'I' for Inactive)
REMARK    1  A    between atoms: N_1  and  C_2
REMARK    2  A    between atoms: C_2  and  C_3
REMARK    3  A    between atoms: C_3  and  C_4
REMARK    4  A    between atoms: C_7  and  C_8
REMARK    5  A    between atoms: C_8  and  N_9
REMARK                            x       y       z     vdW  Elec       q    Type
REMARK                         _______ _______ _______ _____ _____    ______ ____
ROOT
ATOM      1  C   UNL     1      46.036   2.332   8.048  0.00  0.00    +0.000 A 
ATOM      2  C   UNL     1      46.088   3.716   7.907  0.00  0.00    +0.000 A 
ATOM      3  C   UNL     1      45.292   4.509   8.729  0.00  0.00    +0.000 A 
ATOM      4  C   UNL     1      44.451   3.910   9.669  0.00  0.00    +0.000 A 
ATOM      5  C   UNL     1      44.459   2.522   9.734  0.00  0.00    +0.000 A 
ATOM      6  N   UNL     1      45.231   1.729   8.954  0.00  0.00    +0.000 NA
ENDROOT
BRANCH   1   7
ATOM      7  C   UNL     1      46.854   1.436   7.153  0.00  0.00    +0.000 C 
BRANCH   7   8
ATOM      8  C   UNL     1      48.169   2.109   6.757  0.00  0.00    +0.000 C 
BRANCH   8   9
ATOM      9  N   UNL     1      48.438   1.952   5.326  0.00  0.00    +0.000 NA
ATOM     10  H   UNL     1      48.710   2.856   4.939  0.00  0.00    +0.000 HD
ATOM     11  H   UNL     1      47.573   1.697   4.849  0.00  0.00    +0.000 HD
ENDBRANCH   8   9
ENDBRANCH   7   8
ENDBRANCH   1   7
BRANCH   4  12
ATOM     12  C   UNL     1      43.558   4.713  10.571  0.00  0.00    +0.000 C 
BRANCH  12  13
ATOM     13  N   UNL     1      44.312   5.475  11.556  0.00  0.00    +0.000 N 
ATOM     14  N   UNL     1      45.067   4.816  12.463  0.00  0.00    +0.000 NA
ATOM     15  C   UNL     1      45.708   5.790  13.114  0.00  0.00    +0.000 A 
ATOM     16  C   UNL     1      45.389   7.075  12.624  0.00  0.00    +0.000 A 
ATOM     17  C   UNL     1      45.786   8.391  12.919  0.00  0.00    +0.000 A 
ATOM     18  C   UNL     1      45.232   9.429  12.173  0.00  0.00    +0.000 A 
ATOM     19  F   UNL     1      45.611  10.689  12.427  0.00  0.00    +0.000 F 
ATOM     20  C   UNL     1      44.300   9.195  11.169  0.00  0.00    +0.000 A 
ATOM     21  C   UNL     1      43.891   7.892  10.865  0.00  0.00    +0.000 A 
ATOM     22  C   UNL     1      44.462   6.845  11.609  0.00  0.00    +0.000 A 
ENDBRANCH  12  13
ENDBRANCH   4  12
TORSDOF 5
ENDMDL
MODEL 3
REMARK VINA RESULT:    -7.087      1.013      1.948
REMARK INTER + INTRA:          -9.474
REMARK INTER:                  -9.170
REMARK INTRA:                  -0.304
REMARK UNBOUND:                -0.522
REMARK  Name = 
REMARK  5 active torsions:
REMARK  status: ('A' for Active; 'I' for Inactive)
REMARK    1  A    between atoms: N_1  and  C_2
REMARK    2  A    between atoms: C_2  and  C_3
REMARK    3  A    between atoms: C_3  and  C_4
REMARK    4  A    between atoms: C_7  and  C_8
REMARK    5  A    between atoms: C_8  and  N_9
REMARK                            x       y       z     vdW  Elec       q    Type
REMARK                         _______ _______ _______ _____ _____    ______ ____
ROOT
ATOM      1  C   UNL     1      45.882   3.322   7.771  0.00  0.00    +0.000 A 
ATOM      2  C   UNL     1      45.306   2.403   8.643  0.00  0.00    +0.000 A 
ATOM      3  C   UNL     1      44.820   2.848   9.870  0.00  0.00    +0.000 A 
ATOM      4  C   UNL     1      44.926   4.199  10.210  0.00  0.00    +0.000 A 
ATOM      5  C   UNL     1      45.524   5.041   9.281  0.00  0.00    +0.000 A 
ATOM      6  N   UNL     1      45.994   4.635   8.078  0.00  0.00    +0.000 NA
ENDROOT
BRANCH   1   7
ATOM      7  C   UNL     1      46.454   2.874   6.450  0.00  0.00    +0.000 C 
BRANCH   7   8
ATOM      8  C   UNL     1      47.407   1.692   6.638  0.00  0.00    +0.000 C 
BRANCH   8   9
ATOM      9  N   UNL     1      48.558   1.788   5.737  0.00  0.00    +0.000 NA
ATOM     10  H   UNL     1      48.680   2.762   5.459  0.00  0.00    +0.000 HD
ATOM     11  H   UNL     1      48.353   1.278   4.877  0.00  0.00    +0.000 HD
ENDBRANCH   8   9
ENDBRANCH   7   8
ENDBRANCH   1   7
BRANCH   4  12
ATOM     12  C   UNL     1      44.436   4.734  11.524  0.00  0.00    +0.000 C 
BRANCH  12  13
ATOM     13  N   UNL     1      44.953   6.067  11.803  0.00  0.00    +0.000 N 
ATOM     14  N   UNL     1      44.242   7.146  11.406  0.00  0.00    +0.000 NA
ATOM     15  C   UNL     1      44.915   8.179  11.919  0.00  0.00    +0.000 A 
ATOM     16  C   UNL     1      46.045   7.778  12.662  0.00  0.00    +0.000 A 
ATOM     17  C   UNL     1      47.043   8.432  13.406  0.00  0.00    +0.000 A 
ATOM     18  C   UNL     1      48.018   7.653  14.027  0.00  0.00    +0.000 A 
ATOM     19  F   UNL     1      48.967   8.256  14.757  0.00  0.00    +0.000 F 
ATOM     20  C   UNL     1      48.031   6.267  13.917  0.00  0.00    +0.000 A 
ATOM     21  C   UNL     1      47.048   5.601  13.177  0.00  0.00    +0.000 A 
ATOM     22  C   UNL     1      46.058   6.388  12.563  0.00  0.00    +0.000 A 
ENDBRANCH  12  13
ENDBRANCH   4  12
TORSDOF 5
ENDMDL
MODEL 4
REMARK VINA RESULT:    -6.944      3.199      6.353
REMARK INTER + INTRA:          -9.292
REMARK INTER:                  -8.484
REMARK INTRA:                  -0.808
REMARK UNBOUND:                -0.522
REMARK  Name = 
REMARK  5 active torsions:
REMARK  status: ('A' for Active; 'I' for Inactive)
REMARK    1  A    between atoms: N_1  and  C_2
REMARK    2  A    between atoms: C_2  and  C_3
REMARK    3  A    between atoms: C_3  and  C_4
REMARK    4  A    between atoms: C_7  and  C_8
REMARK    5  A    between atoms: C_8  and  N_9
REMARK                            x       y       z     vdW  Elec       q    Type
REMARK                         _______ _______ _______ _____ _____    ______ ____
ROOT
ATOM      1  C   UNL     1      46.612   7.631  13.097  0.00  0.00    +0.000 A 
ATOM      2  C   UNL     1      45.886   8.349  12.151  0.00  0.00    +0.000 A 
ATOM      3  C   UNL     1      44.859   7.712  11.460  0.00  0.00    +0.000 A 
ATOM      4  C   UNL     1      44.580   6.367  11.716  0.00  0.00    +0.000 A 
ATOM      5  C   UNL     1      45.362   5.728  12.671  0.00  0.00    +0.000 A 
ATOM      6  N   UNL     1      46.358   6.329  13.364  0.00  0.00    +0.000 NA
ENDROOT
BRANCH   1   7
ATOM      7  C   UNL     1      47.756   8.274  13.839  0.00  0.00    +0.000 C 
BRANCH   7   8
ATOM      8  C   UNL     1      48.864   7.258  14.123  0.00  0.00    +0.000 C 
BRANCH   8   9
ATOM      9  N   UNL     1      49.308   6.597  12.893  0.00  0.00    +0.000 NA
ATOM     10  H   UNL     1      49.859   7.257  12.344  0.00  0.00    +0.000 HD
ATOM     11  H   UNL     1      48.493   6.374  12.321  0.00  0.00    +0.000 HD
ENDBRANCH   8   9
ENDBRANCH   7   8
ENDBRANCH   1   7
BRANCH   4  12
ATOM     12  C   UNL     1      43.497   5.622  10.992  0.00  0.00    +0.000 C 
BRANCH  12  13
ATOM     13  N   UNL     1      43.898   4.266  10.645  0.00  0.00    +0.000 N 
ATOM     14  N   UNL     1      43.311   3.224  11.276  0.00  0.00    +0.000 NA
ATOM     15  C   UNL     1      43.801   2.152  10.647  0.00  0.00    +0.000 A 
ATOM     16  C   UNL     1      44.686   2.491   9.601  0.00  0.00    +0.000 A 
ATOM     17  C   UNL     1      45.429   1.781   8.642  0.00  0.00    +0.000 A 
ATOM     18  C   UNL     1      46.204   2.506   7.739  0.00  0.00    +0.000 A 
ATOM     19  F   UNL     1      46.904   1.848   6.805  0.00  0.00    +0.000 F 
ATOM     20  C   UNL     1      46.265   3.895   7.774  0.00  0.00    +0.000 A 
ATOM     21  C   UNL     1      45.535   4.617   8.724  0.00  0.00    +0.000 A 
ATOM     22  C   UNL     1      44.744   3.884   9.626  0.00  0.00    +0.000 A 
ENDBRANCH  12  13
ENDBRANCH   4  12
TORSDOF 5
ENDMDL
MODEL 5
REMARK VINA RESULT:    -6.790      2.989      6.708
REMARK INTER + INTRA:          -9.099
REMARK INTER:                  -8.383
REMARK INTRA:                  -0.716
REMARK UNBOUND:                -0.522
REMARK  Name = 
REMARK  5 active torsions:
REMARK  status: ('A' for Active; 'I' for Inactive)
REMARK    1  A    between atoms: N_1  and  C_2
REMARK    2  A    between atoms: C_2  and  C_3
REMARK    3  A    between atoms: C_3  and  C_4
REMARK    4  A    between atoms: C_7  and  C_8
REMARK    5  A    between atoms: C_8  and  N_9
REMARK                            x       y       z     vdW  Elec       q    Type
REMARK                         _______ _______ _______ _____ _____    ______ ____
ROOT
ATOM      1  C   UNL     1      46.640   5.323  13.601  0.00  0.00    +0.000 A 
ATOM      2  C   UNL     1      46.721   6.225  12.544  0.00  0.00    +0.000 A 
ATOM      3  C   UNL     1      45.960   5.996  11.400  0.00  0.00    +0.000 A 
ATOM      4  C   UNL     1      45.140   4.867  11.326  0.00  0.00    +0.000 A 
ATOM      5  C   UNL     1      45.129   4.019  12.427  0.00  0.00    +0.000 A 
ATOM      6  N   UNL     1      45.850   4.225  13.553  0.00  0.00    +0.000 NA
ENDROOT
BRANCH   1   7
ATOM      7  C   UNL     1      47.475   5.515  14.841  0.00  0.00    +0.000 C 
BRANCH   7   8
ATOM      8  C   UNL     1      47.287   4.348  15.814  0.00  0.00    +0.000 C 
BRANCH   8   9
ATOM      9  N   UNL     1      47.888   3.118  15.292  0.00  0.00    +0.000 NA
ATOM     10  H   UNL     1      47.474   2.907  14.384  0.00  0.00    +0.000 HD
ATOM     11  H   UNL     1      47.633   2.338  15.899  0.00  0.00    +0.000 HD
ENDBRANCH   8   9
ENDBRANCH   7   8
ENDBRANCH   1   7
BRANCH   4  12
ATOM     12  C   UNL     1      44.310   4.559  10.114  0.00  0.00    +0.000 C 
BRANCH  12  13
ATOM     13  N   UNL     1      44.779   3.372   9.412  0.00  0.00    +0.000 N 
ATOM     14  N   UNL     1      44.207   2.178   9.683  0.00  0.00    +0.000 NA
ATOM     15  C   UNL     1      44.766   1.348   8.799  0.00  0.00    +0.000 A 
ATOM     16  C   UNL     1      45.681   1.998   7.944  0.00  0.00    +0.000 A 
ATOM     17  C   UNL     1      46.493   1.615   6.861  0.00  0.00    +0.000 A 
ATOM     18  C   UNL     1      47.276   2.591   6.247  0.00  0.00    +0.000 A 
ATOM     19  F   UNL     1      48.042   2.250   5.202  0.00  0.00    +0.000 F 
ATOM     20  C   UNL     1      47.281   3.911   6.685  0.00  0.00    +0.000 A 
ATOM     21  C   UNL     1      46.483   4.308   7.763  0.00  0.00    +0.000 A 
ATOM     22  C   UNL     1      45.683   3.325   8.372  0.00  0.00    +0.000 A 
ENDBRANCH  12  13
ENDBRANCH   4  12
TORSDOF 5
ENDMDL
MODEL 6
REMARK VINA RESULT:    -6.491      3.031      6.768
REMARK INTER + INTRA:          -8.720
REMARK INTER:                  -8.110
REMARK INTRA:                  -0.609
REMARK UNBOUND:                -0.522
REMARK  Name = 
REMARK  5 active torsions:
REMARK  status: ('A' for Active; 'I' for Inactive)
REMARK    1  A    between atoms: N_1  and  C_2
REMARK    2  A    between atoms: C_2  and  C_3
REMARK    3  A    between atoms: C_3  and  C_4
REMARK    4  A    between atoms: C_7  and  C_8
REMARK    5  A    between atoms: C_8  and  N_9
REMARK                            x       y       z     vdW  Elec       q    Type
REMARK                         _______ _______ _______ _____ _____    ______ ____
ROOT
ATOM      1  C   UNL     1      47.163   6.428  13.406  0.00  0.00    +0.000 A 
ATOM      2  C   UNL     1      46.953   7.143  12.231  0.00  0.00    +0.000 A 
ATOM      3  C   UNL     1      45.953   6.726  11.356  0.00  0.00    +0.000 A 
ATOM      4  C   UNL     1      45.188   5.598  11.662  0.00  0.00    +0.000 A 
ATOM      5  C   UNL     1      45.475   4.942  12.853  0.00  0.00    +0.000 A 
ATOM      6  N   UNL     1      46.433   5.333  13.725  0.00  0.00    +0.000 NA
ENDROOT
BRANCH   1   7
ATOM      7  C   UNL     1      48.260   6.823  14.362  0.00  0.00    +0.000 C 
BRANCH   7   8
ATOM      8  C   UNL     1      48.436   8.343  14.394  0.00  0.00    +0.000 C 
BRANCH   8   9
ATOM      9  N   UNL     1      47.479   8.971  15.308  0.00  0.00    +0.000 NA
ATOM     10  H   UNL     1      47.799   9.915  15.524  0.00  0.00    +0.000 HD
ATOM     11  H   UNL     1      47.485   8.467  16.195  0.00  0.00    +0.000 HD
ENDBRANCH   8   9
ENDBRANCH   7   8
ENDBRANCH   1   7
BRANCH   4  12
ATOM     12  C   UNL     1      44.109   5.091  10.750  0.00  0.00    +0.000 C 
BRANCH  12  13
ATOM     13  N   UNL     1      44.480   3.844  10.096  0.00  0.00    +0.000 N 
ATOM     14  N   UNL     1      43.872   2.696  10.471  0.00  0.00    +0.000 NA
ATOM     15  C   UNL     1      44.339   1.791   9.607  0.00  0.00    +0.000 A 
ATOM     16  C   UNL     1      45.229   2.345   8.663  0.00  0.00    +0.000 A 
ATOM     17  C   UNL     1      45.955   1.862   7.561  0.00  0.00    +0.000 A 
ATOM     18  C   UNL     1      46.743   2.762   6.845  0.00  0.00    +0.000 A 
ATOM     19  F   UNL     1      47.428   2.324   5.780  0.00  0.00    +0.000 F 
ATOM     20  C   UNL     1      46.834   4.102   7.201  0.00  0.00    +0.000 A 
ATOM     21  C   UNL     1      46.121   4.599   8.298  0.00  0.00    +0.000 A 
ATOM     22  C   UNL     1      45.317   3.693   9.010  0.00  0.00    +0.000 A 
ENDBRANCH  12  13
ENDBRANCH   4  12
TORSDOF 5
ENDMDL
MODEL 7
REMARK VINA RESULT:    -6.081      1.929      2.784
REMARK INTER + INTRA:          -8.202
REMARK INTER:                  -7.729
REMARK INTRA:                  -0.473
REMARK UNBOUND:                -0.522
REMARK  Name = 
REMARK  5 active torsions:
REMARK  status: ('A' for Active; 'I' for Inactive)
REMARK    1  A    between atoms: N_1  and  C_2
REMARK    2  A    between atoms: C_2  and  C_3
REMARK    3  A    between atoms: C_3  and  C_4
REMARK    4  A    between atoms: C_7  and  C_8
REMARK    5  A    between atoms: C_8  and  N_9
REMARK                            x       y       z     vdW  Elec       q    Type
REMARK                         _______ _______ _______ _____ _____    ______ ____
ROOT
ATOM      1  C   UNL     1      45.172   2.713   9.148  0.00  0.00    +0.000 A 
ATOM      2  C   UNL     1      45.643   3.925   8.651  0.00  0.00    +0.000 A 
ATOM      3  C   UNL     1      45.502   5.073   9.426  0.00  0.00    +0.000 A 
ATOM      4  C   UNL     1      44.885   4.996  10.676  0.00  0.00    +0.000 A 
ATOM      5  C   UNL     1      44.438   3.746  11.086  0.00  0.00    +0.000 A 
ATOM      6  N   UNL     1      44.573   2.613  10.358  0.00  0.00    +0.000 NA
ENDROOT
BRANCH   1   7
ATOM      7  C   UNL     1      45.271   1.454   8.326  0.00  0.00    +0.000 C 
BRANCH   7   8
ATOM      8  C   UNL     1      46.696   1.249   7.807  0.00  0.00    +0.000 C 
BRANCH   8   9
ATOM      9  N   UNL     1      47.059  -0.170   7.791  0.00  0.00    +0.000 NA
ATOM     10  H   UNL     1      47.960  -0.276   7.327  0.00  0.00    +0.000 HD
ATOM     11  H   UNL     1      46.389  -0.679   7.212  0.00  0.00    +0.000 HD
ENDBRANCH   8   9
ENDBRANCH   7   8
ENDBRANCH   1   7
BRANCH   4  12
ATOM     12  C   UNL     1      44.689   6.202  11.548  0.00  0.00    +0.000 C 
BRANCH  12  13
ATOM     13  N   UNL     1      45.916   6.596  12.228  0.00  0.00    +0.000 N 
ATOM     14  N   UNL     1      46.514   7.759  11.888  0.00  0.00    +0.000 NA
ATOM     15  C   UNL     1      47.512   7.875  12.768  0.00  0.00    +0.000 A 
ATOM     16  C   UNL     1      47.555   6.805  13.687  0.00  0.00    +0.000 A 
ATOM     17  C   UNL     1      48.353   6.460  14.793  0.00  0.00    +0.000 A 
ATOM     18  C   UNL     1      48.057   5.282  15.477  0.00  0.00    +0.000 A 
ATOM     19  F   UNL     1      48.794   4.946  16.544  0.00  0.00    +0.000 F 
ATOM     20  C   UNL     1      47.014   4.450  15.087  0.00  0.00    +0.000 A 
ATOM     21  C   UNL     1      46.213   4.775  13.988  0.00  0.00    +0.000 A 
ATOM     22  C   UNL     1      46.505   5.971  13.307  0.00  0.00    +0.000 A 
ENDBRANCH  12  13
ENDBRANCH   4  12
TORSDOF 5
ENDMDL
MODEL 8
REMARK VINA RESULT:    -5.981      2.072      3.140
REMARK INTER + INTRA:          -8.076
REMARK INTER:                  -7.522
REMARK INTRA:                  -0.554
REMARK UNBOUND:                -0.522
REMARK  Name = 
REMARK  5 active torsions:
REMARK  status: ('A' for Active; 'I' for Inactive)
REMARK    1  A    between atoms: N_1  and  C_2
REMARK    2  A    between atoms: C_2  and  C_3
REMARK    3  A    between atoms: C_3  and  C_4
REMARK    4  A    between atoms: C_7  and  C_8
REMARK    5  A    between atoms: C_8  and  N_9
REMARK                            x       y       z     vdW  Elec       q    Type
REMARK                         _______ _______ _______ _____ _____    ______ ____
ROOT
ATOM      1  C   UNL     1      45.143   3.832   9.147  0.00  0.00    +0.000 A 
ATOM      2  C   UNL     1      44.811   3.216  10.350  0.00  0.00    +0.000 A 
ATOM      3  C   UNL     1      44.950   3.932  11.536  0.00  0.00    +0.000 A 
ATOM      4  C   UNL     1      45.428   5.244  11.504  0.00  0.00    +0.000 A 
ATOM      5  C   UNL     1      45.742   5.774  10.259  0.00  0.00    +0.000 A 
ATOM      6  N   UNL     1      45.606   5.104   9.090  0.00  0.00    +0.000 NA
ENDROOT
BRANCH   1   7
ATOM      7  C   UNL     1      45.043   3.080   7.844  0.00  0.00    +0.000 C 
BRANCH   7   8
ATOM      8  C   UNL     1      46.423   2.901   7.208  0.00  0.00    +0.000 C 
BRANCH   8   9
ATOM      9  N   UNL     1      46.878   4.136   6.564  0.00  0.00    +0.000 NA
ATOM     10  H   UNL     1      46.141   4.837   6.637  0.00  0.00    +0.000 HD
ATOM     11  H   UNL     1      46.999   3.966   5.565  0.00  0.00    +0.000 HD
ENDBRANCH   8   9
ENDBRANCH   7   8
ENDBRANCH   1   7
BRANCH   4  12
ATOM     12  C   UNL     1      45.615   6.059  12.751  0.00  0.00    +0.000 C 
BRANCH  12  13
ATOM     13  N   UNL     1      46.096   7.403  12.464  0.00  0.00    +0.000 N 
ATOM     14  N   UNL     1      45.223   8.435  12.487  0.00  0.00    +0.000 NA
ATOM     15  C   UNL     1      45.995   9.511  12.314  0.00  0.00    +0.000 A 
ATOM     16  C   UNL     1      47.364   9.187  12.197  0.00  0.00    +0.000 A 
ATOM     17  C   UNL     1      48.559   9.910  12.037  0.00  0.00    +0.000 A 
ATOM     18  C   UNL     1      49.756   9.200  11.976  0.00  0.00    +0.000 A 
ATOM     19  F   UNL     1      50.907   9.873  11.842  0.00  0.00    +0.000 F 
ATOM     20  C   UNL     1      49.791   7.812  12.057  0.00  0.00    +0.000 A 
ATOM     21  C   UNL     1      48.612   7.077  12.212  0.00  0.00    +0.000 A 
ATOM     22  C   UNL     1      47.406   7.796  12.287  0.00  0.00    +0.000 A 
ENDBRANCH  12  13
ENDBRANCH   4  12
TORSDOF 5
ENDMDL
MODEL 9
REMARK VINA RESULT:    -5.964      3.589      6.747
REMARK INTER + INTRA:          -8.055
REMARK INTER:                  -7.208
REMARK INTRA:                  -0.847
REMARK UNBOUND:                -0.522
REMARK  Name = 
REMARK  5 active torsions:
REMARK  status: ('A' for Active; 'I' for Inactive)
REMARK    1  A    between atoms: N_1  and  C_2
REMARK    2  A    between atoms: C_2  and  C_3
REMARK    3  A    between atoms: C_3  and  C_4
REMARK    4  A    between atoms: C_7  and  C_8
REMARK    5  A    between atoms: C_8  and  N_9
REMARK                            x       y       z     vdW  Elec       q    Type
REMARK                         _______ _______ _______ _____ _____    ______ ____
ROOT
ATOM      1  C   UNL     1      49.350   7.998  13.370  0.00  0.00    +0.000 A 
ATOM      2  C   UNL     1      49.172   7.472  12.094  0.00  0.00    +0.000 A 
ATOM      3  C   UNL     1      47.878   7.318  11.601  0.00  0.00    +0.000 A 
ATOM      4  C   UNL     1      46.786   7.680  12.392  0.00  0.00    +0.000 A 
ATOM      5  C   UNL     1      47.059   8.188  13.656  0.00  0.00    +0.000 A 
ATOM      6  N   UNL     1      48.307   8.358  14.154  0.00  0.00    +0.000 NA
ENDROOT
BRANCH   1   7
ATOM      7  C   UNL     1      50.731   8.146  13.955  0.00  0.00    +0.000 C 
BRANCH   7   8
ATOM      8  C   UNL     1      50.709   7.937  15.470  0.00  0.00    +0.000 C 
BRANCH   8   9
ATOM      9  N   UNL     1      50.292   6.576  15.814  0.00  0.00    +0.000 NA
ATOM     10  H   UNL     1      49.297   6.475  15.617  0.00  0.00    +0.000 HD
ATOM     11  H   UNL     1      50.389   6.441  16.821  0.00  0.00    +0.000 HD
ENDBRANCH   8   9
ENDBRANCH   7   8
ENDBRANCH   1   7
BRANCH   4  12
ATOM     12  C   UNL     1      45.369   7.521  11.922  0.00  0.00    +0.000 C 
BRANCH  12  13
ATOM     13  N   UNL     1      44.900   6.147  12.039  0.00  0.00    +0.000 N 
ATOM     14  N   UNL     1      44.275   5.759  13.172  0.00  0.00    +0.000 NA
ATOM     15  C   UNL     1      43.872   4.514  12.904  0.00  0.00    +0.000 A 
ATOM     16  C   UNL     1      44.213   4.099  11.600  0.00  0.00    +0.000 A 
ATOM     17  C   UNL     1      44.013   2.941  10.827  0.00  0.00    +0.000 A 
ATOM     18  C   UNL     1      44.511   2.923   9.525  0.00  0.00    +0.000 A 
ATOM     19  F   UNL     1      44.313   1.836   8.767  0.00  0.00    +0.000 F 
ATOM     20  C   UNL     1      45.201   4.004   8.989  0.00  0.00    +0.000 A 
ATOM     21  C   UNL     1      45.414   5.161   9.745  0.00  0.00    +0.000 A 
ATOM     22  C   UNL     1      44.899   5.183  11.053  0.00  0.00    +0.000 A 
ENDBRANCH  12  13
ENDBRANCH   4  12
TORSDOF 5
ENDMDL
