MODEL 1
REMARK VINA RESULT:    -7.746      0.000      0.000
REMARK INTER + INTRA:         -10.788
REMARK INTER:                 -10.010
REMARK INTRA:                  -0.778
REMARK UNBOUND:                -0.778
REMARK  Name = 
REMARK  7 active torsions:
REMARK  status: ('A' for Active; 'I' for Inactive)
REMARK    1  A    between atoms: C_1  and  C_2
REMARK    2  A    between atoms: C_2  and  C_3
REMARK    3  A    between atoms: C_2  and  C_4
REMARK    4  A    between atoms: C_4  and  N_5
REMARK    5  A    between atoms: C_4  and  C_15
REMARK    6  A    between atoms: N_5  and  C_6
REMARK    7  A    between atoms: C_9  and  C_10
REMARK                            x       y       z     vdW  Elec       q    Type
REMARK                         _______ _______ _______ _____ _____    ______ ____
ROOT
ATOM      1  N   UNL     1      44.417   5.221  10.084  0.00  0.00    +0.000 N 
ATOM      2  H   UNL     1      44.243   6.094   9.601  0.00  0.00    +0.000 HD
ENDROOT
BRANCH   1   3
ATOM      3  C   UNL     1      45.143   4.340   9.278  0.00  0.00    +0.000 A 
ATOM      4  C   UNL     1      45.055   2.955   9.321  0.00  0.00    +0.000 A 
ATOM      5  N   UNL     1      45.750   2.105   8.532  0.00  0.00    +0.000 NA
ATOM      6  C   UNL     1      46.556   2.692   7.617  0.00  0.00    +0.000 A 
ATOM      7  N   UNL     1      46.689   4.017   7.427  0.00  0.00    +0.000 NA
ATOM      8  C   UNL     1      45.964   4.796   8.255  0.00  0.00    +0.000 A 
BRANCH   6   9
ATOM      9  C   UNL     1      47.407   1.766   6.780  0.00  0.00    +0.000 C 
ATOM     10  N   UNL     1      48.527   2.341   6.222  0.00  0.00    +0.000 N 
ATOM     11  O   UNL     1      47.145   0.588   6.574  0.00  0.00    +0.000 OA
ATOM     12  H   UNL     1      48.716   3.326   6.366  0.00  0.00    +0.000 HD
ATOM     13  H   UNL     1      49.104   1.790   5.602  0.00  0.00    +0.000 HD
ENDBRANCH   6   9
ENDBRANCH   1   3
BRANCH   1  14
ATOM     14  C   UNL     1      44.805   5.407  11.494  0.00  0.00    +0.000 C 
BRANCH  14  15
ATOM     15  C   UNL     1      45.622   6.693  11.701  0.00  0.00    +0.000 A 
ATOM     16  C   UNL     1      45.043   7.934  12.023  0.00  0.00    +0.000 A 
ATOM     17  C   UNL     1      45.830   9.056  12.295  0.00  0.00    +0.000 A 
ATOM     18  C   UNL     1      47.221   8.965  12.258  0.00  0.00    +0.000 A 
ATOM     19 CL   UNL     1      48.126  10.384  12.643  0.00  0.00    +0.000 Cl
ATOM     20  C   UNL     1      47.822   7.746  11.940  0.00  0.00    +0.000 A 
ATOM     21 CL   UNL     1      49.539   7.548  11.904  0.00  0.00    +0.000 Cl
ATOM     22  C   UNL     1      47.029   6.622  11.661  0.00  0.00    +0.000 A 
ENDBRANCH  14  15
BRANCH  14  24
ATOM     23  C   UNL     1      42.216   5.656  11.774  0.00  0.00    +0.000 C 
ATOM     24  C   UNL     1      43.566   5.361  12.438  0.00  0.00    +0.000 C 
ATOM     25  C   UNL     1      43.462   4.031  13.195  0.00  0.00    +0.000 C 
ENDBRANCH  14  24
ENDBRANCH   1  14
TORSDOF 5
ENDMDL
MODEL 2
REMARK VINA RESULT:    -6.771      1.255      2.028
REMARK INTER + INTRA:          -9.528
REMARK INTER:                  -8.889
REMARK INTRA:                  -0.639
REMARK UNBOUND:                -0.778
REMARK  Name = 
REMARK  7 active torsions:
REMARK  status: ('A' for Active; 'I' for Inactive)
REMARK    1  A    between atoms: C_1  and  C_2
REMARK    2  A    between atoms: C_2  and  C_3
REMARK    3  A    between atoms: C_2  and  C_4
REMARK    4  A    between atoms: C_4  and  N_5
REMARK    5  A    between atoms: C_4  and  C_15
REMARK    6  A    between atoms: N_5  and  C_6
REMARK    7  A    between atoms: C_9  and  C_10
REMARK                            x       y       z     vdW  Elec       q    Type
REMARK                         _______ _______ _______ _____ _____    ______ ____
ROOT
ATOM      1  N   UNL     1      44.629   4.725  10.446  0.00  0.00    +0.000 N 
ATOM      2  H   UNL     1      44.398   5.692  10.255  0.00  0.00    +0.000 HD
ENDROOT
BRANCH   1   3
ATOM      3  C   UNL     1      45.309   4.150   9.369  0.00  0.00    +0.000 A 
ATOM      4  C   UNL     1      46.094   4.840   8.454  0.00  0.00    +0.000 A 
ATOM      5  N   UNL     1      46.761   4.280   7.421  0.00  0.00    +0.000 NA
ATOM      6  C   UNL     1      46.660   2.934   7.328  0.00  0.00    +0.000 A 
ATOM      7  N   UNL     1      45.986   2.139   8.178  0.00  0.00    +0.000 NA
ATOM      8  C   UNL     1      45.347   2.775   9.181  0.00  0.00    +0.000 A 
BRANCH   6   9
ATOM      9  C   UNL     1      47.325   2.292   6.132  0.00  0.00    +0.000 C 
ATOM     10  N   UNL     1      46.858   2.708   4.906  0.00  0.00    +0.000 N 
ATOM     11  O   UNL     1      48.206   1.446   6.207  0.00  0.00    +0.000 OA
ATOM     12  H   UNL     1      46.102   3.380   4.852  0.00  0.00    +0.000 HD
ATOM     13  H   UNL     1      47.220   2.271   4.069  0.00  0.00    +0.000 HD
ENDBRANCH   6   9
ENDBRANCH   1   3
BRANCH   1  14
ATOM     14  C   UNL     1      45.122   4.508  11.818  0.00  0.00    +0.000 C 
BRANCH  14  15
ATOM     15  C   UNL     1      45.833   5.752  12.378  0.00  0.00    +0.000 A 
ATOM     16  C   UNL     1      46.956   5.687  13.222  0.00  0.00    +0.000 A 
ATOM     17  C   UNL     1      47.626   6.842  13.632  0.00  0.00    +0.000 A 
ATOM     18  C   UNL     1      47.194   8.096  13.201  0.00  0.00    +0.000 A 
ATOM     19 CL   UNL     1      48.096   9.475  13.718  0.00  0.00    +0.000 Cl
ATOM     20  C   UNL     1      46.081   8.190  12.364  0.00  0.00    +0.000 A 
ATOM     21 CL   UNL     1      45.504   9.705  11.765  0.00  0.00    +0.000 Cl
ATOM     22  C   UNL     1      45.405   7.028  11.960  0.00  0.00    +0.000 A 
ENDBRANCH  14  15
BRANCH  14  24
ATOM     23  C   UNL     1      42.833   5.024  12.974  0.00  0.00    +0.000 C 
ATOM     24  C   UNL     1      43.981   4.030  12.766  0.00  0.00    +0.000 C 
ATOM     25  C   UNL     1      43.392   2.681  12.331  0.00  0.00    +0.000 C 
ENDBRANCH  14  24
ENDBRANCH   1  14
TORSDOF 5
ENDMDL
MODEL 3
REMARK VINA RESULT:    -6.747      4.550      6.859
REMARK INTER + INTRA:          -9.497
REMARK INTER:                  -8.794
REMARK INTRA:                  -0.703
REMARK UNBOUND:                -0.778
REMARK  Name = 
REMARK  7 active torsions:
REMARK  status: ('A' for Active; 'I' for Inactive)
REMARK    1  A    between atoms: C_1  and  C_2
REMARK    2  A    between atoms: C_2  and  C_3
REMARK    3  A    between atoms: C_2  and  C_4
REMARK    4  A    between atoms: C_4  and  N_5
REMARK    5  A    between atoms: C_4  and  C_15
REMARK    6  A    between atoms: N_5  and  C_6
REMARK    7  A    between atoms: C_9  and  C_10
REMARK                            x       y       z     vdW  Elec       q    Type
REMARK                         _______ _______ _______ _____ _____    ______ ____
ROOT
ATOM      1  N   UNL     1      45.698   3.583  12.013  0.00  0.00    +0.000 N 
ATOM      2  H   UNL     1      46.226   2.768  11.727  0.00  0.00    +0.000 HD
ENDROOT
BRANCH   1   3
ATOM      3  C   UNL     1      46.461   4.406  12.846  0.00  0.00    +0.000 A 
ATOM      4  C   UNL     1      46.681   5.763  12.651  0.00  0.00    +0.000 A 
ATOM      5  N   UNL     1      47.408   6.560  13.466  0.00  0.00    +0.000 NA
ATOM      6  C   UNL     1      47.914   5.956  14.565  0.00  0.00    +0.000 A 
ATOM      7  N   UNL     1      47.728   4.668  14.907  0.00  0.00    +0.000 NA
ATOM      8  C   UNL     1      46.991   3.942  14.042  0.00  0.00    +0.000 A 
BRANCH   6   9
ATOM      9  C   UNL     1      48.802   6.802  15.448  0.00  0.00    +0.000 C 
ATOM     10  N   UNL     1      48.265   8.009  15.837  0.00  0.00    +0.000 N 
ATOM     11  O   UNL     1      49.931   6.483  15.797  0.00  0.00    +0.000 OA
ATOM     12  H   UNL     1      47.345   8.283  15.513  0.00  0.00    +0.000 HD
ATOM     13  H   UNL     1      48.832   8.647  16.378  0.00  0.00    +0.000 HD
ENDBRANCH   6   9
ENDBRANCH   1   3
BRANCH   1  14
ATOM     14  C   UNL     1      44.919   4.182  10.915  0.00  0.00    +0.000 C 
BRANCH  14  15
ATOM     15  C   UNL     1      45.457   3.770   9.534  0.00  0.00    +0.000 A 
ATOM     16  C   UNL     1      45.854   4.694   8.551  0.00  0.00    +0.000 A 
ATOM     17  C   UNL     1      46.426   4.275   7.347  0.00  0.00    +0.000 A 
ATOM     18  C   UNL     1      46.621   2.917   7.096  0.00  0.00    +0.000 A 
ATOM     19 CL   UNL     1      47.367   2.480   5.601  0.00  0.00    +0.000 Cl
ATOM     20  C   UNL     1      46.235   1.979   8.053  0.00  0.00    +0.000 A 
ATOM     21 CL   UNL     1      46.472   0.281   7.827  0.00  0.00    +0.000 Cl
ATOM     22  C   UNL     1      45.655   2.401   9.260  0.00  0.00    +0.000 A 
ENDBRANCH  14  15
BRANCH  14  24
ATOM     23  C   UNL     1      43.061   2.579  11.822  0.00  0.00    +0.000 C 
ATOM     24  C   UNL     1      43.400   3.860  11.052  0.00  0.00    +0.000 C 
ATOM     25  C   UNL     1      42.612   5.026  11.665  0.00  0.00    +0.000 C 
ENDBRANCH  14  24
ENDBRANCH   1  14
TORSDOF 5
ENDMDL
MODEL 4
REMARK VINA RESULT:    -6.238      5.015      7.007
REMARK INTER + INTRA:          -8.839
REMARK INTER:                  -8.305
REMARK INTRA:                  -0.534
REMARK UNBOUND:                -0.778
REMARK  Name = 
REMARK  7 active torsions:
REMARK  status: ('A' for Active; 'I' for Inactive)
REMARK    1  A    between atoms: C_1  and  C_2
REMARK    2  A    between atoms: C_2  and  C_3
REMARK    3  A    between atoms: C_2  and  C_4
REMARK    4  A    between atoms: C_4  and  N_5
REMARK    5  A    between atoms: C_4  and  C_15
REMARK    6  A    between atoms: N_5  and  C_6
REMARK    7  A    between atoms: C_9  and  C_10
REMARK                            x       y       z     vdW  Elec       q    Type
REMARK                         _______ _______ _______ _____ _____    ______ ____
ROOT
ATOM      1  N   UNL     1      45.773   4.275  13.244  0.00  0.00    +0.000 N 
ATOM      2  H   UNL     1      46.044   3.401  12.810  0.00  0.00    +0.000 HD
ENDROOT
BRANCH   1   3
ATOM      3  C   UNL     1      46.777   4.743  14.096  0.00  0.00    +0.000 A 
ATOM      4  C   UNL     1      47.543   5.882  13.885  0.00  0.00    +0.000 A 
ATOM      5  N   UNL     1      48.505   6.339  14.717  0.00  0.00    +0.000 NA
ATOM      6  C   UNL     1      48.679   5.623  15.851  0.00  0.00    +0.000 A 
ATOM      7  N   UNL     1      47.967   4.539  16.209  0.00  0.00    +0.000 NA
ATOM      8  C   UNL     1      47.028   4.147  15.325  0.00  0.00    +0.000 A 
BRANCH   6   9
ATOM      9  C   UNL     1      49.805   6.063  16.757  0.00  0.00    +0.000 C 
ATOM     10  N   UNL     1      49.475   7.031  17.679  0.00  0.00    +0.000 N 
ATOM     11  O   UNL     1      50.948   5.629  16.695  0.00  0.00    +0.000 OA
ATOM     12  H   UNL     1      48.537   7.413  17.698  0.00  0.00    +0.000 HD
ATOM     13  H   UNL     1      50.199   7.410  18.273  0.00  0.00    +0.000 HD
ENDBRANCH   6   9
ENDBRANCH   1   3
BRANCH   1  14
ATOM     14  C   UNL     1      45.119   5.207  12.309  0.00  0.00    +0.000 C 
BRANCH  14  15
ATOM     15  C   UNL     1      45.268   4.755  10.847  0.00  0.00    +0.000 A 
ATOM     16  C   UNL     1      45.830   5.562   9.841  0.00  0.00    +0.000 A 
ATOM     17  C   UNL     1      46.031   5.077   8.546  0.00  0.00    +0.000 A 
ATOM     18  C   UNL     1      45.680   3.766   8.224  0.00  0.00    +0.000 A 
ATOM     19 CL   UNL     1      45.993   3.226   6.614  0.00  0.00    +0.000 Cl
ATOM     20  C   UNL     1      45.118   2.945   9.202  0.00  0.00    +0.000 A 
ATOM     21 CL   UNL     1      44.684   1.301   8.887  0.00  0.00    +0.000 Cl
ATOM     22  C   UNL     1      44.910   3.437  10.500  0.00  0.00    +0.000 A 
ENDBRANCH  14  15
BRANCH  14  24
ATOM     23  C   UNL     1      42.698   5.811  11.521  0.00  0.00    +0.000 C 
ATOM     24  C   UNL     1      43.624   5.437  12.684  0.00  0.00    +0.000 C 
ATOM     25  C   UNL     1      43.021   4.237  13.426  0.00  0.00    +0.000 C 
ENDBRANCH  14  24
ENDBRANCH   1  14
TORSDOF 5
ENDMDL
MODEL 5
REMARK VINA RESULT:    -6.090      4.474      6.960
REMARK INTER + INTRA:          -8.648
REMARK INTER:                  -8.035
REMARK INTRA:                  -0.613
REMARK UNBOUND:                -0.778
REMARK  Name = 
REMARK  7 active torsions:
REMARK  status: ('A' for Active; 'I' for Inactive)
REMARK    1  A    between atoms: C_1  and  C_2
REMARK    2  A    between atoms: C_2  and  C_3
REMARK    3  A    between atoms: C_2  and  C_4
REMARK    4  A    between atoms: C_4  and  N_5
REMARK    5  A    between atoms: C_4  and  C_15
REMARK    6  A    between atoms: N_5  and  C_6
REMARK    7  A    between atoms: C_9  and  C_10
REMARK                            x       y       z     vdW  Elec       q    Type
REMARK                         _______ _______ _______ _____ _____    ______ ____
ROOT
ATOM      1  N   UNL     1      45.712   4.950  12.045  0.00  0.00    +0.000 N 
ATOM      2  H   UNL     1      46.418   4.237  11.907  0.00  0.00    +0.000 HD
ENDROOT
BRANCH   1   3
ATOM      3  C   UNL     1      46.278   6.125  12.547  0.00  0.00    +0.000 A 
ATOM      4  C   UNL     1      45.688   7.381  12.508  0.00  0.00    +0.000 A 
ATOM      5  N   UNL     1      46.232   8.514  13.004  0.00  0.00    +0.000 NA
ATOM      6  C   UNL     1      47.431   8.362  13.612  0.00  0.00    +0.000 A 
ATOM      7  N   UNL     1      48.085   7.197  13.774  0.00  0.00    +0.000 NA
ATOM      8  C   UNL     1      47.475   6.115  13.249  0.00  0.00    +0.000 A 
BRANCH   6   9
ATOM      9  C   UNL     1      48.102   9.625  14.101  0.00  0.00    +0.000 C 
ATOM     10  N   UNL     1      48.272   9.711  15.464  0.00  0.00    +0.000 N 
ATOM     11  O   UNL     1      48.464  10.538  13.371  0.00  0.00    +0.000 OA
ATOM     12  H   UNL     1      47.934   8.968  16.065  0.00  0.00    +0.000 HD
ATOM     13  H   UNL     1      48.658  10.557  15.858  0.00  0.00    +0.000 HD
ENDBRANCH   6   9
ENDBRANCH   1   3
BRANCH   1  14
ATOM     14  C   UNL     1      44.741   5.025  10.938  0.00  0.00    +0.000 C 
BRANCH  14  15
ATOM     15  C   UNL     1      45.284   4.382   9.651  0.00  0.00    +0.000 A 
ATOM     16  C   UNL     1      45.950   5.107   8.646  0.00  0.00    +0.000 A 
ATOM     17  C   UNL     1      46.510   4.467   7.537  0.00  0.00    +0.000 A 
ATOM     18  C   UNL     1      46.423   3.081   7.406  0.00  0.00    +0.000 A 
ATOM     19 CL   UNL     1      47.172   2.359   6.028  0.00  0.00    +0.000 Cl
ATOM     20  C   UNL     1      45.766   2.338   8.388  0.00  0.00    +0.000 A 
ATOM     21 CL   UNL     1      45.643   0.615   8.311  0.00  0.00    +0.000 Cl
ATOM     22  C   UNL     1      45.199   2.984   9.498  0.00  0.00    +0.000 A 
ENDBRANCH  14  15
BRANCH  14  24
ATOM     23  C   UNL     1      43.413   3.349  12.446  0.00  0.00    +0.000 C 
ATOM     24  C   UNL     1      43.366   4.413  11.343  0.00  0.00    +0.000 C 
ATOM     25  C   UNL     1      42.346   5.488  11.740  0.00  0.00    +0.000 C 
ENDBRANCH  14  24
ENDBRANCH   1  14
TORSDOF 5
ENDMDL
MODEL 6
REMARK VINA RESULT:    -5.771      3.228      4.865
REMARK INTER + INTRA:          -8.235
REMARK INTER:                  -7.442
REMARK INTRA:                  -0.793
REMARK UNBOUND:                -0.778
REMARK  Name = 
REMARK  7 active torsions:
REMARK  status: ('A' for Active; 'I' for Inactive)
REMARK    1  A    between atoms: C_1  and  C_2
REMARK    2  A    between atoms: C_2  and  C_3
REMARK    3  A    between atoms: C_2  and  C_4
REMARK    4  A    between atoms: C_4  and  N_5
REMARK    5  A    between atoms: C_4  and  C_15
REMARK    6  A    between atoms: N_5  and  C_6
REMARK    7  A    between atoms: C_9  and  C_10
REMARK                            x       y       z     vdW  Elec       q    Type
REMARK                         _______ _______ _______ _____ _____    ______ ____
ROOT
ATOM      1  N   UNL     1      46.878   7.013  13.667  0.00  0.00    +0.000 N 
ATOM      2  H   UNL     1      46.480   7.922  13.465  0.00  0.00    +0.000 HD
ENDROOT
BRANCH   1   3
ATOM      3  C   UNL     1      46.172   6.001  13.012  0.00  0.00    +0.000 A 
ATOM      4  C   UNL     1      45.806   6.014  11.672  0.00  0.00    +0.000 A 
ATOM      5  N   UNL     1      45.133   5.029  11.038  0.00  0.00    +0.000 NA
ATOM      6  C   UNL     1      44.845   3.945  11.795  0.00  0.00    +0.000 A 
ATOM      7  N   UNL     1      45.192   3.775  13.084  0.00  0.00    +0.000 NA
ATOM      8  C   UNL     1      45.859   4.804  13.643  0.00  0.00    +0.000 A 
BRANCH   6   9
ATOM      9  C   UNL     1      44.019   2.866  11.134  0.00  0.00    +0.000 C 
ATOM     10  N   UNL     1      44.560   2.331   9.986  0.00  0.00    +0.000 N 
ATOM     11  O   UNL     1      42.933   2.480  11.548  0.00  0.00    +0.000 OA
ATOM     12  H   UNL     1      45.440   2.683   9.630  0.00  0.00    +0.000 HD
ATOM     13  H   UNL     1      44.027   1.648   9.465  0.00  0.00    +0.000 HD
ENDBRANCH   6   9
ENDBRANCH   1   3
BRANCH   1  14
ATOM     14  C   UNL     1      48.352   7.007  13.639  0.00  0.00    +0.000 C 
BRANCH  14  15
ATOM     15  C   UNL     1      48.914   8.069  12.678  0.00  0.00    +0.000 A 
ATOM     16  C   UNL     1      48.164   9.163  12.211  0.00  0.00    +0.000 A 
ATOM     17  C   UNL     1      48.743  10.154  11.414  0.00  0.00    +0.000 A 
ATOM     18  C   UNL     1      50.092  10.080  11.067  0.00  0.00    +0.000 A 
ATOM     19 CL   UNL     1      50.744  11.361  10.111  0.00  0.00    +0.000 Cl
ATOM     20  C   UNL     1      50.858   9.003  11.515  0.00  0.00    +0.000 A 
ATOM     21 CL   UNL     1      52.542   8.856  11.152  0.00  0.00    +0.000 Cl
ATOM     22  C   UNL     1      50.273   8.005  12.310  0.00  0.00    +0.000 A 
ENDBRANCH  14  15
BRANCH  14  24
ATOM     23  C   UNL     1      48.595   8.461  15.800  0.00  0.00    +0.000 C 
ATOM     24  C   UNL     1      48.951   7.161  15.070  0.00  0.00    +0.000 C 
ATOM     25  C   UNL     1      48.599   5.975  15.977  0.00  0.00    +0.000 C 
ENDBRANCH  14  24
ENDBRANCH   1  14
TORSDOF 5
ENDMDL
MODEL 7
REMARK VINA RESULT:    -5.740      5.238      7.175
REMARK INTER + INTRA:          -8.196
REMARK INTER:                  -7.497
REMARK INTRA:                  -0.698
REMARK UNBOUND:                -0.778
REMARK  Name = 
REMARK  7 active torsions:
REMARK  status: ('A' for Active; 'I' for Inactive)
REMARK    1  A    between atoms: C_1  and  C_2
REMARK    2  A    between atoms: C_2  and  C_3
REMARK    3  A    between atoms: C_2  and  C_4
REMARK    4  A    between atoms: C_4  and  N_5
REMARK    5  A    between atoms: C_4  and  C_15
REMARK    6  A    between atoms: N_5  and  C_6
REMARK    7  A    between atoms: C_9  and  C_10
REMARK                            x       y       z     vdW  Elec       q    Type
REMARK                         _______ _______ _______ _____ _____    ______ ____
ROOT
ATOM      1  N   UNL     1      46.404   6.269  13.852  0.00  0.00    +0.000 N 
ATOM      2  H   UNL     1      45.441   5.956  13.861  0.00  0.00    +0.000 HD
ENDROOT
BRANCH   1   3
ATOM      3  C   UNL     1      47.188   5.498  14.715  0.00  0.00    +0.000 A 
ATOM      4  C   UNL     1      48.232   5.979  15.495  0.00  0.00    +0.000 A 
ATOM      5  N   UNL     1      48.982   5.234  16.337  0.00  0.00    +0.000 NA
ATOM      6  C   UNL     1      48.631   3.931  16.426  0.00  0.00    +0.000 A 
ATOM      7  N   UNL     1      47.606   3.349  15.776  0.00  0.00    +0.000 NA
ATOM      8  C   UNL     1      46.909   4.160  14.954  0.00  0.00    +0.000 A 
BRANCH   6   9
ATOM      9  C   UNL     1      49.506   3.057  17.295  0.00  0.00    +0.000 C 
ATOM     10  N   UNL     1      49.181   3.047  18.634  0.00  0.00    +0.000 N 
ATOM     11  O   UNL     1      50.456   2.406  16.882  0.00  0.00    +0.000 OA
ATOM     12  H   UNL     1      48.418   3.619  18.974  0.00  0.00    +0.000 HD
ATOM     13  H   UNL     1      49.766   2.531  19.276  0.00  0.00    +0.000 HD
ENDBRANCH   6   9
ENDBRANCH   1   3
BRANCH   1  14
ATOM     14  C   UNL     1      46.899   6.579  12.499  0.00  0.00    +0.000 C 
BRANCH  14  15
ATOM     15  C   UNL     1      46.157   5.777  11.416  0.00  0.00    +0.000 A 
ATOM     16  C   UNL     1      46.392   5.937  10.039  0.00  0.00    +0.000 A 
ATOM     17  C   UNL     1      45.763   5.122   9.094  0.00  0.00    +0.000 A 
ATOM     18  C   UNL     1      44.885   4.118   9.504  0.00  0.00    +0.000 A 
ATOM     19 CL   UNL     1      44.176   3.127   8.281  0.00  0.00    +0.000 Cl
ATOM     20  C   UNL     1      44.633   3.939  10.865  0.00  0.00    +0.000 A 
ATOM     21 CL   UNL     1      43.582   2.699  11.451  0.00  0.00    +0.000 Cl
ATOM     22  C   UNL     1      45.261   4.764  11.811  0.00  0.00    +0.000 A 
ENDBRANCH  14  15
BRANCH  14  24
ATOM     23  C   UNL     1      45.732   8.882  12.923  0.00  0.00    +0.000 C 
ATOM     24  C   UNL     1      46.847   8.110  12.209  0.00  0.00    +0.000 C 
ATOM     25  C   UNL     1      48.187   8.801  12.497  0.00  0.00    +0.000 C 
ENDBRANCH  14  24
ENDBRANCH   1  14
TORSDOF 5
ENDMDL
MODEL 8
REMARK VINA RESULT:    -5.552      3.996      5.956
REMARK INTER + INTRA:          -7.953
REMARK INTER:                  -7.167
REMARK INTRA:                  -0.786
REMARK UNBOUND:                -0.778
REMARK  Name = 
REMARK  7 active torsions:
REMARK  status: ('A' for Active; 'I' for Inactive)
REMARK    1  A    between atoms: C_1  and  C_2
REMARK    2  A    between atoms: C_2  and  C_3
REMARK    3  A    between atoms: C_2  and  C_4
REMARK    4  A    between atoms: C_4  and  N_5
REMARK    5  A    between atoms: C_4  and  C_15
REMARK    6  A    between atoms: N_5  and  C_6
REMARK    7  A    between atoms: C_9  and  C_10
REMARK                            x       y       z     vdW  Elec       q    Type
REMARK                         _______ _______ _______ _____ _____    ______ ____
ROOT
ATOM      1  N   UNL     1      48.176   6.404  13.027  0.00  0.00    +0.000 N 
ATOM      2  H   UNL     1      48.696   5.767  13.618  0.00  0.00    +0.000 HD
ENDROOT
BRANCH   1   3
ATOM      3  C   UNL     1      46.949   5.850  12.652  0.00  0.00    +0.000 A 
ATOM      4  C   UNL     1      46.265   6.134  11.476  0.00  0.00    +0.000 A 
ATOM      5  N   UNL     1      45.085   5.587  11.110  0.00  0.00    +0.000 NA
ATOM      6  C   UNL     1      44.582   4.669  11.966  0.00  0.00    +0.000 A 
ATOM      7  N   UNL     1      45.167   4.256  13.105  0.00  0.00    +0.000 NA
ATOM      8  C   UNL     1      46.341   4.850  13.399  0.00  0.00    +0.000 A 
BRANCH   6   9
ATOM      9  C   UNL     1      43.222   4.105  11.623  0.00  0.00    +0.000 C 
ATOM     10  N   UNL     1      42.183   5.007  11.671  0.00  0.00    +0.000 N 
ATOM     11  O   UNL     1      43.015   2.933  11.338  0.00  0.00    +0.000 OA
ATOM     12  H   UNL     1      42.356   5.966  11.946  0.00  0.00    +0.000 HD
ATOM     13  H   UNL     1      41.241   4.678  11.511  0.00  0.00    +0.000 HD
ENDBRANCH   6   9
ENDBRANCH   1   3
BRANCH   1  14
ATOM     14  C   UNL     1      48.231   7.801  13.492  0.00  0.00    +0.000 C 
BRANCH  14  15
ATOM     15  C   UNL     1      48.560   7.896  14.992  0.00  0.00    +0.000 A 
ATOM     16  C   UNL     1      48.288   9.035  15.772  0.00  0.00    +0.000 A 
ATOM     17  C   UNL     1      48.517   9.043  17.151  0.00  0.00    +0.000 A 
ATOM     18  C   UNL     1      49.019   7.908  17.788  0.00  0.00    +0.000 A 
ATOM     19 CL   UNL     1      49.240   7.982  19.498  0.00  0.00    +0.000 Cl
ATOM     20  C   UNL     1      49.299   6.766  17.036  0.00  0.00    +0.000 A 
ATOM     21 CL   UNL     1      49.895   5.312  17.758  0.00  0.00    +0.000 Cl
ATOM     22  C   UNL     1      49.075   6.762  15.651  0.00  0.00    +0.000 A 
ENDBRANCH  14  15
BRANCH  14  24
ATOM     23  C   UNL     1      50.208   7.848  11.779  0.00  0.00    +0.000 C 
ATOM     24  C   UNL     1      49.223   8.649  12.638  0.00  0.00    +0.000 C 
ATOM     25  C   UNL     1      48.498   9.661  11.742  0.00  0.00    +0.000 C 
ENDBRANCH  14  24
ENDBRANCH   1  14
TORSDOF 5
ENDMDL
MODEL 9
REMARK VINA RESULT:    -5.493      4.780      6.567
REMARK INTER + INTRA:          -7.876
REMARK INTER:                  -7.153
REMARK INTRA:                  -0.723
REMARK UNBOUND:                -0.778
REMARK  Name = 
REMARK  7 active torsions:
REMARK  status: ('A' for Active; 'I' for Inactive)
REMARK    1  A    between atoms: C_1  and  C_2
REMARK    2  A    between atoms: C_2  and  C_3
REMARK    3  A    between atoms: C_2  and  C_4
REMARK    4  A    between atoms: C_4  and  N_5
REMARK    5  A    between atoms: C_4  and  C_15
REMARK    6  A    between atoms: N_5  and  C_6
REMARK    7  A    between atoms: C_9  and  C_10
REMARK                            x       y       z     vdW  Elec       q    Type
REMARK                         _______ _______ _______ _____ _____    ______ ____
ROOT
ATOM      1  N   UNL     1      48.311   6.610  13.570  0.00  0.00    +0.000 N 
ATOM      2  H   UNL     1      49.180   6.146  13.335  0.00  0.00    +0.000 HD
ENDROOT
BRANCH   1   3
ATOM      3  C   UNL     1      47.212   5.864  13.134  0.00  0.00    +0.000 A 
ATOM      4  C   UNL     1      46.414   6.173  12.040  0.00  0.00    +0.000 A 
ATOM      5  N   UNL     1      45.360   5.444  11.613  0.00  0.00    +0.000 NA
ATOM      6  C   UNL     1      45.118   4.312  12.313  0.00  0.00    +0.000 A 
ATOM      7  N   UNL     1      45.845   3.862  13.352  0.00  0.00    +0.000 NA
ATOM      8  C   UNL     1      46.879   4.648  13.715  0.00  0.00    +0.000 A 
BRANCH   6   9
ATOM      9  C   UNL     1      43.894   3.523  11.910  0.00  0.00    +0.000 C 
ATOM     10  N   UNL     1      43.771   2.285  12.502  0.00  0.00    +0.000 N 
ATOM     11  O   UNL     1      43.058   3.912  11.105  0.00  0.00    +0.000 OA
ATOM     12  H   UNL     1      44.487   1.954  13.138  0.00  0.00    +0.000 HD
ATOM     13  H   UNL     1      43.006   1.685  12.228  0.00  0.00    +0.000 HD
ENDBRANCH   6   9
ENDBRANCH   1   3
BRANCH   1  14
ATOM     14  C   UNL     1      48.310   7.183  14.928  0.00  0.00    +0.000 C 
BRANCH  14  15
ATOM     15  C   UNL     1      49.227   6.402  15.883  0.00  0.00    +0.000 A 
ATOM     16  C   UNL     1      50.594   6.689  16.050  0.00  0.00    +0.000 A 
ATOM     17  C   UNL     1      51.369   6.015  16.998  0.00  0.00    +0.000 A 
ATOM     18  C   UNL     1      50.794   5.038  17.810  0.00  0.00    +0.000 A 
ATOM     19 CL   UNL     1      51.806   4.276  18.983  0.00  0.00    +0.000 Cl
ATOM     20  C   UNL     1      49.441   4.732  17.664  0.00  0.00    +0.000 A 
ATOM     21 CL   UNL     1      48.651   3.554  18.653  0.00  0.00    +0.000 Cl
ATOM     22  C   UNL     1      48.666   5.405  16.706  0.00  0.00    +0.000 A 
ENDBRANCH  14  15
BRANCH  14  24
ATOM     23  C   UNL     1      48.188   9.477  13.677  0.00  0.00    +0.000 C 
ATOM     24  C   UNL     1      48.668   8.699  14.907  0.00  0.00    +0.000 C 
ATOM     25  C   UNL     1      48.185   9.427  16.169  0.00  0.00    +0.000 C 
ENDBRANCH  14  24
ENDBRANCH   1  14
TORSDOF 5
ENDMDL
