MODEL 1
REMARK VINA RESULT:    -7.985      0.000      0.000
REMARK INTER + INTRA:         -10.316
REMARK INTER:                  -9.852
REMARK INTRA:                  -0.465
REMARK UNBOUND:                -0.465
REMARK  Name = 
REMARK  4 active torsions:
REMARK  status: ('A' for Active; 'I' for Inactive)
REMARK    1  A    between atoms: C_2  and  C_5
REMARK    2  A    between atoms: N_11  and  C_12
REMARK    3  A    between atoms: C_12  and  C_13
REMARK    4  A    between atoms: C_17  and  C_18
REMARK                            x       y       z     vdW  Elec       q    Type
REMARK                         _______ _______ _______ _____ _____    ______ ____
ROOT
ATOM      1  C   UNL     1      48.016   4.499  17.847  0.00  0.00    +0.000 A 
ATOM      2  C   UNL     1      49.002   3.543  18.072  0.00  0.00    +0.000 A 
ATOM      3  C   UNL     1      49.278   2.658  17.049  0.00  0.00    +0.000 A 
ATOM      4 CL   UNL     1      50.467   1.437  17.252  0.00  0.00    +0.000 Cl
ATOM      5  N   UNL     1      48.666   2.656  15.849  0.00  0.00    +0.000 NA
ATOM      6  C   UNL     1      47.714   3.578  15.625  0.00  0.00    +0.000 A 
ATOM      7  N   UNL     1      47.121   3.534  14.395  0.00  0.00    +0.000 N 
ATOM      8  C   UNL     1      47.373   4.507  16.601  0.00  0.00    +0.000 A 
ATOM      9  H   UNL     1      47.460   2.814  13.769  0.00  0.00    +0.000 HD
ENDROOT
BRANCH   1  11
ATOM     10  F   UNL     1      47.927   5.110  20.161  0.00  0.00    +0.000 F 
ATOM     11  C   UNL     1      47.633   5.506  18.893  0.00  0.00    +0.000 C 
ATOM     12  F   UNL     1      46.298   5.778  18.885  0.00  0.00    +0.000 F 
ATOM     13  F   UNL     1      48.258   6.702  18.717  0.00  0.00    +0.000 F 
ENDBRANCH   1  11
BRANCH   7  14
ATOM     14  C   UNL     1      46.037   4.400  13.968  0.00  0.00    +0.000 C 
BRANCH  14  15
ATOM     15  C   UNL     1      45.176   3.797  12.872  0.00  0.00    +0.000 A 
ATOM     16  N   UNL     1      43.944   3.368  13.210  0.00  0.00    +0.000 NA
ATOM     17  C   UNL     1      43.187   2.878  12.217  0.00  0.00    +0.000 A 
ATOM     18  C   UNL     1      43.607   2.806  10.911  0.00  0.00    +0.000 A 
ATOM     19  C   UNL     1      44.887   3.256  10.644  0.00  0.00    +0.000 A 
ATOM     20  N   UNL     1      45.683   3.746  11.621  0.00  0.00    +0.000 NA
BRANCH  19  21
ATOM     21  C   UNL     1      45.475   3.194   9.295  0.00  0.00    +0.000 A 
ATOM     22  C   UNL     1      45.861   1.991   8.684  0.00  0.00    +0.000 A 
ATOM     23  C   UNL     1      46.490   1.992   7.440  0.00  0.00    +0.000 A 
ATOM     24  C   UNL     1      46.707   3.207   6.817  0.00  0.00    +0.000 A 
ATOM     25  N   UNL     1      46.324   4.389   7.339  0.00  0.00    +0.000 NA
ATOM     26  C   UNL     1      45.716   4.352   8.553  0.00  0.00    +0.000 A 
ENDBRANCH  19  21
ENDBRANCH  14  15
ENDBRANCH   7  14
TORSDOF 4
ENDMDL
MODEL 2
REMARK VINA RESULT:    -7.875      3.373      4.193
REMARK INTER + INTRA:         -10.181
REMARK INTER:                  -9.762
REMARK INTRA:                  -0.419
REMARK UNBOUND:                -0.465
REMARK  Name = 
REMARK  4 active torsions:
REMARK  status: ('A' for Active; 'I' for Inactive)
REMARK    1  A    between atoms: C_2  and  C_5
REMARK    2  A    between atoms: N_11  and  C_12
REMARK    3  A    between atoms: C_12  and  C_13
REMARK    4  A    between atoms: C_17  and  C_18
REMARK                            x       y       z     vdW  Elec       q    Type
REMARK                         _______ _______ _______ _____ _____    ______ ____
ROOT
ATOM      1  C   UNL     1      47.148   5.583  13.647  0.00  0.00    +0.000 A 
ATOM      2  C   UNL     1      48.259   6.390  13.418  0.00  0.00    +0.000 A 
ATOM      3  C   UNL     1      48.171   7.323  12.404  0.00  0.00    +0.000 A 
ATOM      4 CL   UNL     1      49.503   8.344  12.044  0.00  0.00    +0.000 Cl
ATOM      5  N   UNL     1      47.088   7.512  11.625  0.00  0.00    +0.000 NA
ATOM      6  C   UNL     1      46.012   6.736  11.843  0.00  0.00    +0.000 A 
ATOM      7  N   UNL     1      44.941   6.964  11.026  0.00  0.00    +0.000 N 
ATOM      8  C   UNL     1      46.015   5.771  12.843  0.00  0.00    +0.000 A 
ATOM      9  H   UNL     1      45.059   7.698  10.340  0.00  0.00    +0.000 HD
ENDROOT
BRANCH   1  11
ATOM     10  F   UNL     1      47.435   3.286  14.263  0.00  0.00    +0.000 F 
ATOM     11  C   UNL     1      47.138   4.533  14.720  0.00  0.00    +0.000 C 
ATOM     12  F   UNL     1      45.925   4.429  15.331  0.00  0.00    +0.000 F 
ATOM     13  F   UNL     1      48.033   4.794  15.712  0.00  0.00    +0.000 F 
ENDBRANCH   1  11
BRANCH   7  14
ATOM     14  C   UNL     1      43.703   6.206  11.056  0.00  0.00    +0.000 C 
BRANCH  14  15
ATOM     15  C   UNL     1      43.892   4.728  10.763  0.00  0.00    +0.000 A 
ATOM     16  N   UNL     1      43.232   3.848  11.540  0.00  0.00    +0.000 NA
ATOM     17  C   UNL     1      43.382   2.550  11.236  0.00  0.00    +0.000 A 
ATOM     18  C   UNL     1      44.153   2.103  10.189  0.00  0.00    +0.000 A 
ATOM     19  C   UNL     1      44.806   3.065   9.443  0.00  0.00    +0.000 A 
ATOM     20  N   UNL     1      44.689   4.382   9.728  0.00  0.00    +0.000 NA
BRANCH  19  21
ATOM     21  C   UNL     1      45.698   2.719   8.323  0.00  0.00    +0.000 A 
ATOM     22  C   UNL     1      46.028   3.624   7.302  0.00  0.00    +0.000 A 
ATOM     23  C   UNL     1      46.810   3.223   6.219  0.00  0.00    +0.000 A 
ATOM     24  C   UNL     1      47.262   1.918   6.186  0.00  0.00    +0.000 A 
ATOM     25  N   UNL     1      47.007   1.017   7.156  0.00  0.00    +0.000 NA
ATOM     26  C   UNL     1      46.242   1.440   8.196  0.00  0.00    +0.000 A 
ENDBRANCH  19  21
ENDBRANCH  14  15
ENDBRANCH   7  14
TORSDOF 4
ENDMDL
MODEL 3
REMARK VINA RESULT:    -7.834      4.511      5.517
REMARK INTER + INTRA:         -10.130
REMARK INTER:                  -9.390
REMARK INTRA:                  -0.740
REMARK UNBOUND:                -0.465
REMARK  Name = 
REMARK  4 active torsions:
REMARK  status: ('A' for Active; 'I' for Inactive)
REMARK    1  A    between atoms: C_2  and  C_5
REMARK    2  A    between atoms: N_11  and  C_12
REMARK    3  A    between atoms: C_12  and  C_13
REMARK    4  A    between atoms: C_17  and  C_18
REMARK                            x       y       z     vdW  Elec       q    Type
REMARK                         _______ _______ _______ _____ _____    ______ ____
ROOT
ATOM      1  C   UNL     1      48.295   8.522  12.191  0.00  0.00    +0.000 A 
ATOM      2  C   UNL     1      47.724   9.762  11.922  0.00  0.00    +0.000 A 
ATOM      3  C   UNL     1      46.362   9.891  12.106  0.00  0.00    +0.000 A 
ATOM      4 CL   UNL     1      45.578  11.382  11.780  0.00  0.00    +0.000 Cl
ATOM      5  N   UNL     1      45.547   8.906  12.531  0.00  0.00    +0.000 NA
ATOM      6  C   UNL     1      46.093   7.706  12.793  0.00  0.00    +0.000 A 
ATOM      7  N   UNL     1      45.226   6.739  13.219  0.00  0.00    +0.000 N 
ATOM      8  C   UNL     1      47.457   7.489  12.634  0.00  0.00    +0.000 A 
ATOM      9  H   UNL     1      44.258   7.022  13.300  0.00  0.00    +0.000 HD
ENDROOT
BRANCH   1  11
ATOM     10  F   UNL     1      50.356   7.726  13.117  0.00  0.00    +0.000 F 
ATOM     11  C   UNL     1      49.765   8.270  12.018  0.00  0.00    +0.000 C 
ATOM     12  F   UNL     1      50.457   9.412  11.747  0.00  0.00    +0.000 F 
ATOM     13  F   UNL     1      50.030   7.421  10.988  0.00  0.00    +0.000 F 
ENDBRANCH   1  11
BRANCH   7  14
ATOM     14  C   UNL     1      45.596   5.365  13.505  0.00  0.00    +0.000 C 
BRANCH  14  15
ATOM     15  C   UNL     1      44.964   4.359  12.559  0.00  0.00    +0.000 A 
ATOM     16  N   UNL     1      43.901   3.663  13.007  0.00  0.00    +0.000 NA
ATOM     17  C   UNL     1      43.334   2.811  12.140  0.00  0.00    +0.000 A 
ATOM     18  C   UNL     1      43.780   2.635  10.852  0.00  0.00    +0.000 A 
ATOM     19  C   UNL     1      44.881   3.378  10.468  0.00  0.00    +0.000 A 
ATOM     20  N   UNL     1      45.486   4.237  11.319  0.00  0.00    +0.000 NA
BRANCH  19  21
ATOM     21  C   UNL     1      45.485   3.252   9.131  0.00  0.00    +0.000 A 
ATOM     22  C   UNL     1      45.793   2.013   8.546  0.00  0.00    +0.000 A 
ATOM     23  C   UNL     1      46.441   1.949   7.313  0.00  0.00    +0.000 A 
ATOM     24  C   UNL     1      46.754   3.134   6.675  0.00  0.00    +0.000 A 
ATOM     25  N   UNL     1      46.449   4.349   7.172  0.00  0.00    +0.000 NA
ATOM     26  C   UNL     1      45.820   4.377   8.376  0.00  0.00    +0.000 A 
ENDBRANCH  19  21
ENDBRANCH  14  15
ENDBRANCH   7  14
TORSDOF 4
ENDMDL
MODEL 4
REMARK VINA RESULT:    -7.723      4.124      4.989
REMARK INTER + INTRA:          -9.994
REMARK INTER:                  -9.256
REMARK INTRA:                  -0.738
REMARK UNBOUND:                -0.465
REMARK  Name = 
REMARK  4 active torsions:
REMARK  status: ('A' for Active; 'I' for Inactive)
REMARK    1  A    between atoms: C_2  and  C_5
REMARK    2  A    between atoms: N_11  and  C_12
REMARK    3  A    between atoms: C_12  and  C_13
REMARK    4  A    between atoms: C_17  and  C_18
REMARK                            x       y       z     vdW  Elec       q    Type
REMARK                         _______ _______ _______ _____ _____    ______ ____
ROOT
ATOM      1  C   UNL     1      46.784   8.716  12.183  0.00  0.00    +0.000 A 
ATOM      2  C   UNL     1      48.120   8.952  11.872  0.00  0.00    +0.000 A 
ATOM      3  C   UNL     1      49.012   7.915  12.060  0.00  0.00    +0.000 A 
ATOM      4 CL   UNL     1      50.679   8.130  11.718  0.00  0.00    +0.000 Cl
ATOM      5  N   UNL     1      48.682   6.692  12.517  0.00  0.00    +0.000 NA
ATOM      6  C   UNL     1      47.393   6.458  12.818  0.00  0.00    +0.000 A 
ATOM      7  N   UNL     1      47.109   5.203  13.280  0.00  0.00    +0.000 N 
ATOM      8  C   UNL     1      46.428   7.446  12.659  0.00  0.00    +0.000 A 
ATOM      9  H   UNL     1      47.896   4.570  13.346  0.00  0.00    +0.000 HD
ENDROOT
BRANCH   1  11
ATOM     10  F   UNL     1      44.745   9.707  12.955  0.00  0.00    +0.000 F 
ATOM     11  C   UNL     1      45.732   9.776  12.022  0.00  0.00    +0.000 C 
ATOM     12  F   UNL     1      45.110   9.707  10.812  0.00  0.00    +0.000 F 
ATOM     13  F   UNL     1      46.244  11.034  12.106  0.00  0.00    +0.000 F 
ENDBRANCH   1  11
BRANCH   7  14
ATOM     14  C   UNL     1      45.796   4.759  13.711  0.00  0.00    +0.000 C 
BRANCH  14  15
ATOM     15  C   UNL     1      45.054   3.955  12.658  0.00  0.00    +0.000 A 
ATOM     16  N   UNL     1      43.895   3.371  13.019  0.00  0.00    +0.000 NA
ATOM     17  C   UNL     1      43.237   2.701  12.061  0.00  0.00    +0.000 A 
ATOM     18  C   UNL     1      43.685   2.600  10.766  0.00  0.00    +0.000 A 
ATOM     19  C   UNL     1      44.887   3.218  10.474  0.00  0.00    +0.000 A 
ATOM     20  N   UNL     1      45.584   3.891  11.416  0.00  0.00    +0.000 NA
BRANCH  19  21
ATOM     21  C   UNL     1      45.500   3.148   9.136  0.00  0.00    +0.000 A 
ATOM     22  C   UNL     1      45.912   1.943   8.547  0.00  0.00    +0.000 A 
ATOM     23  C   UNL     1      46.563   1.938   7.314  0.00  0.00    +0.000 A 
ATOM     24  C   UNL     1      46.776   3.148   6.681  0.00  0.00    +0.000 A 
ATOM     25  N   UNL     1      46.368   4.331   7.182  0.00  0.00    +0.000 NA
ATOM     26  C   UNL     1      45.739   4.301   8.386  0.00  0.00    +0.000 A 
ENDBRANCH  19  21
ENDBRANCH  14  15
ENDBRANCH   7  14
TORSDOF 4
ENDMDL
MODEL 5
REMARK VINA RESULT:    -7.604      3.366      3.995
REMARK INTER + INTRA:          -9.846
REMARK INTER:                  -9.178
REMARK INTRA:                  -0.669
REMARK UNBOUND:                -0.465
REMARK  Name = 
REMARK  4 active torsions:
REMARK  status: ('A' for Active; 'I' for Inactive)
REMARK    1  A    between atoms: C_2  and  C_5
REMARK    2  A    between atoms: N_11  and  C_12
REMARK    3  A    between atoms: C_12  and  C_13
REMARK    4  A    between atoms: C_17  and  C_18
REMARK                            x       y       z     vdW  Elec       q    Type
REMARK                         _______ _______ _______ _____ _____    ______ ____
ROOT
ATOM      1  C   UNL     1      48.653   6.902  14.165  0.00  0.00    +0.000 A 
ATOM      2  C   UNL     1      49.724   7.441  13.458  0.00  0.00    +0.000 A 
ATOM      3  C   UNL     1      49.521   7.744  12.126  0.00  0.00    +0.000 A 
ATOM      4 CL   UNL     1      50.796   8.395  11.179  0.00  0.00    +0.000 Cl
ATOM      5  N   UNL     1      48.363   7.561  11.464  0.00  0.00    +0.000 NA
ATOM      6  C   UNL     1      47.325   7.042  12.142  0.00  0.00    +0.000 A 
ATOM      7  N   UNL     1      46.172   6.874  11.426  0.00  0.00    +0.000 N 
ATOM      8  C   UNL     1      47.441   6.707  13.486  0.00  0.00    +0.000 A 
ATOM      9  H   UNL     1      46.211   7.161  10.457  0.00  0.00    +0.000 HD
ENDROOT
BRANCH   1  11
ATOM     10  F   UNL     1      48.035   5.433  15.953  0.00  0.00    +0.000 F 
ATOM     11  C   UNL     1      48.766   6.530  15.615  0.00  0.00    +0.000 C 
ATOM     12  F   UNL     1      48.344   7.530  16.439  0.00  0.00    +0.000 F 
ATOM     13  F   UNL     1      50.047   6.259  15.984  0.00  0.00    +0.000 F 
ENDBRANCH   1  11
BRANCH   7  14
ATOM     14  C   UNL     1      44.954   6.282  11.949  0.00  0.00    +0.000 C 
BRANCH  14  15
ATOM     15  C   UNL     1      44.652   4.910  11.373  0.00  0.00    +0.000 A 
ATOM     16  N   UNL     1      43.718   4.164  11.993  0.00  0.00    +0.000 NA
ATOM     17  C   UNL     1      43.439   2.973  11.442  0.00  0.00    +0.000 A 
ATOM     18  C   UNL     1      44.047   2.507  10.301  0.00  0.00    +0.000 A 
ATOM     19  C   UNL     1      45.002   3.326   9.727  0.00  0.00    +0.000 A 
ATOM     20  N   UNL     1      45.318   4.527  10.261  0.00  0.00    +0.000 NA
BRANCH  19  21
ATOM     21  C   UNL     1      45.759   2.927   8.527  0.00  0.00    +0.000 A 
ATOM     22  C   UNL     1      46.081   3.823   7.495  0.00  0.00    +0.000 A 
ATOM     23  C   UNL     1      46.726   3.379   6.342  0.00  0.00    +0.000 A 
ATOM     24  C   UNL     1      47.055   2.040   6.250  0.00  0.00    +0.000 A 
ATOM     25  N   UNL     1      46.804   1.144   7.225  0.00  0.00    +0.000 NA
ATOM     26  C   UNL     1      46.173   1.609   8.334  0.00  0.00    +0.000 A 
ENDBRANCH  19  21
ENDBRANCH  14  15
ENDBRANCH   7  14
TORSDOF 4
ENDMDL
MODEL 6
REMARK VINA RESULT:    -7.508      4.590      8.731
REMARK INTER + INTRA:          -9.729
REMARK INTER:                  -9.279
REMARK INTRA:                  -0.450
REMARK UNBOUND:                -0.465
REMARK  Name = 
REMARK  4 active torsions:
REMARK  status: ('A' for Active; 'I' for Inactive)
REMARK    1  A    between atoms: C_2  and  C_5
REMARK    2  A    between atoms: N_11  and  C_12
REMARK    3  A    between atoms: C_12  and  C_13
REMARK    4  A    between atoms: C_17  and  C_18
REMARK                            x       y       z     vdW  Elec       q    Type
REMARK                         _______ _______ _______ _____ _____    ______ ____
ROOT
ATOM      1  C   UNL     1      44.843   4.585  11.389  0.00  0.00    +0.000 A 
ATOM      2  C   UNL     1      44.595   5.908  11.033  0.00  0.00    +0.000 A 
ATOM      3  C   UNL     1      45.072   6.895  11.873  0.00  0.00    +0.000 A 
ATOM      4 CL   UNL     1      44.793   8.550  11.516  0.00  0.00    +0.000 Cl
ATOM      5  N   UNL     1      45.762   6.671  13.008  0.00  0.00    +0.000 NA
ATOM      6  C   UNL     1      46.005   5.396  13.357  0.00  0.00    +0.000 A 
ATOM      7  N   UNL     1      46.706   5.220  14.517  0.00  0.00    +0.000 N 
ATOM      8  C   UNL     1      45.561   4.340  12.569  0.00  0.00    +0.000 A 
ATOM      9  H   UNL     1      46.979   6.067  14.998  0.00  0.00    +0.000 HD
ENDROOT
BRANCH   1  11
ATOM     10  F   UNL     1      43.828   3.816   9.361  0.00  0.00    +0.000 F 
ATOM     11  C   UNL     1      44.365   3.435  10.552  0.00  0.00    +0.000 C 
ATOM     12  F   UNL     1      43.403   2.703  11.180  0.00  0.00    +0.000 F 
ATOM     13  F   UNL     1      45.363   2.560  10.252  0.00  0.00    +0.000 F 
ENDBRANCH   1  11
BRANCH   7  14
ATOM     14  C   UNL     1      47.028   3.930  15.100  0.00  0.00    +0.000 C 
BRANCH  14  15
ATOM     15  C   UNL     1      47.787   4.033  16.411  0.00  0.00    +0.000 A 
ATOM     16  N   UNL     1      47.188   4.675  17.432  0.00  0.00    +0.000 NA
ATOM     17  C   UNL     1      47.860   4.717  18.592  0.00  0.00    +0.000 A 
ATOM     18  C   UNL     1      49.094   4.140  18.771  0.00  0.00    +0.000 A 
ATOM     19  C   UNL     1      49.650   3.506  17.675  0.00  0.00    +0.000 A 
ATOM     20  N   UNL     1      49.007   3.455  16.487  0.00  0.00    +0.000 NA
BRANCH  19  21
ATOM     21  C   UNL     1      50.985   2.885  17.720  0.00  0.00    +0.000 A 
ATOM     22  C   UNL     1      51.224   1.560  17.326  0.00  0.00    +0.000 A 
ATOM     23  C   UNL     1      52.490   0.992  17.465  0.00  0.00    +0.000 A 
ATOM     24  C   UNL     1      53.504   1.773  17.986  0.00  0.00    +0.000 A 
ATOM     25  N   UNL     1      53.340   3.061  18.346  0.00  0.00    +0.000 NA
ATOM     26  C   UNL     1      52.095   3.583  18.198  0.00  0.00    +0.000 A 
ENDBRANCH  19  21
ENDBRANCH  14  15
ENDBRANCH   7  14
TORSDOF 4
ENDMDL
MODEL 7
REMARK VINA RESULT:    -7.410      2.205      2.463
REMARK INTER + INTRA:          -9.607
REMARK INTER:                  -9.147
REMARK INTRA:                  -0.461
REMARK UNBOUND:                -0.465
REMARK  Name = 
REMARK  4 active torsions:
REMARK  status: ('A' for Active; 'I' for Inactive)
REMARK    1  A    between atoms: C_2  and  C_5
REMARK    2  A    between atoms: N_11  and  C_12
REMARK    3  A    between atoms: C_12  and  C_13
REMARK    4  A    between atoms: C_17  and  C_18
REMARK                            x       y       z     vdW  Elec       q    Type
REMARK                         _______ _______ _______ _____ _____    ______ ____
ROOT
ATOM      1  C   UNL     1      48.854   4.721  17.119  0.00  0.00    +0.000 A 
ATOM      2  C   UNL     1      49.808   5.722  16.963  0.00  0.00    +0.000 A 
ATOM      3  C   UNL     1      49.664   6.579  15.890  0.00  0.00    +0.000 A 
ATOM      4 CL   UNL     1      50.807   7.829  15.617  0.00  0.00    +0.000 Cl
ATOM      5  N   UNL     1      48.666   6.519  14.988  0.00  0.00    +0.000 NA
ATOM      6  C   UNL     1      47.741   5.555  15.134  0.00  0.00    +0.000 A 
ATOM      7  N   UNL     1      46.750   5.534  14.193  0.00  0.00    +0.000 N 
ATOM      8  C   UNL     1      47.810   4.649  16.186  0.00  0.00    +0.000 A 
ATOM      9  H   UNL     1      46.806   6.250  13.480  0.00  0.00    +0.000 HD
ENDROOT
BRANCH   1  11
ATOM     10  F   UNL     1      47.815   2.941  18.340  0.00  0.00    +0.000 F 
ATOM     11  C   UNL     1      48.919   3.731  18.247  0.00  0.00    +0.000 C 
ATOM     12  F   UNL     1      49.050   4.338  19.460  0.00  0.00    +0.000 F 
ATOM     13  F   UNL     1      49.980   2.886  18.137  0.00  0.00    +0.000 F 
ENDBRANCH   1  11
BRANCH   7  14
ATOM     14  C   UNL     1      45.687   4.547  14.134  0.00  0.00    +0.000 C 
BRANCH  14  15
ATOM     15  C   UNL     1      44.865   4.620  12.859  0.00  0.00    +0.000 A 
ATOM     16  N   UNL     1      43.647   5.191  12.933  0.00  0.00    +0.000 NA
ATOM     17  C   UNL     1      42.956   5.281  11.787  0.00  0.00    +0.000 A 
ATOM     18  C   UNL     1      43.435   4.833  10.579  0.00  0.00    +0.000 A 
ATOM     19  C   UNL     1      44.689   4.250  10.585  0.00  0.00    +0.000 A 
ATOM     20  N   UNL     1      45.408   4.131  11.723  0.00  0.00    +0.000 NA
BRANCH  19  21
ATOM     21  C   UNL     1      45.299   3.689   9.367  0.00  0.00    +0.000 A 
ATOM     22  C   UNL     1      45.461   2.310   9.159  0.00  0.00    +0.000 A 
ATOM     23  C   UNL     1      46.119   1.832   8.028  0.00  0.00    +0.000 A 
ATOM     24  C   UNL     1      46.593   2.750   7.109  0.00  0.00    +0.000 A 
ATOM     25  N   UNL     1      46.433   4.082   7.238  0.00  0.00    +0.000 NA
ATOM     26  C   UNL     1      45.789   4.514   8.353  0.00  0.00    +0.000 A 
ENDBRANCH  19  21
ENDBRANCH  14  15
ENDBRANCH   7  14
TORSDOF 4
ENDMDL
MODEL 8
REMARK VINA RESULT:    -6.976      3.303      4.488
REMARK INTER + INTRA:          -9.072
REMARK INTER:                  -8.304
REMARK INTRA:                  -0.768
REMARK UNBOUND:                -0.465
REMARK  Name = 
REMARK  4 active torsions:
REMARK  status: ('A' for Active; 'I' for Inactive)
REMARK    1  A    between atoms: C_2  and  C_5
REMARK    2  A    between atoms: N_11  and  C_12
REMARK    3  A    between atoms: C_12  and  C_13
REMARK    4  A    between atoms: C_17  and  C_18
REMARK                            x       y       z     vdW  Elec       q    Type
REMARK                         _______ _______ _______ _____ _____    ______ ____
ROOT
ATOM      1  C   UNL     1      48.308   4.460  17.364  0.00  0.00    +0.000 A 
ATOM      2  C   UNL     1      48.338   4.962  18.662  0.00  0.00    +0.000 A 
ATOM      3  C   UNL     1      48.524   6.321  18.817  0.00  0.00    +0.000 A 
ATOM      4 CL   UNL     1      48.591   7.016  20.385  0.00  0.00    +0.000 Cl
ATOM      5  N   UNL     1      48.676   7.196  17.805  0.00  0.00    +0.000 NA
ATOM      6  C   UNL     1      48.647   6.718  16.549  0.00  0.00    +0.000 A 
ATOM      7  N   UNL     1      48.807   7.644  15.557  0.00  0.00    +0.000 N 
ATOM      8  C   UNL     1      48.464   5.362  16.302  0.00  0.00    +0.000 A 
ATOM      9  H   UNL     1      48.927   8.601  15.863  0.00  0.00    +0.000 HD
ENDROOT
BRANCH   1  11
ATOM     10  F   UNL     1      49.186   2.233  17.434  0.00  0.00    +0.000 F 
ATOM     11  C   UNL     1      48.117   2.998  17.082  0.00  0.00    +0.000 C 
ATOM     12  F   UNL     1      47.898   2.751  15.761  0.00  0.00    +0.000 F 
ATOM     13  F   UNL     1      47.047   2.477  17.742  0.00  0.00    +0.000 F 
ENDBRANCH   1  11
BRANCH   7  14
ATOM     14  C   UNL     1      48.862   7.335  14.139  0.00  0.00    +0.000 C 
BRANCH  14  15
ATOM     15  C   UNL     1      47.523   7.482  13.437  0.00  0.00    +0.000 A 
ATOM     16  N   UNL     1      47.095   8.730  13.163  0.00  0.00    +0.000 NA
ATOM     17  C   UNL     1      45.930   8.833  12.505  0.00  0.00    +0.000 A 
ATOM     18  C   UNL     1      45.187   7.746  12.108  0.00  0.00    +0.000 A 
ATOM     19  C   UNL     1      45.688   6.499  12.433  0.00  0.00    +0.000 A 
ATOM     20  N   UNL     1      46.852   6.357  13.106  0.00  0.00    +0.000 NA
BRANCH  19  21
ATOM     21  C   UNL     1      44.970   5.256  12.105  0.00  0.00    +0.000 A 
ATOM     22  C   UNL     1      44.640   4.888  10.790  0.00  0.00    +0.000 A 
ATOM     23  C   UNL     1      43.887   3.743  10.537  0.00  0.00    +0.000 A 
ATOM     24  C   UNL     1      43.489   2.971  11.613  0.00  0.00    +0.000 A 
ATOM     25  N   UNL     1      43.808   3.255  12.891  0.00  0.00    +0.000 NA
ATOM     26  C   UNL     1      44.541   4.379  13.102  0.00  0.00    +0.000 A 
ENDBRANCH  19  21
ENDBRANCH  14  15
ENDBRANCH   7  14
TORSDOF 4
ENDMDL
MODEL 9
REMARK VINA RESULT:    -6.520      4.635      9.106
REMARK INTER + INTRA:          -8.509
REMARK INTER:                  -7.981
REMARK INTRA:                  -0.528
REMARK UNBOUND:                -0.465
REMARK  Name = 
REMARK  4 active torsions:
REMARK  status: ('A' for Active; 'I' for Inactive)
REMARK    1  A    between atoms: C_2  and  C_5
REMARK    2  A    between atoms: N_11  and  C_12
REMARK    3  A    between atoms: C_12  and  C_13
REMARK    4  A    between atoms: C_17  and  C_18
REMARK                            x       y       z     vdW  Elec       q    Type
REMARK                         _______ _______ _______ _____ _____    ______ ____
ROOT
ATOM      1  C   UNL     1      44.832   4.776  11.381  0.00  0.00    +0.000 A 
ATOM      2  C   UNL     1      44.588   6.105  11.048  0.00  0.00    +0.000 A 
ATOM      3  C   UNL     1      45.108   7.078  11.879  0.00  0.00    +0.000 A 
ATOM      4 CL   UNL     1      44.837   8.739  11.549  0.00  0.00    +0.000 Cl
ATOM      5  N   UNL     1      45.837   6.833  12.985  0.00  0.00    +0.000 NA
ATOM      6  C   UNL     1      46.077   5.551  13.311  0.00  0.00    +0.000 A 
ATOM      7  N   UNL     1      46.818   5.355  14.442  0.00  0.00    +0.000 N 
ATOM      8  C   UNL     1      45.590   4.509  12.530  0.00  0.00    +0.000 A 
ATOM      9  H   UNL     1      47.120   6.194  14.922  0.00  0.00    +0.000 HD
ENDROOT
BRANCH   1  11
ATOM     10  F   UNL     1      43.873   4.023   9.320  0.00  0.00    +0.000 F 
ATOM     11  C   UNL     1      44.308   3.640  10.551  0.00  0.00    +0.000 C 
ATOM     12  F   UNL     1      43.254   3.011  11.142  0.00  0.00    +0.000 F 
ATOM     13  F   UNL     1      45.245   2.677  10.336  0.00  0.00    +0.000 F 
ENDBRANCH   1  11
BRANCH   7  14
ATOM     14  C   UNL     1      47.146   4.055  15.000  0.00  0.00    +0.000 C 
BRANCH  14  15
ATOM     15  C   UNL     1      47.673   4.124  16.423  0.00  0.00    +0.000 A 
ATOM     16  N   UNL     1      47.908   2.959  17.059  0.00  0.00    +0.000 NA
ATOM     17  C   UNL     1      48.412   3.045  18.299  0.00  0.00    +0.000 A 
ATOM     18  C   UNL     1      48.694   4.238  18.920  0.00  0.00    +0.000 A 
ATOM     19  C   UNL     1      48.417   5.390  18.208  0.00  0.00    +0.000 A 
ATOM     20  N   UNL     1      47.897   5.343  16.960  0.00  0.00    +0.000 NA
BRANCH  19  21
ATOM     21  C   UNL     1      48.631   6.733  18.773  0.00  0.00    +0.000 A 
ATOM     22  C   UNL     1      48.277   7.911  18.098  0.00  0.00    +0.000 A 
ATOM     23  C   UNL     1      48.575   9.161  18.639  0.00  0.00    +0.000 A 
ATOM     24  C   UNL     1      49.214   9.208  19.864  0.00  0.00    +0.000 A 
ATOM     25  N   UNL     1      49.543   8.111  20.574  0.00  0.00    +0.000 NA
ATOM     26  C   UNL     1      49.239   6.910  20.017  0.00  0.00    +0.000 A 
ENDBRANCH  19  21
ENDBRANCH  14  15
ENDBRANCH   7  14
TORSDOF 4
ENDMDL
