MODEL 1
REMARK VINA RESULT:    -8.588      0.000      0.000
REMARK INTER + INTRA:         -13.776
REMARK INTER:                 -12.605
REMARK INTRA:                  -1.171
REMARK UNBOUND:                -1.171
REMARK  Name = 
REMARK  9 active torsions:
REMARK  status: ('A' for Active; 'I' for Inactive)
REMARK    1  A    between atoms: C_1  and  O_2
REMARK    2  A    between atoms: O_2  and  C_3
REMARK    3  A    between atoms: C_5  and  C_6
REMARK    4  A    between atoms: C_6  and  N_7
REMARK    5  A    between atoms: C_8  and  C_10
REMARK    6  A    between atoms: C_22  and  C_23
REMARK    7  A    between atoms: C_23  and  N_24
REMARK    8  A    between atoms: N_24  and  C_25
REMARK    9  A    between atoms: C_25  and  C_26
REMARK                            x       y       z     vdW  Elec       q    Type
REMARK                         _______ _______ _______ _____ _____    ______ ____
ROOT
ATOM      1  C   UNL     1      45.553   3.863  12.089  0.00  0.00    +0.000 A 
ATOM      2  C   UNL     1      46.099   3.507  13.338  0.00  0.00    +0.000 A 
ATOM      3  C   UNL     1      46.899   4.400  14.071  0.00  0.00    +0.000 A 
ATOM      4  C   UNL     1      47.137   5.669  13.538  0.00  0.00    +0.000 A 
ATOM      5  C   UNL     1      46.568   6.041  12.318  0.00  0.00    +0.000 A 
ATOM      6  C   UNL     1      45.739   5.164  11.591  0.00  0.00    +0.000 A 
ENDROOT
BRANCH   1   8
ATOM      7  C   UNL     1      43.391   2.905  11.919  0.00  0.00    +0.000 C 
ATOM      8  O   UNL     1      44.759   2.905  11.508  0.00  0.00    +0.000 OA
ENDBRANCH   1   8
BRANCH   3   9
ATOM      9  C   UNL     1      47.466   4.031  15.423  0.00  0.00    +0.000 C 
BRANCH   9  10
ATOM     10  N   UNL     1      47.405   5.138  16.348  0.00  0.00    +0.000 N 
ATOM     11  C   UNL     1      48.547   5.655  16.919  0.00  0.00    +0.000 C 
ATOM     12  O   UNL     1      49.660   5.233  16.627  0.00  0.00    +0.000 OA
ATOM     13  H   UNL     1      46.502   5.353  16.754  0.00  0.00    +0.000 HD
BRANCH  11  14
ATOM     14  C   UNL     1      48.375   6.772  17.858  0.00  0.00    +0.000 A 
ATOM     15  C   UNL     1      48.281   6.514  19.223  0.00  0.00    +0.000 A 
ATOM     16  S   UNL     1      48.125   7.916  20.180  0.00  0.00    +0.000 S 
ATOM     17  C   UNL     1      48.134   8.921  18.808  0.00  0.00    +0.000 A 
ATOM     18  N   UNL     1      48.011  10.268  18.930  0.00  0.00    +0.000 NA
ATOM     19  C   UNL     1      48.006  10.908  17.804  0.00  0.00    +0.000 A 
ATOM     20  N   UNL     1      48.112  10.320  16.573  0.00  0.00    +0.000 N 
ATOM     21  C   UNL     1      48.260   8.962  16.404  0.00  0.00    +0.000 A 
ATOM     22  O   UNL     1      48.387   8.475  15.284  0.00  0.00    +0.000 OA
ATOM     23  C   UNL     1      48.271   8.192  17.635  0.00  0.00    +0.000 A 
ATOM     24  H   UNL     1      48.102  10.879  15.732  0.00  0.00    +0.000 HD
ENDBRANCH  11  14
ENDBRANCH   9  10
ENDBRANCH   3   9
BRANCH   6  25
ATOM     25  C   UNL     1      45.063   5.714  10.355  0.00  0.00    +0.000 C 
BRANCH  25  26
ATOM     26  N   UNL     1      45.650   5.276   9.087  0.00  0.00    +0.000 NA
ATOM     27  H   UNL     1      46.615   4.997   9.253  0.00  0.00    +0.000 HD
BRANCH  26  28
ATOM     28  C   UNL     1      44.965   4.129   8.501  0.00  0.00    +0.000 C 
BRANCH  28  29
ATOM     29  C   UNL     1      45.987   3.177   7.933  0.00  0.00    +0.000 A 
ATOM     30  C   UNL     1      47.026   3.637   7.122  0.00  0.00    +0.000 A 
ATOM     31  C   UNL     1      47.911   2.709   6.602  0.00  0.00    +0.000 A 
ATOM     32  N   UNL     1      47.830   1.378   6.825  0.00  0.00    +0.000 NA
ATOM     33  C   UNL     1      46.812   0.946   7.587  0.00  0.00    +0.000 A 
ATOM     34  N   UNL     1      46.755  -0.424   7.835  0.00  0.00    +0.000 N 
ATOM     35  C   UNL     1      45.879   1.800   8.155  0.00  0.00    +0.000 A 
ATOM     36  H   UNL     1      47.486  -0.854   7.274  0.00  0.00    +0.000 HD
ATOM     37  H   UNL     1      45.839  -0.802   7.624  0.00  0.00    +0.000 HD
ENDBRANCH  28  29
ENDBRANCH  26  28
ENDBRANCH  25  26
ENDBRANCH   6  25
TORSDOF 8
ENDMDL
MODEL 2
REMARK VINA RESULT:    -8.588      1.919      3.314
REMARK INTER + INTRA:         -13.775
REMARK INTER:                 -12.691
REMARK INTRA:                  -1.084
REMARK UNBOUND:                -1.171
REMARK  Name = 
REMARK  9 active torsions:
REMARK  status: ('A' for Active; 'I' for Inactive)
REMARK    1  A    between atoms: C_1  and  O_2
REMARK    2  A    between atoms: O_2  and  C_3
REMARK    3  A    between atoms: C_5  and  C_6
REMARK    4  A    between atoms: C_6  and  N_7
REMARK    5  A    between atoms: C_8  and  C_10
REMARK    6  A    between atoms: C_22  and  C_23
REMARK    7  A    between atoms: C_23  and  N_24
REMARK    8  A    between atoms: N_24  and  C_25
REMARK    9  A    between atoms: C_25  and  C_26
REMARK                            x       y       z     vdW  Elec       q    Type
REMARK                         _______ _______ _______ _____ _____    ______ ____
ROOT
ATOM      1  C   UNL     1      44.769   6.222  11.932  0.00  0.00    +0.000 A 
ATOM      2  C   UNL     1      45.937   6.688  12.567  0.00  0.00    +0.000 A 
ATOM      3  C   UNL     1      46.841   5.804  13.182  0.00  0.00    +0.000 A 
ATOM      4  C   UNL     1      46.562   4.436  13.140  0.00  0.00    +0.000 A 
ATOM      5  C   UNL     1      45.425   3.965  12.479  0.00  0.00    +0.000 A 
ATOM      6  C   UNL     1      44.531   4.841  11.833  0.00  0.00    +0.000 A 
ENDROOT
BRANCH   1   8
ATOM      7  C   UNL     1      44.567   8.509  11.338  0.00  0.00    +0.000 C 
ATOM      8  O   UNL     1      44.002   7.196  11.340  0.00  0.00    +0.000 OA
ENDBRANCH   1   8
BRANCH   3   9
ATOM      9  C   UNL     1      48.107   6.296  13.843  0.00  0.00    +0.000 C 
BRANCH   9  10
ATOM     10  N   UNL     1      47.911   6.549  15.252  0.00  0.00    +0.000 N 
ATOM     11  C   UNL     1      48.966   6.514  16.136  0.00  0.00    +0.000 C 
ATOM     12  O   UNL     1      50.116   6.323  15.759  0.00  0.00    +0.000 OA
ATOM     13  H   UNL     1      46.962   6.498  15.603  0.00  0.00    +0.000 HD
BRANCH  11  14
ATOM     14  C   UNL     1      48.658   6.772  17.550  0.00  0.00    +0.000 A 
ATOM     15  C   UNL     1      48.371   8.070  17.964  0.00  0.00    +0.000 A 
ATOM     16  S   UNL     1      47.997   8.197  19.623  0.00  0.00    +0.000 S 
ATOM     17  C   UNL     1      48.246   6.532  19.862  0.00  0.00    +0.000 A 
ATOM     18  N   UNL     1      48.104   5.977  21.094  0.00  0.00    +0.000 NA
ATOM     19  C   UNL     1      48.349   4.706  21.138  0.00  0.00    +0.000 A 
ATOM     20  N   UNL     1      48.722   3.946  20.063  0.00  0.00    +0.000 N 
ATOM     21  C   UNL     1      48.855   4.462  18.794  0.00  0.00    +0.000 A 
ATOM     22  O   UNL     1      49.157   3.741  17.847  0.00  0.00    +0.000 OA
ATOM     23  C   UNL     1      48.593   5.887  18.685  0.00  0.00    +0.000 A 
ATOM     24  H   UNL     1      48.897   2.957  20.166  0.00  0.00    +0.000 HD
ENDBRANCH  11  14
ENDBRANCH   9  10
ENDBRANCH   3   9
BRANCH   6  25
ATOM     25  C   UNL     1      43.409   4.219  11.030  0.00  0.00    +0.000 C 
BRANCH  25  26
ATOM     26  N   UNL     1      43.845   3.330   9.952  0.00  0.00    +0.000 NA
ATOM     27  H   UNL     1      43.020   2.931   9.505  0.00  0.00    +0.000 HD
BRANCH  26  28
ATOM     28  C   UNL     1      44.607   4.015   8.914  0.00  0.00    +0.000 C 
BRANCH  28  29
ATOM     29  C   UNL     1      45.515   3.024   8.228  0.00  0.00    +0.000 A 
ATOM     30  C   UNL     1      45.553   1.688   8.628  0.00  0.00    +0.000 A 
ATOM     31  C   UNL     1      46.433   0.836   7.983  0.00  0.00    +0.000 A 
ATOM     32  N   UNL     1      47.266   1.220   6.989  0.00  0.00    +0.000 NA
ATOM     33  C   UNL     1      47.236   2.514   6.630  0.00  0.00    +0.000 A 
ATOM     34  N   UNL     1      48.077   2.892   5.586  0.00  0.00    +0.000 N 
ATOM     35  C   UNL     1      46.385   3.440   7.216  0.00  0.00    +0.000 A 
ATOM     36  H   UNL     1      48.646   2.080   5.360  0.00  0.00    +0.000 HD
ATOM     37  H   UNL     1      48.640   3.696   5.835  0.00  0.00    +0.000 HD
ENDBRANCH  28  29
ENDBRANCH  26  28
ENDBRANCH  25  26
ENDBRANCH   6  25
TORSDOF 8
ENDMDL
MODEL 3
REMARK VINA RESULT:    -8.527      1.696      3.216
REMARK INTER + INTRA:         -13.686
REMARK INTER:                 -12.395
REMARK INTRA:                  -1.292
REMARK UNBOUND:                -1.171
REMARK  Name = 
REMARK  9 active torsions:
REMARK  status: ('A' for Active; 'I' for Inactive)
REMARK    1  A    between atoms: C_1  and  O_2
REMARK    2  A    between atoms: O_2  and  C_3
REMARK    3  A    between atoms: C_5  and  C_6
REMARK    4  A    between atoms: C_6  and  N_7
REMARK    5  A    between atoms: C_8  and  C_10
REMARK    6  A    between atoms: C_22  and  C_23
REMARK    7  A    between atoms: C_23  and  N_24
REMARK    8  A    between atoms: N_24  and  C_25
REMARK    9  A    between atoms: C_25  and  C_26
REMARK                            x       y       z     vdW  Elec       q    Type
REMARK                         _______ _______ _______ _____ _____    ______ ____
ROOT
ATOM      1  C   UNL     1      45.988   4.964  12.496  0.00  0.00    +0.000 A 
ATOM      2  C   UNL     1      46.927   5.762  13.178  0.00  0.00    +0.000 A 
ATOM      3  C   UNL     1      47.061   7.135  12.906  0.00  0.00    +0.000 A 
ATOM      4  C   UNL     1      46.226   7.703  11.941  0.00  0.00    +0.000 A 
ATOM      5  C   UNL     1      45.267   6.925  11.287  0.00  0.00    +0.000 A 
ATOM      6  C   UNL     1      45.105   5.556  11.577  0.00  0.00    +0.000 A 
ENDROOT
BRANCH   1   8
ATOM      7  C   UNL     1      46.888   3.280  13.902  0.00  0.00    +0.000 C 
ATOM      8  O   UNL     1      45.943   3.651  12.896  0.00  0.00    +0.000 OA
ENDBRANCH   1   8
BRANCH   3   9
ATOM      9  C   UNL     1      48.049   8.000  13.653  0.00  0.00    +0.000 C 
BRANCH   9  10
ATOM     10  N   UNL     1      47.959   7.801  15.081  0.00  0.00    +0.000 N 
ATOM     11  C   UNL     1      48.952   7.145  15.774  0.00  0.00    +0.000 C 
ATOM     12  O   UNL     1      49.973   6.753  15.219  0.00  0.00    +0.000 OA
ATOM     13  H   UNL     1      47.050   7.926  15.509  0.00  0.00    +0.000 HD
BRANCH  11  14
ATOM     14  C   UNL     1      48.759   6.984  17.222  0.00  0.00    +0.000 A 
ATOM     15  C   UNL     1      48.523   8.106  18.012  0.00  0.00    +0.000 A 
ATOM     16  S   UNL     1      48.281   7.748  19.661  0.00  0.00    +0.000 S 
ATOM     17  C   UNL     1      48.525   6.086  19.393  0.00  0.00    +0.000 A 
ATOM     18  N   UNL     1      48.472   5.200  20.421  0.00  0.00    +0.000 NA
ATOM     19  C   UNL     1      48.703   3.973  20.080  0.00  0.00    +0.000 A 
ATOM     20  N   UNL     1      48.980   3.556  18.806  0.00  0.00    +0.000 N 
ATOM     21  C   UNL     1      49.021   4.416  17.732  0.00  0.00    +0.000 A 
ATOM     22  O   UNL     1      49.239   4.000  16.598  0.00  0.00    +0.000 OA
ATOM     23  C   UNL     1      48.771   5.810  18.057  0.00  0.00    +0.000 A 
ATOM     24  H   UNL     1      49.150   2.581  18.608  0.00  0.00    +0.000 HD
ENDBRANCH  11  14
ENDBRANCH   9  10
ENDBRANCH   3   9
BRANCH   6  25
ATOM     25  C   UNL     1      43.949   4.839  10.915  0.00  0.00    +0.000 C 
BRANCH  25  26
ATOM     26  N   UNL     1      44.328   3.687  10.096  0.00  0.00    +0.000 NA
ATOM     27  H   UNL     1      43.533   3.051  10.039  0.00  0.00    +0.000 HD
BRANCH  26  28
ATOM     28  C   UNL     1      44.690   4.046   8.729  0.00  0.00    +0.000 C 
BRANCH  28  29
ATOM     29  C   UNL     1      45.626   3.004   8.173  0.00  0.00    +0.000 A 
ATOM     30  C   UNL     1      45.502   1.660   8.530  0.00  0.00    +0.000 A 
ATOM     31  C   UNL     1      46.415   0.758   8.013  0.00  0.00    +0.000 A 
ATOM     32  N   UNL     1      47.428   1.097   7.185  0.00  0.00    +0.000 NA
ATOM     33  C   UNL     1      47.551   2.396   6.867  0.00  0.00    +0.000 A 
ATOM     34  N   UNL     1      48.580   2.730   5.989  0.00  0.00    +0.000 N 
ATOM     35  C   UNL     1      46.682   3.372   7.332  0.00  0.00    +0.000 A 
ATOM     36  H   UNL     1      49.119   1.882   5.835  0.00  0.00    +0.000 HD
ATOM     37  H   UNL     1      49.148   3.484   6.354  0.00  0.00    +0.000 HD
ENDBRANCH  28  29
ENDBRANCH  26  28
ENDBRANCH  25  26
ENDBRANCH   6  25
TORSDOF 8
ENDMDL
MODEL 4
REMARK VINA RESULT:    -7.945      1.732      2.636
REMARK INTER + INTRA:         -12.832
REMARK INTER:                 -11.458
REMARK INTRA:                  -1.374
REMARK UNBOUND:                -1.171
REMARK  Name = 
REMARK  9 active torsions:
REMARK  status: ('A' for Active; 'I' for Inactive)
REMARK    1  A    between atoms: C_1  and  O_2
REMARK    2  A    between atoms: O_2  and  C_3
REMARK    3  A    between atoms: C_5  and  C_6
REMARK    4  A    between atoms: C_6  and  N_7
REMARK    5  A    between atoms: C_8  and  C_10
REMARK    6  A    between atoms: C_22  and  C_23
REMARK    7  A    between atoms: C_23  and  N_24
REMARK    8  A    between atoms: N_24  and  C_25
REMARK    9  A    between atoms: C_25  and  C_26
REMARK                            x       y       z     vdW  Elec       q    Type
REMARK                         _______ _______ _______ _____ _____    ______ ____
ROOT
ATOM      1  C   UNL     1      45.889   5.154  12.426  0.00  0.00    +0.000 A 
ATOM      2  C   UNL     1      46.749   5.899  13.255  0.00  0.00    +0.000 A 
ATOM      3  C   UNL     1      46.978   7.269  13.035  0.00  0.00    +0.000 A 
ATOM      4  C   UNL     1      46.319   7.888  11.970  0.00  0.00    +0.000 A 
ATOM      5  C   UNL     1      45.436   7.163  11.167  0.00  0.00    +0.000 A 
ATOM      6  C   UNL     1      45.176   5.798  11.400  0.00  0.00    +0.000 A 
ENDROOT
BRANCH   1   8
ATOM      7  C   UNL     1      46.746   3.306  13.639  0.00  0.00    +0.000 C 
ATOM      8  O   UNL     1      45.731   3.838  12.786  0.00  0.00    +0.000 OA
ENDBRANCH   1   8
BRANCH   3   9
ATOM      9  C   UNL     1      47.880   8.078  13.938  0.00  0.00    +0.000 C 
BRANCH   9  10
ATOM     10  N   UNL     1      47.903   7.550  15.282  0.00  0.00    +0.000 N 
ATOM     11  C   UNL     1      49.034   6.956  15.796  0.00  0.00    +0.000 C 
ATOM     12  O   UNL     1      50.079   6.900  15.157  0.00  0.00    +0.000 OA
ATOM     13  H   UNL     1      47.010   7.400  15.735  0.00  0.00    +0.000 HD
BRANCH  11  14
ATOM     14  C   UNL     1      48.949   6.440  17.169  0.00  0.00    +0.000 A 
ATOM     15  C   UNL     1      49.258   5.105  17.420  0.00  0.00    +0.000 A 
ATOM     16  S   UNL     1      49.150   4.671  19.066  0.00  0.00    +0.000 S 
ATOM     17  C   UNL     1      48.647   6.236  19.502  0.00  0.00    +0.000 A 
ATOM     18  N   UNL     1      48.360   6.540  20.794  0.00  0.00    +0.000 NA
ATOM     19  C   UNL     1      47.963   7.758  20.981  0.00  0.00    +0.000 A 
ATOM     20  N   UNL     1      47.828   8.694  19.992  0.00  0.00    +0.000 N 
ATOM     21  C   UNL     1      48.129   8.436  18.674  0.00  0.00    +0.000 A 
ATOM     22  O   UNL     1      48.029   9.312  17.819  0.00  0.00    +0.000 OA
ATOM     23  C   UNL     1      48.579   7.081  18.405  0.00  0.00    +0.000 A 
ATOM     24  H   UNL     1      47.514   9.630  20.206  0.00  0.00    +0.000 HD
ENDBRANCH  11  14
ENDBRANCH   9  10
ENDBRANCH   3   9
BRANCH   6  25
ATOM     25  C   UNL     1      44.101   5.144  10.561  0.00  0.00    +0.000 C 
BRANCH  25  26
ATOM     26  N   UNL     1      44.477   3.855   9.976  0.00  0.00    +0.000 NA
ATOM     27  H   UNL     1      43.768   3.165  10.224  0.00  0.00    +0.000 HD
BRANCH  26  28
ATOM     28  C   UNL     1      44.559   3.885   8.520  0.00  0.00    +0.000 C 
BRANCH  28  29
ATOM     29  C   UNL     1      45.555   2.852   8.057  0.00  0.00    +0.000 A 
ATOM     30  C   UNL     1      45.438   1.516   8.443  0.00  0.00    +0.000 A 
ATOM     31  C   UNL     1      46.404   0.623   8.013  0.00  0.00    +0.000 A 
ATOM     32  N   UNL     1      47.462   0.965   7.245  0.00  0.00    +0.000 NA
ATOM     33  C   UNL     1      47.576   2.258   6.899  0.00  0.00    +0.000 A 
ATOM     34  N   UNL     1      48.654   2.595   6.083  0.00  0.00    +0.000 N 
ATOM     35  C   UNL     1      46.655   3.224   7.278  0.00  0.00    +0.000 A 
ATOM     36  H   UNL     1      49.222   1.757   5.989  0.00  0.00    +0.000 HD
ATOM     37  H   UNL     1      49.179   3.372   6.463  0.00  0.00    +0.000 HD
ENDBRANCH  28  29
ENDBRANCH  26  28
ENDBRANCH  25  26
ENDBRANCH   6  25
TORSDOF 8
ENDMDL
MODEL 5
REMARK VINA RESULT:    -7.382      3.843      8.831
REMARK INTER + INTRA:         -12.005
REMARK INTER:                 -10.607
REMARK INTRA:                  -1.398
REMARK UNBOUND:                -1.171
REMARK  Name = 
REMARK  9 active torsions:
REMARK  status: ('A' for Active; 'I' for Inactive)
REMARK    1  A    between atoms: C_1  and  O_2
REMARK    2  A    between atoms: O_2  and  C_3
REMARK    3  A    between atoms: C_5  and  C_6
REMARK    4  A    between atoms: C_6  and  N_7
REMARK    5  A    between atoms: C_8  and  C_10
REMARK    6  A    between atoms: C_22  and  C_23
REMARK    7  A    between atoms: C_23  and  N_24
REMARK    8  A    between atoms: N_24  and  C_25
REMARK    9  A    between atoms: C_25  and  C_26
REMARK                            x       y       z     vdW  Elec       q    Type
REMARK                         _______ _______ _______ _____ _____    ______ ____
ROOT
ATOM      1  C   UNL     1      50.824   7.835  14.960  0.00  0.00    +0.000 A 
ATOM      2  C   UNL     1      50.254   8.165  13.715  0.00  0.00    +0.000 A 
ATOM      3  C   UNL     1      48.986   7.691  13.337  0.00  0.00    +0.000 A 
ATOM      4  C   UNL     1      48.286   6.884  14.237  0.00  0.00    +0.000 A 
ATOM      5  C   UNL     1      48.829   6.583  15.488  0.00  0.00    +0.000 A 
ATOM      6  C   UNL     1      50.085   7.080  15.887  0.00  0.00    +0.000 A 
ENDROOT
BRANCH   1   8
ATOM      7  C   UNL     1      53.181   7.620  14.823  0.00  0.00    +0.000 C 
ATOM      8  O   UNL     1      52.049   8.403  15.207  0.00  0.00    +0.000 OA
ENDBRANCH   1   8
BRANCH   3   9
ATOM      9  C   UNL     1      48.360   8.064  12.013  0.00  0.00    +0.000 C 
BRANCH   9  10
ATOM     10  N   UNL     1      47.646   6.953  11.428  0.00  0.00    +0.000 N 
ATOM     11  C   UNL     1      46.269   6.925  11.402  0.00  0.00    +0.000 C 
ATOM     12  O   UNL     1      45.598   7.861  11.822  0.00  0.00    +0.000 OA
ATOM     13  H   UNL     1      48.166   6.098  11.274  0.00  0.00    +0.000 HD
BRANCH  11  14
ATOM     14  C   UNL     1      45.639   5.743  10.797  0.00  0.00    +0.000 A 
ATOM     15  C   UNL     1      45.767   5.524   9.427  0.00  0.00    +0.000 A 
ATOM     16  S   UNL     1      45.013   4.093   8.887  0.00  0.00    +0.000 S 
ATOM     17  C   UNL     1      44.450   3.733  10.450  0.00  0.00    +0.000 A 
ATOM     18  N   UNL     1      43.701   2.624  10.683  0.00  0.00    +0.000 NA
ATOM     19  C   UNL     1      43.317   2.486  11.911  0.00  0.00    +0.000 A 
ATOM     20  N   UNL     1      43.617   3.358  12.924  0.00  0.00    +0.000 N 
ATOM     21  C   UNL     1      44.390   4.480  12.738  0.00  0.00    +0.000 A 
ATOM     22  O   UNL     1      44.667   5.220  13.679  0.00  0.00    +0.000 OA
ATOM     23  C   UNL     1      44.849   4.687  11.375  0.00  0.00    +0.000 A 
ATOM     24  H   UNL     1      43.286   3.191  13.863  0.00  0.00    +0.000 HD
ENDBRANCH  11  14
ENDBRANCH   9  10
ENDBRANCH   3   9
BRANCH   6  25
ATOM     25  C   UNL     1      50.518   6.810  17.311  0.00  0.00    +0.000 C 
BRANCH  25  26
ATOM     26  N   UNL     1      49.444   6.379  18.209  0.00  0.00    +0.000 NA
ATOM     27  H   UNL     1      48.607   6.203  17.655  0.00  0.00    +0.000 HD
BRANCH  26  28
ATOM     28  C   UNL     1      49.753   5.148  18.927  0.00  0.00    +0.000 C 
BRANCH  28  29
ATOM     29  C   UNL     1      49.623   3.977  17.985  0.00  0.00    +0.000 A 
ATOM     30  C   UNL     1      48.460   3.780  17.240  0.00  0.00    +0.000 A 
ATOM     31  C   UNL     1      48.388   2.667  16.420  0.00  0.00    +0.000 A 
ATOM     32  N   UNL     1      49.375   1.752  16.299  0.00  0.00    +0.000 NA
ATOM     33  C   UNL     1      50.480   1.941  17.039  0.00  0.00    +0.000 A 
ATOM     34  N   UNL     1      51.503   1.007  16.884  0.00  0.00    +0.000 N 
ATOM     35  C   UNL     1      50.645   3.027  17.885  0.00  0.00    +0.000 A 
ATOM     36  H   UNL     1      51.143   0.277  16.276  0.00  0.00    +0.000 HD
ATOM     37  H   UNL     1      51.812   0.644  17.777  0.00  0.00    +0.000 HD
ENDBRANCH  28  29
ENDBRANCH  26  28
ENDBRANCH  25  26
ENDBRANCH   6  25
TORSDOF 8
ENDMDL
MODEL 6
REMARK VINA RESULT:    -7.353      3.843      5.693
REMARK INTER + INTRA:         -11.962
REMARK INTER:                 -10.467
REMARK INTRA:                  -1.495
REMARK UNBOUND:                -1.171
REMARK  Name = 
REMARK  9 active torsions:
REMARK  status: ('A' for Active; 'I' for Inactive)
REMARK    1  A    between atoms: C_1  and  O_2
REMARK    2  A    between atoms: O_2  and  C_3
REMARK    3  A    between atoms: C_5  and  C_6
REMARK    4  A    between atoms: C_6  and  N_7
REMARK    5  A    between atoms: C_8  and  C_10
REMARK    6  A    between atoms: C_22  and  C_23
REMARK    7  A    between atoms: C_23  and  N_24
REMARK    8  A    between atoms: N_24  and  C_25
REMARK    9  A    between atoms: C_25  and  C_26
REMARK                            x       y       z     vdW  Elec       q    Type
REMARK                         _______ _______ _______ _____ _____    ______ ____
ROOT
ATOM      1  C   UNL     1      48.279   6.375  15.099  0.00  0.00    +0.000 A 
ATOM      2  C   UNL     1      48.408   5.528  16.216  0.00  0.00    +0.000 A 
ATOM      3  C   UNL     1      47.748   4.289  16.279  0.00  0.00    +0.000 A 
ATOM      4  C   UNL     1      46.960   3.902  15.193  0.00  0.00    +0.000 A 
ATOM      5  C   UNL     1      46.858   4.720  14.065  0.00  0.00    +0.000 A 
ATOM      6  C   UNL     1      47.541   5.949  13.981  0.00  0.00    +0.000 A 
ENDROOT
BRANCH   1   8
ATOM      7  C   UNL     1      48.748   8.373  16.286  0.00  0.00    +0.000 C 
ATOM      8  O   UNL     1      49.014   7.534  15.160  0.00  0.00    +0.000 OA
ENDBRANCH   1   8
BRANCH   3   9
ATOM      9  C   UNL     1      47.903   3.365  17.466  0.00  0.00    +0.000 C 
BRANCH   9  10
ATOM     10  N   UNL     1      49.293   3.146  17.793  0.00  0.00    +0.000 N 
ATOM     11  C   UNL     1      50.076   2.295  17.045  0.00  0.00    +0.000 C 
ATOM     12  O   UNL     1      49.643   1.733  16.045  0.00  0.00    +0.000 OA
ATOM     13  H   UNL     1      49.601   3.427  18.716  0.00  0.00    +0.000 HD
BRANCH  11  14
ATOM     14  C   UNL     1      51.474   2.130  17.469  0.00  0.00    +0.000 A 
ATOM     15  C   UNL     1      51.980   0.850  17.679  0.00  0.00    +0.000 A 
ATOM     16  S   UNL     1      53.625   0.826  18.128  0.00  0.00    +0.000 S 
ATOM     17  C   UNL     1      53.714   2.524  18.102  0.00  0.00    +0.000 A 
ATOM     18  N   UNL     1      54.869   3.166  18.417  0.00  0.00    +0.000 NA
ATOM     19  C   UNL     1      54.788   4.458  18.383  0.00  0.00    +0.000 A 
ATOM     20  N   UNL     1      53.658   5.160  18.063  0.00  0.00    +0.000 N 
ATOM     21  C   UNL     1      52.474   4.551  17.715  0.00  0.00    +0.000 A 
ATOM     22  O   UNL     1      51.490   5.215  17.399  0.00  0.00    +0.000 OA
ATOM     23  C   UNL     1      52.505   3.099  17.738  0.00  0.00    +0.000 A 
ATOM     24  H   UNL     1      53.663   6.170  18.054  0.00  0.00    +0.000 HD
ENDBRANCH  11  14
ENDBRANCH   9  10
ENDBRANCH   3   9
BRANCH   6  25
ATOM     25  C   UNL     1      47.474   6.691  12.664  0.00  0.00    +0.000 C 
BRANCH  25  26
ATOM     26  N   UNL     1      46.126   6.850  12.116  0.00  0.00    +0.000 NA
ATOM     27  H   UNL     1      45.925   7.846  12.029  0.00  0.00    +0.000 HD
BRANCH  26  28
ATOM     28  C   UNL     1      45.970   6.262  10.790  0.00  0.00    +0.000 C 
BRANCH  28  29
ATOM     29  C   UNL     1      45.035   5.082  10.877  0.00  0.00    +0.000 A 
ATOM     30  C   UNL     1      43.997   5.054  11.810  0.00  0.00    +0.000 A 
ATOM     31  C   UNL     1      43.195   3.927  11.863  0.00  0.00    +0.000 A 
ATOM     32  N   UNL     1      43.357   2.845  11.070  0.00  0.00    +0.000 NA
ATOM     33  C   UNL     1      44.374   2.875  10.194  0.00  0.00    +0.000 A 
ATOM     34  N   UNL     1      44.515   1.766   9.361  0.00  0.00    +0.000 N 
ATOM     35  C   UNL     1      45.227   3.961  10.064  0.00  0.00    +0.000 A 
ATOM     36  H   UNL     1      43.834   1.078   9.673  0.00  0.00    +0.000 HD
ATOM     37  H   UNL     1      45.460   1.405   9.381  0.00  0.00    +0.000 HD
ENDBRANCH  28  29
ENDBRANCH  26  28
ENDBRANCH  25  26
ENDBRANCH   6  25
TORSDOF 8
ENDMDL
MODEL 7
REMARK VINA RESULT:    -7.303      4.436      5.189
REMARK INTER + INTRA:         -11.889
REMARK INTER:                 -10.842
REMARK INTRA:                  -1.046
REMARK UNBOUND:                -1.171
REMARK  Name = 
REMARK  9 active torsions:
REMARK  status: ('A' for Active; 'I' for Inactive)
REMARK    1  A    between atoms: C_1  and  O_2
REMARK    2  A    between atoms: O_2  and  C_3
REMARK    3  A    between atoms: C_5  and  C_6
REMARK    4  A    between atoms: C_6  and  N_7
REMARK    5  A    between atoms: C_8  and  C_10
REMARK    6  A    between atoms: C_22  and  C_23
REMARK    7  A    between atoms: C_23  and  N_24
REMARK    8  A    between atoms: N_24  and  C_25
REMARK    9  A    between atoms: C_25  and  C_26
REMARK                            x       y       z     vdW  Elec       q    Type
REMARK                         _______ _______ _______ _____ _____    ______ ____
ROOT
ATOM      1  C   UNL     1      46.366   5.342  12.818  0.00  0.00    +0.000 A 
ATOM      2  C   UNL     1      47.303   5.854  13.737  0.00  0.00    +0.000 A 
ATOM      3  C   UNL     1      48.178   6.897  13.389  0.00  0.00    +0.000 A 
ATOM      4  C   UNL     1      48.094   7.432  12.101  0.00  0.00    +0.000 A 
ATOM      5  C   UNL     1      47.142   6.953  11.197  0.00  0.00    +0.000 A 
ATOM      6  C   UNL     1      46.239   5.930  11.548  0.00  0.00    +0.000 A 
ENDROOT
BRANCH   1   8
ATOM      7  C   UNL     1      45.814   3.036  12.826  0.00  0.00    +0.000 C 
ATOM      8  O   UNL     1      45.550   4.353  13.312  0.00  0.00    +0.000 OA
ENDBRANCH   1   8
BRANCH   3   9
ATOM      9  C   UNL     1      49.168   7.467  14.379  0.00  0.00    +0.000 C 
BRANCH   9  10
ATOM     10  N   UNL     1      50.506   7.501  13.837  0.00  0.00    +0.000 N 
ATOM     11  C   UNL     1      51.451   8.377  14.323  0.00  0.00    +0.000 C 
ATOM     12  O   UNL     1      51.212   9.122  15.267  0.00  0.00    +0.000 OA
ATOM     13  H   UNL     1      50.653   7.055  12.939  0.00  0.00    +0.000 HD
BRANCH  11  14
ATOM     14  C   UNL     1      52.779   8.341  13.695  0.00  0.00    +0.000 A 
ATOM     15  C   UNL     1      53.912   8.210  14.494  0.00  0.00    +0.000 A 
ATOM     16  S   UNL     1      55.371   8.144  13.613  0.00  0.00    +0.000 S 
ATOM     17  C   UNL     1      54.551   8.332  12.135  0.00  0.00    +0.000 A 
ATOM     18  N   UNL     1      55.233   8.378  10.961  0.00  0.00    +0.000 NA
ATOM     19  C   UNL     1      54.488   8.551   9.917  0.00  0.00    +0.000 A 
ATOM     20  N   UNL     1      53.126   8.681   9.944  0.00  0.00    +0.000 N 
ATOM     21  C   UNL     1      52.393   8.617  11.107  0.00  0.00    +0.000 A 
ATOM     22  O   UNL     1      51.168   8.703  11.088  0.00  0.00    +0.000 OA
ATOM     23  C   UNL     1      53.179   8.426  12.314  0.00  0.00    +0.000 A 
ATOM     24  H   UNL     1      52.603   8.813   9.090  0.00  0.00    +0.000 HD
ENDBRANCH  11  14
ENDBRANCH   9  10
ENDBRANCH   3   9
BRANCH   6  25
ATOM     25  C   UNL     1      45.160   5.583  10.546  0.00  0.00    +0.000 C 
BRANCH  25  26
ATOM     26  N   UNL     1      45.651   5.216   9.217  0.00  0.00    +0.000 NA
ATOM     27  H   UNL     1      46.581   4.810   9.313  0.00  0.00    +0.000 HD
BRANCH  26  28
ATOM     28  C   UNL     1      44.816   4.224   8.548  0.00  0.00    +0.000 C 
BRANCH  28  29
ATOM     29  C   UNL     1      45.689   3.112   8.024  0.00  0.00    +0.000 A 
ATOM     30  C   UNL     1      45.588   1.817   8.533  0.00  0.00    +0.000 A 
ATOM     31  C   UNL     1      46.442   0.848   8.035  0.00  0.00    +0.000 A 
ATOM     32  N   UNL     1      47.376   1.079   7.085  0.00  0.00    +0.000 NA
ATOM     33  C   UNL     1      47.479   2.334   6.620  0.00  0.00    +0.000 A 
ATOM     34  N   UNL     1      48.425   2.555   5.621  0.00  0.00    +0.000 N 
ATOM     35  C   UNL     1      46.665   3.370   7.055  0.00  0.00    +0.000 A 
ATOM     36  H   UNL     1      48.940   1.686   5.509  0.00  0.00    +0.000 HD
ATOM     37  H   UNL     1      49.030   3.334   5.848  0.00  0.00    +0.000 HD
ENDBRANCH  28  29
ENDBRANCH  26  28
ENDBRANCH  25  26
ENDBRANCH   6  25
TORSDOF 8
ENDMDL
MODEL 8
REMARK VINA RESULT:    -7.283      2.697      3.864
REMARK INTER + INTRA:         -11.861
REMARK INTER:                 -10.200
REMARK INTRA:                  -1.660
REMARK UNBOUND:                -1.171
REMARK  Name = 
REMARK  9 active torsions:
REMARK  status: ('A' for Active; 'I' for Inactive)
REMARK    1  A    between atoms: C_1  and  O_2
REMARK    2  A    between atoms: O_2  and  C_3
REMARK    3  A    between atoms: C_5  and  C_6
REMARK    4  A    between atoms: C_6  and  N_7
REMARK    5  A    between atoms: C_8  and  C_10
REMARK    6  A    between atoms: C_22  and  C_23
REMARK    7  A    between atoms: C_23  and  N_24
REMARK    8  A    between atoms: N_24  and  C_25
REMARK    9  A    between atoms: C_25  and  C_26
REMARK                            x       y       z     vdW  Elec       q    Type
REMARK                         _______ _______ _______ _____ _____    ______ ____
ROOT
ATOM      1  C   UNL     1      44.644   6.049  12.027  0.00  0.00    +0.000 A 
ATOM      2  C   UNL     1      45.756   6.914  12.026  0.00  0.00    +0.000 A 
ATOM      3  C   UNL     1      46.966   6.555  12.644  0.00  0.00    +0.000 A 
ATOM      4  C   UNL     1      47.051   5.303  13.258  0.00  0.00    +0.000 A 
ATOM      5  C   UNL     1      45.964   4.425  13.230  0.00  0.00    +0.000 A 
ATOM      6  C   UNL     1      44.758   4.764  12.586  0.00  0.00    +0.000 A 
ENDROOT
BRANCH   1   8
ATOM      7  C   UNL     1      43.546   7.916  11.063  0.00  0.00    +0.000 C 
ATOM      8  O   UNL     1      43.544   6.517  11.350  0.00  0.00    +0.000 OA
ENDBRANCH   1   8
BRANCH   3   9
ATOM      9  C   UNL     1      48.169   7.469  12.624  0.00  0.00    +0.000 C 
BRANCH   9  10
ATOM     10  N   UNL     1      49.202   7.012  13.525  0.00  0.00    +0.000 N 
ATOM     11  C   UNL     1      49.323   7.533  14.794  0.00  0.00    +0.000 C 
ATOM     12  O   UNL     1      48.531   8.361  15.228  0.00  0.00    +0.000 OA
ATOM     13  H   UNL     1      49.975   6.498  13.120  0.00  0.00    +0.000 HD
BRANCH  11  14
ATOM     14  C   UNL     1      50.415   7.010  15.627  0.00  0.00    +0.000 A 
ATOM     15  C   UNL     1      51.697   7.536  15.487  0.00  0.00    +0.000 A 
ATOM     16  S   UNL     1      52.841   6.853  16.551  0.00  0.00    +0.000 S 
ATOM     17  C   UNL     1      51.682   5.798  17.210  0.00  0.00    +0.000 A 
ATOM     18  N   UNL     1      52.020   4.910  18.179  0.00  0.00    +0.000 NA
ATOM     19  C   UNL     1      51.047   4.151  18.571  0.00  0.00    +0.000 A 
ATOM     20  N   UNL     1      49.770   4.203  18.079  0.00  0.00    +0.000 N 
ATOM     21  C   UNL     1      49.379   5.102  17.113  0.00  0.00    +0.000 A 
ATOM     22  O   UNL     1      48.216   5.142  16.721  0.00  0.00    +0.000 OA
ATOM     23  C   UNL     1      50.433   5.980  16.634  0.00  0.00    +0.000 A 
ATOM     24  H   UNL     1      49.056   3.581  18.430  0.00  0.00    +0.000 HD
ENDBRANCH  11  14
ENDBRANCH   9  10
ENDBRANCH   3   9
BRANCH   6  25
ATOM     25  C   UNL     1      43.696   3.691  12.494  0.00  0.00    +0.000 C 
BRANCH  25  26
ATOM     26  N   UNL     1      43.217   3.414  11.138  0.00  0.00    +0.000 NA
ATOM     27  H   UNL     1      43.431   4.216  10.546  0.00  0.00    +0.000 HD
BRANCH  26  28
ATOM     28  C   UNL     1      43.851   2.249  10.531  0.00  0.00    +0.000 C 
BRANCH  28  29
ATOM     29  C   UNL     1      44.800   2.706   9.451  0.00  0.00    +0.000 A 
ATOM     30  C   UNL     1      44.849   4.044   9.056  0.00  0.00    +0.000 A 
ATOM     31  C   UNL     1      45.716   4.393   8.035  0.00  0.00    +0.000 A 
ATOM     32  N   UNL     1      46.516   3.517   7.388  0.00  0.00    +0.000 NA
ATOM     33  C   UNL     1      46.441   2.229   7.761  0.00  0.00    +0.000 A 
ATOM     34  N   UNL     1      47.292   1.339   7.108  0.00  0.00    +0.000 N 
ATOM     35  C   UNL     1      45.607   1.785   8.777  0.00  0.00    +0.000 A 
ATOM     36  H   UNL     1      47.755   1.864   6.371  0.00  0.00    +0.000 HD
ATOM     37  H   UNL     1      46.786   0.539   6.749  0.00  0.00    +0.000 HD
ENDBRANCH  28  29
ENDBRANCH  26  28
ENDBRANCH  25  26
ENDBRANCH   6  25
TORSDOF 8
ENDMDL
MODEL 9
REMARK VINA RESULT:    -7.222      3.574      9.077
REMARK INTER + INTRA:         -11.770
REMARK INTER:                 -10.395
REMARK INTRA:                  -1.375
REMARK UNBOUND:                -1.171
REMARK  Name = 
REMARK  9 active torsions:
REMARK  status: ('A' for Active; 'I' for Inactive)
REMARK    1  A    between atoms: C_1  and  O_2
REMARK    2  A    between atoms: O_2  and  C_3
REMARK    3  A    between atoms: C_5  and  C_6
REMARK    4  A    between atoms: C_6  and  N_7
REMARK    5  A    between atoms: C_8  and  C_10
REMARK    6  A    between atoms: C_22  and  C_23
REMARK    7  A    between atoms: C_23  and  N_24
REMARK    8  A    between atoms: N_24  and  C_25
REMARK    9  A    between atoms: C_25  and  C_26
REMARK                            x       y       z     vdW  Elec       q    Type
REMARK                         _______ _______ _______ _____ _____    ______ ____
ROOT
ATOM      1  C   UNL     1      50.702   8.073  14.449  0.00  0.00    +0.000 A 
ATOM      2  C   UNL     1      49.906   8.190  13.293  0.00  0.00    +0.000 A 
ATOM      3  C   UNL     1      48.655   7.557  13.195  0.00  0.00    +0.000 A 
ATOM      4  C   UNL     1      48.203   6.810  14.285  0.00  0.00    +0.000 A 
ATOM      5  C   UNL     1      48.970   6.720  15.449  0.00  0.00    +0.000 A 
ATOM      6  C   UNL     1      50.211   7.377  15.568  0.00  0.00    +0.000 A 
ENDROOT
BRANCH   1   8
ATOM      7  C   UNL     1      52.461   8.951  13.123  0.00  0.00    +0.000 C 
ATOM      8  O   UNL     1      51.880   8.779  14.418  0.00  0.00    +0.000 OA
ENDBRANCH   1   8
BRANCH   3   9
ATOM      9  C   UNL     1      47.787   7.701  11.966  0.00  0.00    +0.000 C 
BRANCH   9  10
ATOM     10  N   UNL     1      47.049   6.490  11.689  0.00  0.00    +0.000 N 
ATOM     11  C   UNL     1      45.675   6.457  11.774  0.00  0.00    +0.000 C 
ATOM     12  O   UNL     1      45.022   7.462  12.033  0.00  0.00    +0.000 OA
ATOM     13  H   UNL     1      47.571   5.622  11.683  0.00  0.00    +0.000 HD
BRANCH  11  14
ATOM     14  C   UNL     1      45.021   5.173  11.485  0.00  0.00    +0.000 A 
ATOM     15  C   UNL     1      44.289   4.537  12.485  0.00  0.00    +0.000 A 
ATOM     16  S   UNL     1      43.560   3.080  11.982  0.00  0.00    +0.000 S 
ATOM     17  C   UNL     1      44.227   3.219  10.424  0.00  0.00    +0.000 A 
ATOM     18  N   UNL     1      44.001   2.267   9.482  0.00  0.00    +0.000 NA
ATOM     19  C   UNL     1      44.590   2.485   8.350  0.00  0.00    +0.000 A 
ATOM     20  N   UNL     1      45.382   3.569   8.080  0.00  0.00    +0.000 N 
ATOM     21  C   UNL     1      45.619   4.568   8.996  0.00  0.00    +0.000 A 
ATOM     22  O   UNL     1      46.307   5.543   8.704  0.00  0.00    +0.000 OA
ATOM     23  C   UNL     1      44.983   4.374  10.287  0.00  0.00    +0.000 A 
ATOM     24  H   UNL     1      45.812   3.680   7.173  0.00  0.00    +0.000 HD
ENDBRANCH  11  14
ENDBRANCH   9  10
ENDBRANCH   3   9
BRANCH   6  25
ATOM     25  C   UNL     1      50.894   7.330  16.916  0.00  0.00    +0.000 C 
BRANCH  25  26
ATOM     26  N   UNL     1      50.168   6.588  17.948  0.00  0.00    +0.000 NA
ATOM     27  H   UNL     1      49.323   6.197  17.535  0.00  0.00    +0.000 HD
BRANCH  26  28
ATOM     28  C   UNL     1      50.931   5.474  18.501  0.00  0.00    +0.000 C 
BRANCH  28  29
ATOM     29  C   UNL     1      50.481   4.191  17.849  0.00  0.00    +0.000 A 
ATOM     30  C   UNL     1      49.169   4.033  17.402  0.00  0.00    +0.000 A 
ATOM     31  C   UNL     1      48.809   2.818  16.844  0.00  0.00    +0.000 A 
ATOM     32  N   UNL     1      49.649   1.769  16.710  0.00  0.00    +0.000 NA
ATOM     33  C   UNL     1      50.903   1.925  17.166  0.00  0.00    +0.000 A 
ATOM     34  N   UNL     1      51.769   0.847  16.996  0.00  0.00    +0.000 N 
ATOM     35  C   UNL     1      51.357   3.106  17.735  0.00  0.00    +0.000 A 
ATOM     36  H   UNL     1      51.213   0.081  16.625  0.00  0.00    +0.000 HD
ATOM     37  H   UNL     1      52.230   0.601  17.864  0.00  0.00    +0.000 HD
ENDBRANCH  28  29
ENDBRANCH  26  28
ENDBRANCH  25  26
ENDBRANCH   6  25
TORSDOF 8
ENDMDL
