MODEL 1
REMARK VINA RESULT:    -9.149      0.000      0.000
REMARK INTER + INTRA:         -14.150
REMARK INTER:                 -13.160
REMARK INTRA:                  -0.990
REMARK UNBOUND:                -0.990
REMARK  Name = 
REMARK  8 active torsions:
REMARK  status: ('A' for Active; 'I' for Inactive)
REMARK    1  A    between atoms: N_1  and  C_2
REMARK    2  A    between atoms: C_2  and  C_3
REMARK    3  A    between atoms: C_2  and  C_17
REMARK    4  A    between atoms: C_3  and  N_4
REMARK    5  A    between atoms: C_5  and  C_7
REMARK    6  A    between atoms: C_20  and  C_21
REMARK    7  A    between atoms: C_21  and  N_22
REMARK    8  A    between atoms: C_23  and  C_25
REMARK                            x       y       z     vdW  Elec       q    Type
REMARK                         _______ _______ _______ _____ _____    ______ ____
ROOT
ATOM      1  C   UNL     1      47.391   5.920  14.565  0.00  0.00    +0.000 C 
ENDROOT
BRANCH   1   2
ATOM      2  C   UNL     1      46.308   5.514  13.571  0.00  0.00    +0.000 A 
ATOM      3  C   UNL     1      45.688   6.511  12.819  0.00  0.00    +0.000 A 
ATOM      4  C   UNL     1      44.868   6.203  11.742  0.00  0.00    +0.000 A 
ATOM      5  C   UNL     1      44.615   4.879  11.385  0.00  0.00    +0.000 A 
ATOM      6  C   UNL     1      45.144   3.867  12.198  0.00  0.00    +0.000 A 
ATOM      7  C   UNL     1      45.974   4.183  13.283  0.00  0.00    +0.000 A 
BRANCH   5   8
ATOM      8  C   UNL     1      43.750   4.553  10.188  0.00  0.00    +0.000 C 
BRANCH   8   9
ATOM      9  N   UNL     1      44.330   3.603   9.252  0.00  0.00    +0.000 N 
ATOM     10  C   UNL     1      45.367   3.980   8.427  0.00  0.00    +0.000 C 
ATOM     11  O   UNL     1      45.827   5.121   8.438  0.00  0.00    +0.000 OA
ATOM     12  H   UNL     1      44.104   2.624   9.333  0.00  0.00    +0.000 HD
BRANCH  10  13
ATOM     13  C   UNL     1      45.850   2.894   7.452  0.00  0.00    +0.000 C 
ATOM     14  C   UNL     1      46.286   1.606   8.164  0.00  0.00    +0.000 C 
ATOM     15  C   UNL     1      46.983   0.643   7.207  0.00  0.00    +0.000 C 
ATOM     16  O   UNL     1      48.067   1.278   6.538  0.00  0.00    +0.000 OA
ATOM     17  C   UNL     1      47.633   2.372   5.734  0.00  0.00    +0.000 C 
ATOM     18  C   UNL     1      47.002   3.447   6.600  0.00  0.00    +0.000 C 
ENDBRANCH  10  13
ENDBRANCH   8   9
ENDBRANCH   5   8
ENDBRANCH   1   2
BRANCH   1  19
ATOM     19  N   UNL     1      48.689   6.036  13.889  0.00  0.00    +0.000 NA
ATOM     20  H   UNL     1      49.236   5.200  14.086  0.00  0.00    +0.000 HD
ATOM     21  H   UNL     1      49.193   6.809  14.319  0.00  0.00    +0.000 HD
ENDBRANCH   1  19
BRANCH   1  22
ATOM     22  C   UNL     1      47.466   4.983  15.830  0.00  0.00    +0.000 C 
BRANCH  22  23
ATOM     23  N   UNL     1      48.800   4.684  16.333  0.00  0.00    +0.000 N 
ATOM     24  C   UNL     1      49.117   4.556  17.654  0.00  0.00    +0.000 C 
ATOM     25  O   UNL     1      48.255   4.665  18.556  0.00  0.00    +0.000 OA
ATOM     26  H   UNL     1      49.553   4.695  15.665  0.00  0.00    +0.000 HD
BRANCH  24  27
ATOM     27  C   UNL     1      50.513   4.245  17.973  0.00  0.00    +0.000 A 
ATOM     28  C   UNL     1      51.370   5.178  18.539  0.00  0.00    +0.000 A 
ATOM     29  S   UNL     1      52.919   4.547  18.902  0.00  0.00    +0.000 S 
ATOM     30  C   UNL     1      52.508   3.022  18.270  0.00  0.00    +0.000 A 
ATOM     31  N   UNL     1      53.391   1.989  18.258  0.00  0.00    +0.000 NA
ATOM     32  C   UNL     1      52.938   0.903  17.722  0.00  0.00    +0.000 A 
ATOM     33  N   UNL     1      51.686   0.760  17.186  0.00  0.00    +0.000 N 
ATOM     34  C   UNL     1      50.841   1.818  17.036  0.00  0.00    +0.000 A 
ATOM     35  O   UNL     1      49.864   1.735  16.287  0.00  0.00    +0.000 OA
ATOM     36  C   UNL     1      51.230   3.013  17.743  0.00  0.00    +0.000 A 
ATOM     37  H   UNL     1      51.435  -0.077  16.683  0.00  0.00    +0.000 HD
ENDBRANCH  24  27
ENDBRANCH  22  23
ENDBRANCH   1  22
TORSDOF 8
ENDMDL
MODEL 2
REMARK VINA RESULT:    -8.243      3.681      4.669
REMARK INTER + INTRA:         -12.846
REMARK INTER:                 -11.865
REMARK INTRA:                  -0.981
REMARK UNBOUND:                -0.990
REMARK  Name = 
REMARK  8 active torsions:
REMARK  status: ('A' for Active; 'I' for Inactive)
REMARK    1  A    between atoms: N_1  and  C_2
REMARK    2  A    between atoms: C_2  and  C_3
REMARK    3  A    between atoms: C_2  and  C_17
REMARK    4  A    between atoms: C_3  and  N_4
REMARK    5  A    between atoms: C_5  and  C_7
REMARK    6  A    between atoms: C_20  and  C_21
REMARK    7  A    between atoms: C_21  and  N_22
REMARK    8  A    between atoms: C_23  and  C_25
REMARK                            x       y       z     vdW  Elec       q    Type
REMARK                         _______ _______ _______ _____ _____    ______ ____
ROOT
ATOM      1  C   UNL     1      47.943   6.280  14.107  0.00  0.00    +0.000 C 
ENDROOT
BRANCH   1   2
ATOM      2  C   UNL     1      46.756   5.844  13.254  0.00  0.00    +0.000 A 
ATOM      3  C   UNL     1      46.217   6.758  12.350  0.00  0.00    +0.000 A 
ATOM      4  C   UNL     1      45.297   6.367  11.386  0.00  0.00    +0.000 A 
ATOM      5  C   UNL     1      44.861   5.045  11.300  0.00  0.00    +0.000 A 
ATOM      6  C   UNL     1      45.313   4.141  12.271  0.00  0.00    +0.000 A 
ATOM      7  C   UNL     1      46.243   4.539  13.241  0.00  0.00    +0.000 A 
BRANCH   5   8
ATOM      8  C   UNL     1      43.887   4.621  10.225  0.00  0.00    +0.000 C 
BRANCH   8   9
ATOM      9  N   UNL     1      44.409   3.655   9.269  0.00  0.00    +0.000 N 
ATOM     10  C   UNL     1      45.411   4.012   8.394  0.00  0.00    +0.000 C 
ATOM     11  O   UNL     1      45.887   5.147   8.375  0.00  0.00    +0.000 OA
ATOM     12  H   UNL     1      44.173   2.681   9.369  0.00  0.00    +0.000 HD
BRANCH  10  13
ATOM     13  C   UNL     1      45.833   2.913   7.406  0.00  0.00    +0.000 C 
ATOM     14  C   UNL     1      46.361   1.654   8.106  0.00  0.00    +0.000 C 
ATOM     15  C   UNL     1      46.995   0.682   7.115  0.00  0.00    +0.000 C 
ATOM     16  O   UNL     1      47.999   1.324   6.337  0.00  0.00    +0.000 OA
ATOM     17  C   UNL     1      47.470   2.388   5.549  0.00  0.00    +0.000 C 
ATOM     18  C   UNL     1      46.891   3.470   6.442  0.00  0.00    +0.000 C 
ENDBRANCH  10  13
ENDBRANCH   8   9
ENDBRANCH   5   8
ENDBRANCH   1   2
BRANCH   1  19
ATOM     19  N   UNL     1      47.939   5.569  15.392  0.00  0.00    +0.000 NA
ATOM     20  H   UNL     1      48.107   4.580  15.219  0.00  0.00    +0.000 HD
ATOM     21  H   UNL     1      46.998   5.632  15.776  0.00  0.00    +0.000 HD
ENDBRANCH   1  19
BRANCH   1  22
ATOM     22  C   UNL     1      48.041   7.842  14.296  0.00  0.00    +0.000 C 
BRANCH  22  23
ATOM     23  N   UNL     1      47.827   8.342  15.648  0.00  0.00    +0.000 N 
ATOM     24  C   UNL     1      48.407   9.467  16.155  0.00  0.00    +0.000 C 
ATOM     25  O   UNL     1      49.168  10.188  15.470  0.00  0.00    +0.000 OA
ATOM     26  H   UNL     1      47.315   7.747  16.279  0.00  0.00    +0.000 HD
BRANCH  24  27
ATOM     27  C   UNL     1      48.068   9.821  17.536  0.00  0.00    +0.000 A 
ATOM     28  C   UNL     1      47.858  11.134  17.935  0.00  0.00    +0.000 A 
ATOM     29  S   UNL     1      47.384  11.279  19.574  0.00  0.00    +0.000 S 
ATOM     30  C   UNL     1      47.491   9.599  19.813  0.00  0.00    +0.000 A 
ATOM     31  N   UNL     1      47.219   9.026  21.016  0.00  0.00    +0.000 NA
ATOM     32  C   UNL     1      47.370   7.742  21.044  0.00  0.00    +0.000 A 
ATOM     33  N   UNL     1      47.780   6.980  19.983  0.00  0.00    +0.000 N 
ATOM     34  C   UNL     1      48.215   7.540  18.820  0.00  0.00    +0.000 A 
ATOM     35  O   UNL     1      48.857   6.869  18.007  0.00  0.00    +0.000 OA
ATOM     36  C   UNL     1      47.933   8.947  18.677  0.00  0.00    +0.000 A 
ATOM     37  H   UNL     1      47.986   6.001  20.103  0.00  0.00    +0.000 HD
ENDBRANCH  24  27
ENDBRANCH  22  23
ENDBRANCH   1  22
TORSDOF 8
ENDMDL
MODEL 3
REMARK VINA RESULT:    -8.174      2.550      3.270
REMARK INTER + INTRA:         -12.748
REMARK INTER:                 -11.712
REMARK INTRA:                  -1.036
REMARK UNBOUND:                -0.990
REMARK  Name = 
REMARK  8 active torsions:
REMARK  status: ('A' for Active; 'I' for Inactive)
REMARK    1  A    between atoms: N_1  and  C_2
REMARK    2  A    between atoms: C_2  and  C_3
REMARK    3  A    between atoms: C_2  and  C_17
REMARK    4  A    between atoms: C_3  and  N_4
REMARK    5  A    between atoms: C_5  and  C_7
REMARK    6  A    between atoms: C_20  and  C_21
REMARK    7  A    between atoms: C_21  and  N_22
REMARK    8  A    between atoms: C_23  and  C_25
REMARK                            x       y       z     vdW  Elec       q    Type
REMARK                         _______ _______ _______ _____ _____    ______ ____
ROOT
ATOM      1  C   UNL     1      47.872   9.093  13.574  0.00  0.00    +0.000 C 
ENDROOT
BRANCH   1   2
ATOM      2  C   UNL     1      46.938   8.287  12.676  0.00  0.00    +0.000 A 
ATOM      3  C   UNL     1      47.441   7.153  12.042  0.00  0.00    +0.000 A 
ATOM      4  C   UNL     1      46.604   6.248  11.403  0.00  0.00    +0.000 A 
ATOM      5  C   UNL     1      45.226   6.454  11.351  0.00  0.00    +0.000 A 
ATOM      6  C   UNL     1      44.720   7.645  11.890  0.00  0.00    +0.000 A 
ATOM      7  C   UNL     1      45.568   8.554  12.538  0.00  0.00    +0.000 A 
BRANCH   5   8
ATOM      8  C   UNL     1      44.318   5.446  10.684  0.00  0.00    +0.000 C 
BRANCH   8   9
ATOM      9  N   UNL     1      44.910   4.737   9.560  0.00  0.00    +0.000 N 
ATOM     10  C   UNL     1      44.593   3.416   9.324  0.00  0.00    +0.000 C 
ATOM     11  O   UNL     1      43.823   2.790  10.050  0.00  0.00    +0.000 OA
ATOM     12  H   UNL     1      45.402   5.255   8.850  0.00  0.00    +0.000 HD
BRANCH  10  13
ATOM     13  C   UNL     1      45.328   2.776   8.135  0.00  0.00    +0.000 C 
ATOM     14  C   UNL     1      45.992   1.440   8.495  0.00  0.00    +0.000 C 
ATOM     15  C   UNL     1      46.910   0.949   7.379  0.00  0.00    +0.000 C 
ATOM     16  O   UNL     1      47.864   1.944   7.024  0.00  0.00    +0.000 OA
ATOM     17  C   UNL     1      47.246   3.126   6.522  0.00  0.00    +0.000 C 
ATOM     18  C   UNL     1      46.373   3.761   7.589  0.00  0.00    +0.000 C 
ENDBRANCH  10  13
ENDBRANCH   8   9
ENDBRANCH   5   8
ENDBRANCH   1   2
BRANCH   1  19
ATOM     19  N   UNL     1      47.961  10.482  13.106  0.00  0.00    +0.000 NA
ATOM     20  H   UNL     1      47.696  10.513  12.124  0.00  0.00    +0.000 HD
ATOM     21  H   UNL     1      48.940  10.758  13.143  0.00  0.00    +0.000 HD
ENDBRANCH   1  19
BRANCH   1  22
ATOM     22  C   UNL     1      49.294   8.437  13.751  0.00  0.00    +0.000 C 
BRANCH  22  23
ATOM     23  N   UNL     1      49.415   7.433  14.800  0.00  0.00    +0.000 N 
ATOM     24  C   UNL     1      49.095   7.641  16.109  0.00  0.00    +0.000 C 
ATOM     25  O   UNL     1      48.636   8.734  16.514  0.00  0.00    +0.000 OA
ATOM     26  H   UNL     1      49.881   6.573  14.557  0.00  0.00    +0.000 HD
BRANCH  24  27
ATOM     27  C   UNL     1      49.275   6.510  17.022  0.00  0.00    +0.000 A 
ATOM     28  C   UNL     1      50.200   6.532  18.056  0.00  0.00    +0.000 A 
ATOM     29  S   UNL     1      50.155   5.131  19.039  0.00  0.00    +0.000 S 
ATOM     30  C   UNL     1      48.933   4.432  18.086  0.00  0.00    +0.000 A 
ATOM     31  N   UNL     1      48.418   3.205  18.365  0.00  0.00    +0.000 NA
ATOM     32  C   UNL     1      47.514   2.802  17.533  0.00  0.00    +0.000 A 
ATOM     33  N   UNL     1      47.086   3.507  16.440  0.00  0.00    +0.000 N 
ATOM     34  C   UNL     1      47.696   4.660  16.044  0.00  0.00    +0.000 A 
ATOM     35  O   UNL     1      47.505   5.107  14.910  0.00  0.00    +0.000 OA
ATOM     36  C   UNL     1      48.605   5.231  17.006  0.00  0.00    +0.000 A 
ATOM     37  H   UNL     1      46.462   3.088  15.770  0.00  0.00    +0.000 HD
ENDBRANCH  24  27
ENDBRANCH  22  23
ENDBRANCH   1  22
TORSDOF 8
ENDMDL
MODEL 4
REMARK VINA RESULT:    -7.792      3.024      4.055
REMARK INTER + INTRA:         -12.199
REMARK INTER:                 -11.153
REMARK INTRA:                  -1.046
REMARK UNBOUND:                -0.990
REMARK  Name = 
REMARK  8 active torsions:
REMARK  status: ('A' for Active; 'I' for Inactive)
REMARK    1  A    between atoms: N_1  and  C_2
REMARK    2  A    between atoms: C_2  and  C_3
REMARK    3  A    between atoms: C_2  and  C_17
REMARK    4  A    between atoms: C_3  and  N_4
REMARK    5  A    between atoms: C_5  and  C_7
REMARK    6  A    between atoms: C_20  and  C_21
REMARK    7  A    between atoms: C_21  and  N_22
REMARK    8  A    between atoms: C_23  and  C_25
REMARK                            x       y       z     vdW  Elec       q    Type
REMARK                         _______ _______ _______ _____ _____    ______ ____
ROOT
ATOM      1  C   UNL     1      47.182   8.802  13.718  0.00  0.00    +0.000 C 
ENDROOT
BRANCH   1   2
ATOM      2  C   UNL     1      46.365   7.994  12.714  0.00  0.00    +0.000 A 
ATOM      3  C   UNL     1      46.752   6.682  12.445  0.00  0.00    +0.000 A 
ATOM      4  C   UNL     1      45.934   5.818  11.729  0.00  0.00    +0.000 A 
ATOM      5  C   UNL     1      44.702   6.240  11.230  0.00  0.00    +0.000 A 
ATOM      6  C   UNL     1      44.351   7.586  11.400  0.00  0.00    +0.000 A 
ATOM      7  C   UNL     1      45.178   8.454  12.126  0.00  0.00    +0.000 A 
BRANCH   5   8
ATOM      8  C   UNL     1      43.803   5.281  10.482  0.00  0.00    +0.000 C 
BRANCH   8   9
ATOM      9  N   UNL     1      44.427   4.607   9.355  0.00  0.00    +0.000 N 
ATOM     10  C   UNL     1      44.562   3.235   9.350  0.00  0.00    +0.000 C 
ATOM     11  O   UNL     1      44.179   2.539  10.290  0.00  0.00    +0.000 OA
ATOM     12  H   UNL     1      44.593   5.115   8.501  0.00  0.00    +0.000 HD
BRANCH  10  13
ATOM     13  C   UNL     1      45.284   2.658   8.122  0.00  0.00    +0.000 C 
ATOM     14  C   UNL     1      46.043   1.361   8.433  0.00  0.00    +0.000 C 
ATOM     15  C   UNL     1      46.943   0.944   7.273  0.00  0.00    +0.000 C 
ATOM     16  O   UNL     1      47.819   2.000   6.897  0.00  0.00    +0.000 OA
ATOM     17  C   UNL     1      47.110   3.149   6.439  0.00  0.00    +0.000 C 
ATOM     18  C   UNL     1      46.244   3.713   7.551  0.00  0.00    +0.000 C 
ENDBRANCH  10  13
ENDBRANCH   8   9
ENDBRANCH   5   8
ENDBRANCH   1   2
BRANCH   1  19
ATOM     19  N   UNL     1      47.523  10.117  13.162  0.00  0.00    +0.000 NA
ATOM     20  H   UNL     1      48.502  10.111  12.885  0.00  0.00    +0.000 HD
ATOM     21  H   UNL     1      47.447  10.800  13.913  0.00  0.00    +0.000 HD
ENDBRANCH   1  19
BRANCH   1  22
ATOM     22  C   UNL     1      48.454   8.039  14.251  0.00  0.00    +0.000 C 
BRANCH  22  23
ATOM     23  N   UNL     1      48.281   7.279  15.482  0.00  0.00    +0.000 N 
ATOM     24  C   UNL     1      49.273   6.580  16.105  0.00  0.00    +0.000 C 
ATOM     25  O   UNL     1      50.446   6.559  15.665  0.00  0.00    +0.000 OA
ATOM     26  H   UNL     1      47.339   7.168  15.822  0.00  0.00    +0.000 HD
BRANCH  24  27
ATOM     27  C   UNL     1      48.915   5.881  17.341  0.00  0.00    +0.000 A 
ATOM     28  C   UNL     1      49.019   4.503  17.471  0.00  0.00    +0.000 A 
ATOM     29  S   UNL     1      48.631   3.936  19.039  0.00  0.00    +0.000 S 
ATOM     30  C   UNL     1      48.267   5.507  19.579  0.00  0.00    +0.000 A 
ATOM     31  N   UNL     1      47.854   5.751  20.851  0.00  0.00    +0.000 NA
ATOM     32  C   UNL     1      47.593   6.993  21.100  0.00  0.00    +0.000 A 
ATOM     33  N   UNL     1      47.694   8.011  20.190  0.00  0.00    +0.000 N 
ATOM     34  C   UNL     1      47.945   7.776  18.872  0.00  0.00    +0.000 A 
ATOM     35  O   UNL     1      47.730   8.653  18.030  0.00  0.00    +0.000 OA
ATOM     36  C   UNL     1      48.387   6.438  18.564  0.00  0.00    +0.000 A 
ATOM     37  H   UNL     1      47.367   8.937  20.416  0.00  0.00    +0.000 HD
ENDBRANCH  24  27
ENDBRANCH  22  23
ENDBRANCH   1  22
TORSDOF 8
ENDMDL
MODEL 5
REMARK VINA RESULT:    -7.632      2.023      3.094
REMARK INTER + INTRA:         -11.967
REMARK INTER:                 -10.731
REMARK INTRA:                  -1.237
REMARK UNBOUND:                -0.990
REMARK  Name = 
REMARK  8 active torsions:
REMARK  status: ('A' for Active; 'I' for Inactive)
REMARK    1  A    between atoms: N_1  and  C_2
REMARK    2  A    between atoms: C_2  and  C_3
REMARK    3  A    between atoms: C_2  and  C_17
REMARK    4  A    between atoms: C_3  and  N_4
REMARK    5  A    between atoms: C_5  and  C_7
REMARK    6  A    between atoms: C_20  and  C_21
REMARK    7  A    between atoms: C_21  and  N_22
REMARK    8  A    between atoms: C_23  and  C_25
REMARK                            x       y       z     vdW  Elec       q    Type
REMARK                         _______ _______ _______ _____ _____    ______ ____
ROOT
ATOM      1  C   UNL     1      48.055   4.649  17.588  0.00  0.00    +0.000 C 
ENDROOT
BRANCH   1   2
ATOM      2  C   UNL     1      47.927   5.118  16.142  0.00  0.00    +0.000 A 
ATOM      3  C   UNL     1      47.086   4.409  15.285  0.00  0.00    +0.000 A 
ATOM      4  C   UNL     1      46.741   4.904  14.035  0.00  0.00    +0.000 A 
ATOM      5  C   UNL     1      47.243   6.123  13.579  0.00  0.00    +0.000 A 
ATOM      6  C   UNL     1      48.174   6.792  14.385  0.00  0.00    +0.000 A 
ATOM      7  C   UNL     1      48.517   6.290  15.648  0.00  0.00    +0.000 A 
BRANCH   5   8
ATOM      8  C   UNL     1      46.834   6.672  12.231  0.00  0.00    +0.000 C 
BRANCH   8   9
ATOM      9  N   UNL     1      46.377   5.674  11.275  0.00  0.00    +0.000 N 
ATOM     10  C   UNL     1      45.075   5.686  10.824  0.00  0.00    +0.000 C 
ATOM     11  O   UNL     1      44.256   6.517  11.215  0.00  0.00    +0.000 OA
ATOM     12  H   UNL     1      47.051   5.093  10.803  0.00  0.00    +0.000 HD
BRANCH  10  13
ATOM     13  C   UNL     1      44.713   4.546   9.857  0.00  0.00    +0.000 C 
ATOM     14  C   UNL     1      44.785   3.162  10.515  0.00  0.00    +0.000 C 
ATOM     15  C   UNL     1      44.662   2.043   9.485  0.00  0.00    +0.000 C 
ATOM     16  O   UNL     1      45.622   2.193   8.445  0.00  0.00    +0.000 OA
ATOM     17  C   UNL     1      45.441   3.406   7.719  0.00  0.00    +0.000 C 
ATOM     18  C   UNL     1      45.637   4.603   8.631  0.00  0.00    +0.000 C 
ENDBRANCH  10  13
ENDBRANCH   8   9
ENDBRANCH   5   8
ENDBRANCH   1   2
BRANCH   1  19
ATOM     19  N   UNL     1      46.782   4.826  18.298  0.00  0.00    +0.000 NA
ATOM     20  H   UNL     1      46.285   5.613  17.886  0.00  0.00    +0.000 HD
ATOM     21  H   UNL     1      46.998   5.100  19.255  0.00  0.00    +0.000 HD
ENDBRANCH   1  19
BRANCH   1  22
ATOM     22  C   UNL     1      49.259   5.311  18.359  0.00  0.00    +0.000 C 
BRANCH  22  23
ATOM     23  N   UNL     1      50.468   4.507  18.480  0.00  0.00    +0.000 N 
ATOM     24  C   UNL     1      51.582   4.666  17.709  0.00  0.00    +0.000 C 
ATOM     25  O   UNL     1      51.660   5.556  16.831  0.00  0.00    +0.000 OA
ATOM     26  H   UNL     1      50.425   3.707  19.090  0.00  0.00    +0.000 HD
BRANCH  24  27
ATOM     27  C   UNL     1      52.708   3.768  17.980  0.00  0.00    +0.000 A 
ATOM     28  C   UNL     1      53.995   4.237  18.195  0.00  0.00    +0.000 A 
ATOM     29  S   UNL     1      55.115   3.001  18.582  0.00  0.00    +0.000 S 
ATOM     30  C   UNL     1      53.924   1.796  18.426  0.00  0.00    +0.000 A 
ATOM     31  N   UNL     1      54.205   0.481  18.620  0.00  0.00    +0.000 NA
ATOM     32  C   UNL     1      53.201  -0.313  18.440  0.00  0.00    +0.000 A 
ATOM     33  N   UNL     1      51.944   0.087  18.073  0.00  0.00    +0.000 N 
ATOM     34  C   UNL     1      51.674   1.373  17.714  0.00  0.00    +0.000 A 
ATOM     35  O   UNL     1      50.637   1.645  17.103  0.00  0.00    +0.000 OA
ATOM     36  C   UNL     1      52.709   2.325  18.033  0.00  0.00    +0.000 A 
ATOM     37  H   UNL     1      51.236  -0.592  17.839  0.00  0.00    +0.000 HD
ENDBRANCH  24  27
ENDBRANCH  22  23
ENDBRANCH   1  22
TORSDOF 8
ENDMDL
MODEL 6
REMARK VINA RESULT:    -7.596      2.603      3.126
REMARK INTER + INTRA:         -11.916
REMARK INTER:                 -10.754
REMARK INTRA:                  -1.161
REMARK UNBOUND:                -0.990
REMARK  Name = 
REMARK  8 active torsions:
REMARK  status: ('A' for Active; 'I' for Inactive)
REMARK    1  A    between atoms: N_1  and  C_2
REMARK    2  A    between atoms: C_2  and  C_3
REMARK    3  A    between atoms: C_2  and  C_17
REMARK    4  A    between atoms: C_3  and  N_4
REMARK    5  A    between atoms: C_5  and  C_7
REMARK    6  A    between atoms: C_20  and  C_21
REMARK    7  A    between atoms: C_21  and  N_22
REMARK    8  A    between atoms: C_23  and  C_25
REMARK                            x       y       z     vdW  Elec       q    Type
REMARK                         _______ _______ _______ _____ _____    ______ ____
ROOT
ATOM      1  C   UNL     1      47.961   7.824  14.104  0.00  0.00    +0.000 C 
ENDROOT
BRANCH   1   2
ATOM      2  C   UNL     1      47.263   6.799  13.215  0.00  0.00    +0.000 A 
ATOM      3  C   UNL     1      47.070   5.511  13.712  0.00  0.00    +0.000 A 
ATOM      4  C   UNL     1      46.247   4.600  13.063  0.00  0.00    +0.000 A 
ATOM      5  C   UNL     1      45.600   4.933  11.873  0.00  0.00    +0.000 A 
ATOM      6  C   UNL     1      45.872   6.186  11.307  0.00  0.00    +0.000 A 
ATOM      7  C   UNL     1      46.701   7.104  11.967  0.00  0.00    +0.000 A 
BRANCH   5   8
ATOM      8  C   UNL     1      44.678   3.947  11.193  0.00  0.00    +0.000 C 
BRANCH   8   9
ATOM      9  N   UNL     1      45.276   3.205  10.093  0.00  0.00    +0.000 N 
ATOM     10  C   UNL     1      45.081   3.611   8.790  0.00  0.00    +0.000 C 
ATOM     11  O   UNL     1      44.394   4.592   8.509  0.00  0.00    +0.000 OA
ATOM     12  H   UNL     1      45.979   2.510  10.287  0.00  0.00    +0.000 HD
BRANCH  10  13
ATOM     13  C   UNL     1      45.726   2.709   7.726  0.00  0.00    +0.000 C 
ATOM     14  C   UNL     1      46.172   1.352   8.287  0.00  0.00    +0.000 C 
ATOM     15  C   UNL     1      47.020   0.579   7.281  0.00  0.00    +0.000 C 
ATOM     16  O   UNL     1      48.121   1.360   6.829  0.00  0.00    +0.000 OA
ATOM     17  C   UNL     1      47.699   2.540   6.150  0.00  0.00    +0.000 C 
ATOM     18  C   UNL     1      46.919   3.440   7.090  0.00  0.00    +0.000 C 
ENDBRANCH  10  13
ENDBRANCH   8   9
ENDBRANCH   5   8
ENDBRANCH   1   2
BRANCH   1  19
ATOM     19  N   UNL     1      47.064   8.951  14.386  0.00  0.00    +0.000 NA
ATOM     20  H   UNL     1      46.145   8.741  14.004  0.00  0.00    +0.000 HD
ATOM     21  H   UNL     1      47.408   9.757  13.867  0.00  0.00    +0.000 HD
ENDBRANCH   1  19
BRANCH   1  22
ATOM     22  C   UNL     1      49.352   8.303  13.537  0.00  0.00    +0.000 C 
BRANCH  22  23
ATOM     23  N   UNL     1      50.533   7.664  14.103  0.00  0.00    +0.000 N 
ATOM     24  C   UNL     1      51.370   8.251  15.006  0.00  0.00    +0.000 C 
ATOM     25  O   UNL     1      51.166   9.405  15.447  0.00  0.00    +0.000 OA
ATOM     26  H   UNL     1      50.810   6.781  13.705  0.00  0.00    +0.000 HD
BRANCH  24  27
ATOM     27  C   UNL     1      52.506   7.452  15.472  0.00  0.00    +0.000 A 
ATOM     28  C   UNL     1      53.809   7.710  15.070  0.00  0.00    +0.000 A 
ATOM     29  S   UNL     1      54.967   6.699  15.823  0.00  0.00    +0.000 S 
ATOM     30  C   UNL     1      53.760   5.853  16.672  0.00  0.00    +0.000 A 
ATOM     31  N   UNL     1      54.058   4.830  17.515  0.00  0.00    +0.000 NA
ATOM     32  C   UNL     1      53.030   4.272  18.066  0.00  0.00    +0.000 A 
ATOM     33  N   UNL     1      51.730   4.636  17.841  0.00  0.00    +0.000 N 
ATOM     34  C   UNL     1      51.391   5.544  16.883  0.00  0.00    +0.000 A 
ATOM     35  O   UNL     1      50.225   5.629  16.489  0.00  0.00    +0.000 OA
ATOM     36  C   UNL     1      52.494   6.301  16.344  0.00  0.00    +0.000 A 
ATOM     37  H   UNL     1      50.970   4.088  18.214  0.00  0.00    +0.000 HD
ENDBRANCH  24  27
ENDBRANCH  22  23
ENDBRANCH   1  22
TORSDOF 8
ENDMDL
MODEL 7
REMARK VINA RESULT:    -7.247      4.146     10.360
REMARK INTER + INTRA:         -11.413
REMARK INTER:                 -10.618
REMARK INTRA:                  -0.796
REMARK UNBOUND:                -0.990
REMARK  Name = 
REMARK  8 active torsions:
REMARK  status: ('A' for Active; 'I' for Inactive)
REMARK    1  A    between atoms: N_1  and  C_2
REMARK    2  A    between atoms: C_2  and  C_3
REMARK    3  A    between atoms: C_2  and  C_17
REMARK    4  A    between atoms: C_3  and  N_4
REMARK    5  A    between atoms: C_5  and  C_7
REMARK    6  A    between atoms: C_20  and  C_21
REMARK    7  A    between atoms: C_21  and  N_22
REMARK    8  A    between atoms: C_23  and  C_25
REMARK                            x       y       z     vdW  Elec       q    Type
REMARK                         _______ _______ _______ _____ _____    ______ ____
ROOT
ATOM      1  C   UNL     1      48.545   3.715  17.500  0.00  0.00    +0.000 C 
ENDROOT
BRANCH   1   2
ATOM      2  C   UNL     1      50.002   3.263  17.503  0.00  0.00    +0.000 A 
ATOM      3  C   UNL     1      50.976   4.162  17.933  0.00  0.00    +0.000 A 
ATOM      4  C   UNL     1      52.280   3.754  18.182  0.00  0.00    +0.000 A 
ATOM      5  C   UNL     1      52.669   2.429  17.989  0.00  0.00    +0.000 A 
ATOM      6  C   UNL     1      51.727   1.539  17.455  0.00  0.00    +0.000 A 
ATOM      7  C   UNL     1      50.412   1.954  17.207  0.00  0.00    +0.000 A 
BRANCH   5   8
ATOM      8  C   UNL     1      54.082   1.986  18.297  0.00  0.00    +0.000 C 
BRANCH   8   9
ATOM      9  N   UNL     1      54.466   0.709  17.716  0.00  0.00    +0.000 N 
ATOM     10  C   UNL     1      54.732  -0.374  18.525  0.00  0.00    +0.000 C 
ATOM     11  O   UNL     1      54.671  -0.302  19.752  0.00  0.00    +0.000 OA
ATOM     12  H   UNL     1      54.358   0.562  16.725  0.00  0.00    +0.000 HD
BRANCH  10  13
ATOM     13  C   UNL     1      55.176  -1.645  17.783  0.00  0.00    +0.000 C 
ATOM     14  C   UNL     1      54.941  -1.564  16.269  0.00  0.00    +0.000 C 
ATOM     15  C   UNL     1      55.159  -2.915  15.592  0.00  0.00    +0.000 C 
ATOM     16  O   UNL     1      54.369  -3.929  16.204  0.00  0.00    +0.000 OA
ATOM     17  C   UNL     1      54.713  -4.125  17.573  0.00  0.00    +0.000 C 
ATOM     18  C   UNL     1      54.444  -2.862  18.371  0.00  0.00    +0.000 C 
ENDBRANCH  10  13
ENDBRANCH   8   9
ENDBRANCH   5   8
ENDBRANCH   1   2
BRANCH   1  19
ATOM     19  N   UNL     1      47.892   3.348  18.762  0.00  0.00    +0.000 NA
ATOM     20  H   UNL     1      48.009   4.111  19.425  0.00  0.00    +0.000 HD
ATOM     21  H   UNL     1      48.398   2.555  19.153  0.00  0.00    +0.000 HD
ENDBRANCH   1  19
BRANCH   1  22
ATOM     22  C   UNL     1      47.733   3.211  16.246  0.00  0.00    +0.000 C 
BRANCH  22  23
ATOM     23  N   UNL     1      47.136   4.242  15.408  0.00  0.00    +0.000 N 
ATOM     24  C   UNL     1      46.741   4.054  14.116  0.00  0.00    +0.000 C 
ATOM     25  O   UNL     1      46.844   2.943  13.546  0.00  0.00    +0.000 OA
ATOM     26  H   UNL     1      47.130   5.181  15.773  0.00  0.00    +0.000 HD
BRANCH  24  27
ATOM     27  C   UNL     1      46.152   5.206  13.429  0.00  0.00    +0.000 A 
ATOM     28  C   UNL     1      46.810   6.424  13.325  0.00  0.00    +0.000 A 
ATOM     29  S   UNL     1      45.956   7.582  12.398  0.00  0.00    +0.000 S 
ATOM     30  C   UNL     1      44.660   6.509  12.148  0.00  0.00    +0.000 A 
ATOM     31  N   UNL     1      43.563   6.864  11.427  0.00  0.00    +0.000 NA
ATOM     32  C   UNL     1      42.654   5.948  11.349  0.00  0.00    +0.000 A 
ATOM     33  N   UNL     1      42.736   4.714  11.936  0.00  0.00    +0.000 N 
ATOM     34  C   UNL     1      43.742   4.390  12.795  0.00  0.00    +0.000 A 
ATOM     35  O   UNL     1      43.637   3.411  13.538  0.00  0.00    +0.000 OA
ATOM     36  C   UNL     1      44.854   5.309  12.806  0.00  0.00    +0.000 A 
ATOM     37  H   UNL     1      41.945   4.089  11.931  0.00  0.00    +0.000 HD
ENDBRANCH  24  27
ENDBRANCH  22  23
ENDBRANCH   1  22
TORSDOF 8
ENDMDL
MODEL 8
REMARK VINA RESULT:    -6.894      3.695      4.855
REMARK INTER + INTRA:         -10.906
REMARK INTER:                  -9.874
REMARK INTRA:                  -1.032
REMARK UNBOUND:                -0.990
REMARK  Name = 
REMARK  8 active torsions:
REMARK  status: ('A' for Active; 'I' for Inactive)
REMARK    1  A    between atoms: N_1  and  C_2
REMARK    2  A    between atoms: C_2  and  C_3
REMARK    3  A    between atoms: C_2  and  C_17
REMARK    4  A    between atoms: C_3  and  N_4
REMARK    5  A    between atoms: C_5  and  C_7
REMARK    6  A    between atoms: C_20  and  C_21
REMARK    7  A    between atoms: C_21  and  N_22
REMARK    8  A    between atoms: C_23  and  C_25
REMARK                            x       y       z     vdW  Elec       q    Type
REMARK                         _______ _______ _______ _____ _____    ______ ____
ROOT
ATOM      1  C   UNL     1      48.075   5.348  15.530  0.00  0.00    +0.000 C 
ENDROOT
BRANCH   1   2
ATOM      2  C   UNL     1      47.394   5.343  14.165  0.00  0.00    +0.000 A 
ATOM      3  C   UNL     1      46.500   4.314  13.873  0.00  0.00    +0.000 A 
ATOM      4  C   UNL     1      45.676   4.366  12.757  0.00  0.00    +0.000 A 
ATOM      5  C   UNL     1      45.728   5.442  11.871  0.00  0.00    +0.000 A 
ATOM      6  C   UNL     1      46.697   6.429  12.095  0.00  0.00    +0.000 A 
ATOM      7  C   UNL     1      47.526   6.375  13.225  0.00  0.00    +0.000 A 
BRANCH   5   8
ATOM      8  C   UNL     1      44.801   5.507  10.679  0.00  0.00    +0.000 C 
BRANCH   8   9
ATOM      9  N   UNL     1      45.255   4.772   9.508  0.00  0.00    +0.000 N 
ATOM     10  C   UNL     1      44.754   3.517   9.235  0.00  0.00    +0.000 C 
ATOM     11  O   UNL     1      43.929   2.971   9.966  0.00  0.00    +0.000 OA
ATOM     12  H   UNL     1      45.790   5.247   8.799  0.00  0.00    +0.000 HD
BRANCH  10  13
ATOM     13  C   UNL     1      45.357   2.833   7.997  0.00  0.00    +0.000 C 
ATOM     14  C   UNL     1      46.115   1.544   8.339  0.00  0.00    +0.000 C 
ATOM     15  C   UNL     1      46.902   1.020   7.141  0.00  0.00    +0.000 C 
ATOM     16  O   UNL     1      47.762   2.023   6.613  0.00  0.00    +0.000 OA
ATOM     17  C   UNL     1      47.038   3.153   6.132  0.00  0.00    +0.000 C 
ATOM     18  C   UNL     1      46.283   3.819   7.269  0.00  0.00    +0.000 C 
ENDBRANCH  10  13
ENDBRANCH   8   9
ENDBRANCH   5   8
ENDBRANCH   1   2
BRANCH   1  19
ATOM     19  N   UNL     1      47.158   4.848  16.562  0.00  0.00    +0.000 NA
ATOM     20  H   UNL     1      47.689   4.292  17.229  0.00  0.00    +0.000 HD
ATOM     21  H   UNL     1      46.509   4.205  16.113  0.00  0.00    +0.000 HD
ENDBRANCH   1  19
BRANCH   1  22
ATOM     22  C   UNL     1      48.694   6.745  15.917  0.00  0.00    +0.000 C 
BRANCH  22  23
ATOM     23  N   UNL     1      49.957   7.090  15.278  0.00  0.00    +0.000 N 
ATOM     24  C   UNL     1      50.554   8.314  15.357  0.00  0.00    +0.000 C 
ATOM     25  O   UNL     1      50.059   9.251  16.025  0.00  0.00    +0.000 OA
ATOM     26  H   UNL     1      50.345   6.415  14.639  0.00  0.00    +0.000 HD
BRANCH  24  27
ATOM     27  C   UNL     1      51.829   8.475  14.654  0.00  0.00    +0.000 A 
ATOM     28  C   UNL     1      53.021   8.709  15.324  0.00  0.00    +0.000 A 
ATOM     29  S   UNL     1      54.384   8.768  14.289  0.00  0.00    +0.000 S 
ATOM     30  C   UNL     1      53.417   8.531  12.910  0.00  0.00    +0.000 A 
ATOM     31  N   UNL     1      53.949   8.481  11.660  0.00  0.00    +0.000 NA
ATOM     32  C   UNL     1      53.082   8.320  10.714  0.00  0.00    +0.000 A 
ATOM     33  N   UNL     1      51.730   8.217  10.903  0.00  0.00    +0.000 N 
ATOM     34  C   UNL     1      51.155   8.426  12.120  0.00  0.00    +0.000 A 
ATOM     35  O   UNL     1      49.941   8.631  12.209  0.00  0.00    +0.000 OA
ATOM     36  C   UNL     1      52.074   8.463  13.231  0.00  0.00    +0.000 A 
ATOM     37  H   UNL     1      51.101   8.207  10.116  0.00  0.00    +0.000 HD
ENDBRANCH  24  27
ENDBRANCH  22  23
ENDBRANCH   1  22
TORSDOF 8
ENDMDL
MODEL 9
REMARK VINA RESULT:    -6.810      3.537      9.969
REMARK INTER + INTRA:         -10.785
REMARK INTER:                  -9.923
REMARK INTRA:                  -0.862
REMARK UNBOUND:                -0.990
REMARK  Name = 
REMARK  8 active torsions:
REMARK  status: ('A' for Active; 'I' for Inactive)
REMARK    1  A    between atoms: N_1  and  C_2
REMARK    2  A    between atoms: C_2  and  C_3
REMARK    3  A    between atoms: C_2  and  C_17
REMARK    4  A    between atoms: C_3  and  N_4
REMARK    5  A    between atoms: C_5  and  C_7
REMARK    6  A    between atoms: C_20  and  C_21
REMARK    7  A    between atoms: C_21  and  N_22
REMARK    8  A    between atoms: C_23  and  C_25
REMARK                            x       y       z     vdW  Elec       q    Type
REMARK                         _______ _______ _______ _____ _____    ______ ____
ROOT
ATOM      1  C   UNL     1      47.950   4.926  17.164  0.00  0.00    +0.000 C 
ENDROOT
BRANCH   1   2
ATOM      2  C   UNL     1      49.439   4.612  17.277  0.00  0.00    +0.000 A 
ATOM      3  C   UNL     1      50.337   5.674  17.368  0.00  0.00    +0.000 A 
ATOM      4  C   UNL     1      51.669   5.471  17.703  0.00  0.00    +0.000 A 
ATOM      5  C   UNL     1      52.165   4.188  17.939  0.00  0.00    +0.000 A 
ATOM      6  C   UNL     1      51.299   3.104  17.744  0.00  0.00    +0.000 A 
ATOM      7  C   UNL     1      49.954   3.314  17.409  0.00  0.00    +0.000 A 
BRANCH   5   8
ATOM      8  C   UNL     1      53.608   3.980  18.338  0.00  0.00    +0.000 C 
BRANCH   8   9
ATOM      9  N   UNL     1      54.214   2.758  17.833  0.00  0.00    +0.000 N 
ATOM     10  C   UNL     1      54.487   1.710  18.687  0.00  0.00    +0.000 C 
ATOM     11  O   UNL     1      54.246   1.771  19.892  0.00  0.00    +0.000 OA
ATOM     12  H   UNL     1      54.265   2.602  16.839  0.00  0.00    +0.000 HD
BRANCH  10  13
ATOM     13  C   UNL     1      55.173   0.501  18.031  0.00  0.00    +0.000 C 
ATOM     14  C   UNL     1      55.265   0.623  16.505  0.00  0.00    +0.000 C 
ATOM     15  C   UNL     1      55.724  -0.684  15.862  0.00  0.00    +0.000 C 
ATOM     16  O   UNL     1      54.899  -1.771  16.265  0.00  0.00    +0.000 OA
ATOM     17  C   UNL     1      54.953  -1.994  17.671  0.00  0.00    +0.000 C 
ATOM     18  C   UNL     1      54.425  -0.784  18.420  0.00  0.00    +0.000 C 
ENDBRANCH  10  13
ENDBRANCH   8   9
ENDBRANCH   5   8
ENDBRANCH   1   2
BRANCH   1  19
ATOM     19  N   UNL     1      47.358   5.088  18.498  0.00  0.00    +0.000 NA
ATOM     20  H   UNL     1      47.068   6.057  18.610  0.00  0.00    +0.000 HD
ATOM     21  H   UNL     1      48.095   4.934  19.183  0.00  0.00    +0.000 HD
ENDBRANCH   1  19
BRANCH   1  22
ATOM     22  C   UNL     1      47.154   3.885  16.288  0.00  0.00    +0.000 C 
BRANCH  22  23
ATOM     23  N   UNL     1      46.433   4.425  15.142  0.00  0.00    +0.000 N 
ATOM     24  C   UNL     1      47.001   5.182  14.160  0.00  0.00    +0.000 C 
ATOM     25  O   UNL     1      48.222   5.459  14.157  0.00  0.00    +0.000 OA
ATOM     26  H   UNL     1      45.431   4.330  15.147  0.00  0.00    +0.000 HD
BRANCH  24  27
ATOM     27  C   UNL     1      46.120   5.632  13.079  0.00  0.00    +0.000 A 
ATOM     28  C   UNL     1      45.823   6.971  12.872  0.00  0.00    +0.000 A 
ATOM     29  S   UNL     1      44.850   7.248  11.491  0.00  0.00    +0.000 S 
ATOM     30  C   UNL     1      44.754   5.583  11.155  0.00  0.00    +0.000 A 
ATOM     31  N   UNL     1      44.055   5.105  10.093  0.00  0.00    +0.000 NA
ATOM     32  C   UNL     1      44.057   3.816   9.987  0.00  0.00    +0.000 A 
ATOM     33  N   UNL     1      44.684   2.961  10.853  0.00  0.00    +0.000 N 
ATOM     34  C   UNL     1      45.252   3.399  12.012  0.00  0.00    +0.000 A 
ATOM     35  O   UNL     1      45.533   2.600  12.909  0.00  0.00    +0.000 OA
ATOM     36  C   UNL     1      45.409   4.829  12.111  0.00  0.00    +0.000 A 
ATOM     37  H   UNL     1      44.553   1.965  10.778  0.00  0.00    +0.000 HD
ENDBRANCH  24  27
ENDBRANCH  22  23
ENDBRANCH   1  22
TORSDOF 8
ENDMDL
