MODEL 1
REMARK VINA RESULT:    -8.908      0.000      0.000
REMARK INTER + INTRA:         -13.478
REMARK INTER:                 -12.553
REMARK INTRA:                  -0.924
REMARK UNBOUND:                -0.924
REMARK  Name = 
REMARK  7 active torsions:
REMARK  status: ('A' for Active; 'I' for Inactive)
REMARK    1  A    between atoms: C_2  and  C_3
REMARK    2  A    between atoms: C_6  and  O_7
REMARK    3  A    between atoms: O_7  and  C_8
REMARK    4  A    between atoms: C_8  and  C_9
REMARK    5  A    between atoms: C_12  and  C_13
REMARK    6  A    between atoms: C_13  and  N_14
REMARK    7  A    between atoms: C_15  and  C_17
REMARK                            x       y       z     vdW  Elec       q    Type
REMARK                         _______ _______ _______ _____ _____    ______ ____
ROOT
ATOM      1  C   UNL     1      44.731   4.146  12.166  0.00  0.00    +0.000 A 
ATOM      2  C   UNL     1      44.785   5.524  11.997  0.00  0.00    +0.000 A 
ATOM      3  C   UNL     1      45.866   6.227  12.524  0.00  0.00    +0.000 A 
ATOM      4  C   UNL     1      46.858   5.533  13.203  0.00  0.00    +0.000 A 
ATOM      5  N   UNL     1      46.764   4.195  13.377  0.00  0.00    +0.000 NA
ATOM      6  N   UNL     1      45.697   3.499  12.853  0.00  0.00    +0.000 NA
ENDROOT
BRANCH   1   7
ATOM      7  C   UNL     1      43.623   3.325  11.551  0.00  0.00    +0.000 C 
BRANCH   7   8
ATOM      8  O   UNL     1      43.482   3.623  10.159  0.00  0.00    +0.000 OA
BRANCH   8  12
ATOM      9  C   UNL     1      46.504   2.422   7.531  0.00  0.00    +0.000 A 
ATOM     10  C   UNL     1      45.873   1.450   8.319  0.00  0.00    +0.000 A 
ATOM     11  C   UNL     1      44.852   1.810   9.209  0.00  0.00    +0.000 A 
ATOM     12  C   UNL     1      44.456   3.145   9.324  0.00  0.00    +0.000 A 
ATOM     13  C   UNL     1      45.091   4.112   8.538  0.00  0.00    +0.000 A 
ATOM     14  C   UNL     1      46.108   3.756   7.646  0.00  0.00    +0.000 A 
BRANCH   9  16
ATOM     15  N   UNL     1      48.377   1.744   5.871  0.00  0.00    +0.000 NA
ATOM     16  C   UNL     1      47.538   2.045   6.613  0.00  0.00    +0.000 C 
ENDBRANCH   9  16
ENDBRANCH   8  12
ENDBRANCH   7   8
ENDBRANCH   1   7
BRANCH   4  17
ATOM     17  C   UNL     1      48.052   6.242  13.788  0.00  0.00    +0.000 C 
BRANCH  17  18
ATOM     18  N   UNL     1      47.916   6.434  15.215  0.00  0.00    +0.000 N 
ATOM     19  C   UNL     1      49.001   6.475  16.054  0.00  0.00    +0.000 C 
ATOM     20  O   UNL     1      50.154   6.435  15.636  0.00  0.00    +0.000 OA
ATOM     21  H   UNL     1      47.008   6.193  15.603  0.00  0.00    +0.000 HD
BRANCH  19  22
ATOM     22  C   UNL     1      48.710   6.656  17.483  0.00  0.00    +0.000 A 
ATOM     23  C   UNL     1      48.451   7.924  17.983  0.00  0.00    +0.000 A 
ATOM     24  S   UNL     1      48.093   7.941  19.652  0.00  0.00    +0.000 S 
ATOM     25  C   UNL     1      48.316   6.258  19.772  0.00  0.00    +0.000 A 
ATOM     26  N   UNL     1      48.184   5.615  20.964  0.00  0.00    +0.000 NA
ATOM     27  C   UNL     1      48.407   4.344  20.913  0.00  0.00    +0.000 A 
ATOM     28  N   UNL     1      48.744   3.656  19.775  0.00  0.00    +0.000 N 
ATOM     29  C   UNL     1      48.856   4.258  18.546  0.00  0.00    +0.000 A 
ATOM     30  O   UNL     1      49.103   3.610  17.534  0.00  0.00    +0.000 OA
ATOM     31  C   UNL     1      48.636   5.691  18.553  0.00  0.00    +0.000 A 
ATOM     32  H   UNL     1      48.888   2.657  19.796  0.00  0.00    +0.000 HD
ENDBRANCH  19  22
ENDBRANCH  17  18
ENDBRANCH   4  17
TORSDOF 7
ENDMDL
MODEL 2
REMARK VINA RESULT:    -8.654      1.304      1.993
REMARK INTER + INTRA:         -13.120
REMARK INTER:                 -12.041
REMARK INTRA:                  -1.080
REMARK UNBOUND:                -0.924
REMARK  Name = 
REMARK  7 active torsions:
REMARK  status: ('A' for Active; 'I' for Inactive)
REMARK    1  A    between atoms: C_2  and  C_3
REMARK    2  A    between atoms: C_6  and  O_7
REMARK    3  A    between atoms: O_7  and  C_8
REMARK    4  A    between atoms: C_8  and  C_9
REMARK    5  A    between atoms: C_12  and  C_13
REMARK    6  A    between atoms: C_13  and  N_14
REMARK    7  A    between atoms: C_15  and  C_17
REMARK                            x       y       z     vdW  Elec       q    Type
REMARK                         _______ _______ _______ _____ _____    ______ ____
ROOT
ATOM      1  C   UNL     1      44.755   4.303  12.253  0.00  0.00    +0.000 A 
ATOM      2  C   UNL     1      44.803   5.683  12.111  0.00  0.00    +0.000 A 
ATOM      3  C   UNL     1      45.844   6.388  12.712  0.00  0.00    +0.000 A 
ATOM      4  C   UNL     1      46.803   5.691  13.435  0.00  0.00    +0.000 A 
ATOM      5  N   UNL     1      46.713   4.350  13.581  0.00  0.00    +0.000 NA
ATOM      6  N   UNL     1      45.687   3.652  12.984  0.00  0.00    +0.000 NA
ENDROOT
BRANCH   1   7
ATOM      7  C   UNL     1      43.693   3.482  11.561  0.00  0.00    +0.000 C 
BRANCH   7   8
ATOM      8  O   UNL     1      43.602   3.831  10.176  0.00  0.00    +0.000 OA
BRANCH   8  12
ATOM      9  C   UNL     1      46.533   2.440   7.540  0.00  0.00    +0.000 A 
ATOM     10  C   UNL     1      45.872   1.515   8.358  0.00  0.00    +0.000 A 
ATOM     11  C   UNL     1      44.880   1.939   9.253  0.00  0.00    +0.000 A 
ATOM     12  C   UNL     1      44.543   3.292   9.341  0.00  0.00    +0.000 A 
ATOM     13  C   UNL     1      45.208   4.213   8.525  0.00  0.00    +0.000 A 
ATOM     14  C   UNL     1      46.198   3.792   7.629  0.00  0.00    +0.000 A 
BRANCH   9  16
ATOM     15  N   UNL     1      48.354   1.643   5.874  0.00  0.00    +0.000 NA
ATOM     16  C   UNL     1      47.538   1.997   6.618  0.00  0.00    +0.000 C 
ENDBRANCH   9  16
ENDBRANCH   8  12
ENDBRANCH   7   8
ENDBRANCH   1   7
BRANCH   4  17
ATOM     17  C   UNL     1      47.954   6.402  14.100  0.00  0.00    +0.000 C 
BRANCH  17  18
ATOM     18  N   UNL     1      47.901   6.276  15.540  0.00  0.00    +0.000 N 
ATOM     19  C   UNL     1      49.033   6.142  16.305  0.00  0.00    +0.000 C 
ATOM     20  O   UNL     1      50.160   6.205  15.822  0.00  0.00    +0.000 OA
ATOM     21  H   UNL     1      47.016   5.948  15.918  0.00  0.00    +0.000 HD
BRANCH  19  22
ATOM     22  C   UNL     1      48.827   6.004  17.752  0.00  0.00    +0.000 A 
ATOM     23  C   UNL     1      49.127   4.805  18.384  0.00  0.00    +0.000 A 
ATOM     24  S   UNL     1      48.867   4.837  20.071  0.00  0.00    +0.000 S 
ATOM     25  C   UNL     1      48.301   6.441  20.008  0.00  0.00    +0.000 A 
ATOM     26  N   UNL     1      47.878   7.081  21.131  0.00  0.00    +0.000 NA
ATOM     27  C   UNL     1      47.450   8.283  20.931  0.00  0.00    +0.000 A 
ATOM     28  N   UNL     1      47.414   8.906  19.710  0.00  0.00    +0.000 N 
ATOM     29  C   UNL     1      47.861   8.310  18.556  0.00  0.00    +0.000 A 
ATOM     30  O   UNL     1      47.871   8.911  17.487  0.00  0.00    +0.000 OA
ATOM     31  C   UNL     1      48.332   6.950  18.723  0.00  0.00    +0.000 A 
ATOM     32  H   UNL     1      47.084   9.856  19.622  0.00  0.00    +0.000 HD
ENDBRANCH  19  22
ENDBRANCH  17  18
ENDBRANCH   4  17
TORSDOF 7
ENDMDL
MODEL 3
REMARK VINA RESULT:    -8.175      2.073      2.515
REMARK INTER + INTRA:         -12.445
REMARK INTER:                 -11.278
REMARK INTRA:                  -1.166
REMARK UNBOUND:                -0.924
REMARK  Name = 
REMARK  7 active torsions:
REMARK  status: ('A' for Active; 'I' for Inactive)
REMARK    1  A    between atoms: C_2  and  C_3
REMARK    2  A    between atoms: C_6  and  O_7
REMARK    3  A    between atoms: O_7  and  C_8
REMARK    4  A    between atoms: C_8  and  C_9
REMARK    5  A    between atoms: C_12  and  C_13
REMARK    6  A    between atoms: C_13  and  N_14
REMARK    7  A    between atoms: C_15  and  C_17
REMARK                            x       y       z     vdW  Elec       q    Type
REMARK                         _______ _______ _______ _____ _____    ______ ____
ROOT
ATOM      1  C   UNL     1      44.689   4.435  12.077  0.00  0.00    +0.000 A 
ATOM      2  C   UNL     1      45.871   4.056  12.700  0.00  0.00    +0.000 A 
ATOM      3  C   UNL     1      46.713   5.042  13.209  0.00  0.00    +0.000 A 
ATOM      4  C   UNL     1      46.349   6.375  13.079  0.00  0.00    +0.000 A 
ATOM      5  N   UNL     1      45.206   6.716  12.441  0.00  0.00    +0.000 NA
ATOM      6  N   UNL     1      44.371   5.741  11.941  0.00  0.00    +0.000 NA
ENDROOT
BRANCH   1   7
ATOM      7  C   UNL     1      43.704   3.407  11.575  0.00  0.00    +0.000 C 
BRANCH   7   8
ATOM      8  O   UNL     1      43.431   3.600  10.184  0.00  0.00    +0.000 OA
BRANCH   8  12
ATOM      9  C   UNL     1      46.492   2.434   7.586  0.00  0.00    +0.000 A 
ATOM     10  C   UNL     1      46.127   3.786   7.630  0.00  0.00    +0.000 A 
ATOM     11  C   UNL     1      45.109   4.219   8.490  0.00  0.00    +0.000 A 
ATOM     12  C   UNL     1      44.443   3.306   9.311  0.00  0.00    +0.000 A 
ATOM     13  C   UNL     1      44.809   1.956   9.261  0.00  0.00    +0.000 A 
ATOM     14  C   UNL     1      45.827   1.521   8.405  0.00  0.00    +0.000 A 
BRANCH   9  16
ATOM     15  N   UNL     1      48.395   1.653   6.007  0.00  0.00    +0.000 NA
ATOM     16  C   UNL     1      47.543   2.000   6.713  0.00  0.00    +0.000 C 
ENDBRANCH   9  16
ENDBRANCH   8  12
ENDBRANCH   7   8
ENDBRANCH   1   7
BRANCH   4  17
ATOM     17  C   UNL     1      47.219   7.482  13.617  0.00  0.00    +0.000 C 
BRANCH  17  18
ATOM     18  N   UNL     1      48.359   6.965  14.341  0.00  0.00    +0.000 N 
ATOM     19  C   UNL     1      49.118   7.751  15.170  0.00  0.00    +0.000 C 
ATOM     20  O   UNL     1      48.827   8.919  15.411  0.00  0.00    +0.000 OA
ATOM     21  H   UNL     1      48.774   6.120  13.956  0.00  0.00    +0.000 HD
BRANCH  19  22
ATOM     22  C   UNL     1      50.258   7.096  15.824  0.00  0.00    +0.000 A 
ATOM     23  C   UNL     1      51.538   7.608  15.666  0.00  0.00    +0.000 A 
ATOM     24  S   UNL     1      52.731   6.747  16.530  0.00  0.00    +0.000 S 
ATOM     25  C   UNL     1      51.584   5.632  17.110  0.00  0.00    +0.000 A 
ATOM     26  N   UNL     1      51.955   4.593  17.906  0.00  0.00    +0.000 NA
ATOM     27  C   UNL     1      50.985   3.811  18.250  0.00  0.00    +0.000 A 
ATOM     28  N   UNL     1      49.676   3.980  17.875  0.00  0.00    +0.000 N 
ATOM     29  C   UNL     1      49.253   5.032  17.101  0.00  0.00    +0.000 A 
ATOM     30  O   UNL     1      48.068   5.190  16.827  0.00  0.00    +0.000 OA
ATOM     31  C   UNL     1      50.308   5.927  16.669  0.00  0.00    +0.000 A 
ATOM     32  H   UNL     1      48.960   3.343  18.192  0.00  0.00    +0.000 HD
ENDBRANCH  19  22
ENDBRANCH  17  18
ENDBRANCH   4  17
TORSDOF 7
ENDMDL
MODEL 4
REMARK VINA RESULT:    -7.946      3.579      5.630
REMARK INTER + INTRA:         -12.122
REMARK INTER:                 -10.966
REMARK INTRA:                  -1.156
REMARK UNBOUND:                -0.924
REMARK  Name = 
REMARK  7 active torsions:
REMARK  status: ('A' for Active; 'I' for Inactive)
REMARK    1  A    between atoms: C_2  and  C_3
REMARK    2  A    between atoms: C_6  and  O_7
REMARK    3  A    between atoms: O_7  and  C_8
REMARK    4  A    between atoms: C_8  and  C_9
REMARK    5  A    between atoms: C_12  and  C_13
REMARK    6  A    between atoms: C_13  and  N_14
REMARK    7  A    between atoms: C_15  and  C_17
REMARK                            x       y       z     vdW  Elec       q    Type
REMARK                         _______ _______ _______ _____ _____    ______ ____
ROOT
ATOM      1  C   UNL     1      44.808   3.947  12.285  0.00  0.00    +0.000 A 
ATOM      2  C   UNL     1      45.900   3.238  12.770  0.00  0.00    +0.000 A 
ATOM      3  C   UNL     1      46.898   3.923  13.460  0.00  0.00    +0.000 A 
ATOM      4  C   UNL     1      46.774   5.293  13.643  0.00  0.00    +0.000 A 
ATOM      5  N   UNL     1      45.714   5.962  13.135  0.00  0.00    +0.000 NA
ATOM      6  N   UNL     1      44.725   5.284  12.456  0.00  0.00    +0.000 NA
ENDROOT
BRANCH   1   7
ATOM      7  C   UNL     1      43.662   3.244  11.598  0.00  0.00    +0.000 C 
BRANCH   7   8
ATOM      8  O   UNL     1      43.511   3.713  10.255  0.00  0.00    +0.000 OA
BRANCH   8  12
ATOM      9  C   UNL     1      46.510   2.459   7.625  0.00  0.00    +0.000 A 
ATOM     10  C   UNL     1      46.219   3.827   7.709  0.00  0.00    +0.000 A 
ATOM     11  C   UNL     1      45.224   4.289   8.582  0.00  0.00    +0.000 A 
ATOM     12  C   UNL     1      44.508   3.389   9.373  0.00  0.00    +0.000 A 
ATOM     13  C   UNL     1      44.799   2.024   9.283  0.00  0.00    +0.000 A 
ATOM     14  C   UNL     1      45.793   1.559   8.415  0.00  0.00    +0.000 A 
BRANCH   9  16
ATOM     15  N   UNL     1      48.367   1.622   6.020  0.00  0.00    +0.000 NA
ATOM     16  C   UNL     1      47.537   1.995   6.739  0.00  0.00    +0.000 C 
ENDBRANCH   9  16
ENDBRANCH   8  12
ENDBRANCH   7   8
ENDBRANCH   1   7
BRANCH   4  17
ATOM     17  C   UNL     1      47.820   6.083  14.388  0.00  0.00    +0.000 C 
BRANCH  17  18
ATOM     18  N   UNL     1      48.571   6.945  13.502  0.00  0.00    +0.000 N 
ATOM     19  C   UNL     1      49.627   7.704  13.940  0.00  0.00    +0.000 C 
ATOM     20  O   UNL     1      50.050   7.633  15.091  0.00  0.00    +0.000 OA
ATOM     21  H   UNL     1      48.087   7.228  12.654  0.00  0.00    +0.000 HD
BRANCH  19  22
ATOM     22  C   UNL     1      50.284   8.548  12.934  0.00  0.00    +0.000 A 
ATOM     23  C   UNL     1      51.652   8.440  12.724  0.00  0.00    +0.000 A 
ATOM     24  S   UNL     1      52.236   9.464  11.489  0.00  0.00    +0.000 S 
ATOM     25  C   UNL     1      50.688  10.119  11.225  0.00  0.00    +0.000 A 
ATOM     26  N   UNL     1      50.487  11.093  10.296  0.00  0.00    +0.000 NA
ATOM     27  C   UNL     1      49.269  11.515  10.221  0.00  0.00    +0.000 A 
ATOM     28  N   UNL     1      48.230  11.046  10.985  0.00  0.00    +0.000 N 
ATOM     29  C   UNL     1      48.382  10.042  11.910  0.00  0.00    +0.000 A 
ATOM     30  O   UNL     1      47.426   9.602  12.540  0.00  0.00    +0.000 OA
ATOM     31  C   UNL     1      49.737   9.548  12.049  0.00  0.00    +0.000 A 
ATOM     32  H   UNL     1      47.295  11.405  10.866  0.00  0.00    +0.000 HD
ENDBRANCH  19  22
ENDBRANCH  17  18
ENDBRANCH   4  17
TORSDOF 7
ENDMDL
MODEL 5
REMARK VINA RESULT:    -7.810      4.721      5.756
REMARK INTER + INTRA:         -11.931
REMARK INTER:                 -10.801
REMARK INTRA:                  -1.130
REMARK UNBOUND:                -0.924
REMARK  Name = 
REMARK  7 active torsions:
REMARK  status: ('A' for Active; 'I' for Inactive)
REMARK    1  A    between atoms: C_2  and  C_3
REMARK    2  A    between atoms: C_6  and  O_7
REMARK    3  A    between atoms: O_7  and  C_8
REMARK    4  A    between atoms: C_8  and  C_9
REMARK    5  A    between atoms: C_12  and  C_13
REMARK    6  A    between atoms: C_13  and  N_14
REMARK    7  A    between atoms: C_15  and  C_17
REMARK                            x       y       z     vdW  Elec       q    Type
REMARK                         _______ _______ _______ _____ _____    ______ ____
ROOT
ATOM      1  C   UNL     1      44.626   4.993  11.919  0.00  0.00    +0.000 A 
ATOM      2  C   UNL     1      45.796   5.100  12.659  0.00  0.00    +0.000 A 
ATOM      3  C   UNL     1      46.294   6.367  12.956  0.00  0.00    +0.000 A 
ATOM      4  C   UNL     1      45.607   7.485  12.506  0.00  0.00    +0.000 A 
ATOM      5  N   UNL     1      44.485   7.350  11.762  0.00  0.00    +0.000 NA
ATOM      6  N   UNL     1      43.991   6.098  11.471  0.00  0.00    +0.000 NA
ENDROOT
BRANCH   1   7
ATOM      7  C   UNL     1      44.002   3.648  11.632  0.00  0.00    +0.000 C 
BRANCH   7   8
ATOM      8  O   UNL     1      43.608   3.552  10.260  0.00  0.00    +0.000 OA
BRANCH   8  12
ATOM      9  C   UNL     1      46.529   2.420   7.492  0.00  0.00    +0.000 A 
ATOM     10  C   UNL     1      45.940   1.430   8.289  0.00  0.00    +0.000 A 
ATOM     11  C   UNL     1      44.954   1.767   9.227  0.00  0.00    +0.000 A 
ATOM     12  C   UNL     1      44.551   3.096   9.379  0.00  0.00    +0.000 A 
ATOM     13  C   UNL     1      45.145   4.081   8.583  0.00  0.00    +0.000 A 
ATOM     14  C   UNL     1      46.128   3.748   7.645  0.00  0.00    +0.000 A 
BRANCH   9  16
ATOM     15  N   UNL     1      48.340   1.785   5.748  0.00  0.00    +0.000 NA
ATOM     16  C   UNL     1      47.529   2.067   6.527  0.00  0.00    +0.000 C 
ENDBRANCH   9  16
ENDBRANCH   8  12
ENDBRANCH   7   8
ENDBRANCH   1   7
BRANCH   4  17
ATOM     17  C   UNL     1      46.096   8.880  12.805  0.00  0.00    +0.000 C 
BRANCH  17  18
ATOM     18  N   UNL     1      47.346   9.164  12.135  0.00  0.00    +0.000 N 
ATOM     19  C   UNL     1      48.336   9.913  12.720  0.00  0.00    +0.000 C 
ATOM     20  O   UNL     1      48.253  10.317  13.877  0.00  0.00    +0.000 OA
ATOM     21  H   UNL     1      47.325   9.091  11.121  0.00  0.00    +0.000 HD
BRANCH  19  22
ATOM     22  C   UNL     1      49.543  10.138  11.915  0.00  0.00    +0.000 A 
ATOM     23  C   UNL     1      49.901  11.427  11.546  0.00  0.00    +0.000 A 
ATOM     24  S   UNL     1      51.352  11.504  10.650  0.00  0.00    +0.000 S 
ATOM     25  C   UNL     1      51.528   9.812  10.686  0.00  0.00    +0.000 A 
ATOM     26  N   UNL     1      52.574   9.201  10.067  0.00  0.00    +0.000 NA
ATOM     27  C   UNL     1      52.567   7.913  10.152  0.00  0.00    +0.000 A 
ATOM     28  N   UNL     1      51.611   7.179  10.809  0.00  0.00    +0.000 N 
ATOM     29  C   UNL     1      50.557   7.755  11.475  0.00  0.00    +0.000 A 
ATOM     30  O   UNL     1      49.749   7.079  12.102  0.00  0.00    +0.000 OA
ATOM     31  C   UNL     1      50.507   9.201  11.391  0.00  0.00    +0.000 A 
ATOM     32  H   UNL     1      51.671   6.173  10.856  0.00  0.00    +0.000 HD
ENDBRANCH  19  22
ENDBRANCH  17  18
ENDBRANCH   4  17
TORSDOF 7
ENDMDL
MODEL 6
REMARK VINA RESULT:    -7.434      3.811      5.198
REMARK INTER + INTRA:         -11.400
REMARK INTER:                 -10.357
REMARK INTRA:                  -1.042
REMARK UNBOUND:                -0.924
REMARK  Name = 
REMARK  7 active torsions:
REMARK  status: ('A' for Active; 'I' for Inactive)
REMARK    1  A    between atoms: C_2  and  C_3
REMARK    2  A    between atoms: C_6  and  O_7
REMARK    3  A    between atoms: O_7  and  C_8
REMARK    4  A    between atoms: C_8  and  C_9
REMARK    5  A    between atoms: C_12  and  C_13
REMARK    6  A    between atoms: C_13  and  N_14
REMARK    7  A    between atoms: C_15  and  C_17
REMARK                            x       y       z     vdW  Elec       q    Type
REMARK                         _______ _______ _______ _____ _____    ______ ____
ROOT
ATOM      1  C   UNL     1      44.709   4.729  12.051  0.00  0.00    +0.000 A 
ATOM      2  C   UNL     1      45.840   4.617  12.849  0.00  0.00    +0.000 A 
ATOM      3  C   UNL     1      46.493   5.776  13.262  0.00  0.00    +0.000 A 
ATOM      4  C   UNL     1      45.994   7.010  12.866  0.00  0.00    +0.000 A 
ATOM      5  N   UNL     1      44.907   7.087  12.065  0.00  0.00    +0.000 NA
ATOM      6  N   UNL     1      44.260   5.941  11.659  0.00  0.00    +0.000 NA
ENDROOT
BRANCH   1   7
ATOM      7  C   UNL     1      43.920   3.510  11.638  0.00  0.00    +0.000 C 
BRANCH   7   8
ATOM      8  O   UNL     1      43.560   3.582  10.255  0.00  0.00    +0.000 OA
BRANCH   8  12
ATOM      9  C   UNL     1      46.522   2.410   7.548  0.00  0.00    +0.000 A 
ATOM     10  C   UNL     1      46.172   3.764   7.615  0.00  0.00    +0.000 A 
ATOM     11  C   UNL     1      45.186   4.200   8.512  0.00  0.00    +0.000 A 
ATOM     12  C   UNL     1      44.540   3.286   9.346  0.00  0.00    +0.000 A 
ATOM     13  C   UNL     1      44.891   1.933   9.274  0.00  0.00    +0.000 A 
ATOM     14  C   UNL     1      45.876   1.496   8.382  0.00  0.00    +0.000 A 
BRANCH   9  16
ATOM     15  N   UNL     1      48.366   1.620   5.904  0.00  0.00    +0.000 NA
ATOM     16  C   UNL     1      47.540   1.974   6.637  0.00  0.00    +0.000 C 
ENDBRANCH   9  16
ENDBRANCH   8  12
ENDBRANCH   7   8
ENDBRANCH   1   7
BRANCH   4  17
ATOM     17  C   UNL     1      46.656   8.296  13.290  0.00  0.00    +0.000 C 
BRANCH  17  18
ATOM     18  N   UNL     1      48.099   8.186  13.277  0.00  0.00    +0.000 N 
ATOM     19  C   UNL     1      48.885   8.761  14.244  0.00  0.00    +0.000 C 
ATOM     20  O   UNL     1      48.408   9.331  15.221  0.00  0.00    +0.000 OA
ATOM     21  H   UNL     1      48.513   7.978  12.372  0.00  0.00    +0.000 HD
BRANCH  19  22
ATOM     22  C   UNL     1      50.335   8.584  14.092  0.00  0.00    +0.000 A 
ATOM     23  C   UNL     1      51.092   8.111  15.154  0.00  0.00    +0.000 A 
ATOM     24  S   UNL     1      52.748   7.928  14.786  0.00  0.00    +0.000 S 
ATOM     25  C   UNL     1      52.519   8.519  13.207  0.00  0.00    +0.000 A 
ATOM     26  N   UNL     1      53.565   8.649  12.347  0.00  0.00    +0.000 NA
ATOM     27  C   UNL     1      53.249   9.135  11.193  0.00  0.00    +0.000 A 
ATOM     28  N   UNL     1      51.980   9.495  10.817  0.00  0.00    +0.000 N 
ATOM     29  C   UNL     1      50.890   9.349  11.641  0.00  0.00    +0.000 A 
ATOM     30  O   UNL     1      49.758   9.626  11.260  0.00  0.00    +0.000 OA
ATOM     31  C   UNL     1      51.195   8.828  12.959  0.00  0.00    +0.000 A 
ATOM     32  H   UNL     1      51.794   9.852   9.892  0.00  0.00    +0.000 HD
ENDBRANCH  19  22
ENDBRANCH  17  18
ENDBRANCH   4  17
TORSDOF 7
ENDMDL
MODEL 7
REMARK VINA RESULT:    -7.328      2.323      3.238
REMARK INTER + INTRA:         -11.252
REMARK INTER:                 -10.303
REMARK INTRA:                  -0.949
REMARK UNBOUND:                -0.924
REMARK  Name = 
REMARK  7 active torsions:
REMARK  status: ('A' for Active; 'I' for Inactive)
REMARK    1  A    between atoms: C_2  and  C_3
REMARK    2  A    between atoms: C_6  and  O_7
REMARK    3  A    between atoms: O_7  and  C_8
REMARK    4  A    between atoms: C_8  and  C_9
REMARK    5  A    between atoms: C_12  and  C_13
REMARK    6  A    between atoms: C_13  and  N_14
REMARK    7  A    between atoms: C_15  and  C_17
REMARK                            x       y       z     vdW  Elec       q    Type
REMARK                         _______ _______ _______ _____ _____    ______ ____
ROOT
ATOM      1  C   UNL     1      44.765   5.107  12.031  0.00  0.00    +0.000 A 
ATOM      2  C   UNL     1      45.908   4.838  12.773  0.00  0.00    +0.000 A 
ATOM      3  C   UNL     1      46.688   5.901  13.221  0.00  0.00    +0.000 A 
ATOM      4  C   UNL     1      46.303   7.199  12.914  0.00  0.00    +0.000 A 
ATOM      5  N   UNL     1      45.201   7.430  12.165  0.00  0.00    +0.000 NA
ATOM      6  N   UNL     1      44.427   6.379  11.725  0.00  0.00    +0.000 NA
ENDROOT
BRANCH   1   7
ATOM      7  C   UNL     1      43.843   3.999  11.585  0.00  0.00    +0.000 C 
BRANCH   7   8
ATOM      8  O   UNL     1      43.573   4.095  10.184  0.00  0.00    +0.000 OA
BRANCH   8  12
ATOM      9  C   UNL     1      46.512   2.505   7.672  0.00  0.00    +0.000 A 
ATOM     10  C   UNL     1      46.294   3.888   7.658  0.00  0.00    +0.000 A 
ATOM     11  C   UNL     1      45.321   4.462   8.488  0.00  0.00    +0.000 A 
ATOM     12  C   UNL     1      44.554   3.659   9.335  0.00  0.00    +0.000 A 
ATOM     13  C   UNL     1      44.773   2.277   9.343  0.00  0.00    +0.000 A 
ATOM     14  C   UNL     1      45.746   1.701   8.518  0.00  0.00    +0.000 A 
BRANCH   9  16
ATOM     15  N   UNL     1      48.330   1.462   6.145  0.00  0.00    +0.000 NA
ATOM     16  C   UNL     1      47.517   1.926   6.830  0.00  0.00    +0.000 C 
ENDBRANCH   9  16
ENDBRANCH   8  12
ENDBRANCH   7   8
ENDBRANCH   1   7
BRANCH   4  17
ATOM     17  C   UNL     1      47.106   8.387  13.379  0.00  0.00    +0.000 C 
BRANCH  17  18
ATOM     18  N   UNL     1      47.426   8.300  14.787  0.00  0.00    +0.000 N 
ATOM     19  C   UNL     1      48.715   8.163  15.238  0.00  0.00    +0.000 C 
ATOM     20  O   UNL     1      49.679   8.189  14.479  0.00  0.00    +0.000 OA
ATOM     21  H   UNL     1      46.664   8.000  15.390  0.00  0.00    +0.000 HD
BRANCH  19  22
ATOM     22  C   UNL     1      48.888   8.066  16.693  0.00  0.00    +0.000 A 
ATOM     23  C   UNL     1      49.040   6.824  17.293  0.00  0.00    +0.000 A 
ATOM     24  S   UNL     1      49.272   6.904  18.982  0.00  0.00    +0.000 S 
ATOM     25  C   UNL     1      49.132   8.600  18.976  0.00  0.00    +0.000 A 
ATOM     26  N   UNL     1      49.210   9.316  20.130  0.00  0.00    +0.000 NA
ATOM     27  C   UNL     1      49.060  10.590  19.980  0.00  0.00    +0.000 A 
ATOM     28  N   UNL     1      48.846  11.214  18.777  0.00  0.00    +0.000 N 
ATOM     29  C   UNL     1      48.793  10.535  17.585  0.00  0.00    +0.000 A 
ATOM     30  O   UNL     1      48.658  11.124  16.517  0.00  0.00    +0.000 OA
ATOM     31  C   UNL     1      48.934   9.098  17.701  0.00  0.00    +0.000 A 
ATOM     32  H   UNL     1      48.755  12.218  18.723  0.00  0.00    +0.000 HD
ENDBRANCH  19  22
ENDBRANCH  17  18
ENDBRANCH   4  17
TORSDOF 7
ENDMDL
MODEL 8
REMARK VINA RESULT:    -6.926      3.616      8.959
REMARK INTER + INTRA:         -10.684
REMARK INTER:                  -9.837
REMARK INTRA:                  -0.847
REMARK UNBOUND:                -0.924
REMARK  Name = 
REMARK  7 active torsions:
REMARK  status: ('A' for Active; 'I' for Inactive)
REMARK    1  A    between atoms: C_2  and  C_3
REMARK    2  A    between atoms: C_6  and  O_7
REMARK    3  A    between atoms: O_7  and  C_8
REMARK    4  A    between atoms: C_8  and  C_9
REMARK    5  A    between atoms: C_12  and  C_13
REMARK    6  A    between atoms: C_13  and  N_14
REMARK    7  A    between atoms: C_15  and  C_17
REMARK                            x       y       z     vdW  Elec       q    Type
REMARK                         _______ _______ _______ _____ _____    ______ ____
ROOT
ATOM      1  C   UNL     1      48.841   5.843  16.808  0.00  0.00    +0.000 A 
ATOM      2  C   UNL     1      49.213   7.161  16.582  0.00  0.00    +0.000 A 
ATOM      3  C   UNL     1      49.027   7.708  15.314  0.00  0.00    +0.000 A 
ATOM      4  C   UNL     1      48.475   6.921  14.313  0.00  0.00    +0.000 A 
ATOM      5  N   UNL     1      48.149   5.631  14.554  0.00  0.00    +0.000 NA
ATOM      6  N   UNL     1      48.329   5.091  15.808  0.00  0.00    +0.000 NA
ENDROOT
BRANCH   1   7
ATOM      7  C   UNL     1      48.949   5.223  18.180  0.00  0.00    +0.000 C 
BRANCH   7   8
ATOM      8  O   UNL     1      50.316   5.149  18.598  0.00  0.00    +0.000 OA
BRANCH   8  12
ATOM      9  C   UNL     1      52.625   1.774  17.729  0.00  0.00    +0.000 A 
ATOM     10  C   UNL     1      51.277   1.782  17.348  0.00  0.00    +0.000 A 
ATOM     11  C   UNL     1      50.469   2.896  17.616  0.00  0.00    +0.000 A 
ATOM     12  C   UNL     1      50.999   4.009  18.272  0.00  0.00    +0.000 A 
ATOM     13  C   UNL     1      52.345   3.995  18.654  0.00  0.00    +0.000 A 
ATOM     14  C   UNL     1      53.155   2.886  18.385  0.00  0.00    +0.000 A 
BRANCH   9  16
ATOM     15  N   UNL     1      54.118  -0.281  17.207  0.00  0.00    +0.000 NA
ATOM     16  C   UNL     1      53.449   0.637  17.440  0.00  0.00    +0.000 C 
ENDBRANCH   9  16
ENDBRANCH   8  12
ENDBRANCH   7   8
ENDBRANCH   1   7
BRANCH   4  17
ATOM     17  C   UNL     1      48.245   7.464  12.925  0.00  0.00    +0.000 C 
BRANCH  17  18
ATOM     18  N   UNL     1      47.551   6.512  12.086  0.00  0.00    +0.000 N 
ATOM     19  C   UNL     1      46.202   6.589  11.852  0.00  0.00    +0.000 C 
ATOM     20  O   UNL     1      45.517   7.518  12.272  0.00  0.00    +0.000 OA
ATOM     21  H   UNL     1      48.016   5.615  11.966  0.00  0.00    +0.000 HD
BRANCH  19  22
ATOM     22  C   UNL     1      45.629   5.542  10.995  0.00  0.00    +0.000 A 
ATOM     23  C   UNL     1      45.757   5.628   9.616  0.00  0.00    +0.000 A 
ATOM     24  S   UNL     1      45.070   4.305   8.783  0.00  0.00    +0.000 S 
ATOM     25  C   UNL     1      44.540   3.596  10.235  0.00  0.00    +0.000 A 
ATOM     26  N   UNL     1      43.841   2.428  10.233  0.00  0.00    +0.000 NA
ATOM     27  C   UNL     1      43.479   2.019  11.403  0.00  0.00    +0.000 A 
ATOM     28  N   UNL     1      43.760   2.669  12.578  0.00  0.00    +0.000 N 
ATOM     29  C   UNL     1      44.490   3.832  12.630  0.00  0.00    +0.000 A 
ATOM     30  O   UNL     1      44.775   4.362  13.699  0.00  0.00    +0.000 OA
ATOM     31  C   UNL     1      44.901   4.345  11.339  0.00  0.00    +0.000 A 
ATOM     32  H   UNL     1      43.465   2.289  13.465  0.00  0.00    +0.000 HD
ENDBRANCH  19  22
ENDBRANCH  17  18
ENDBRANCH   4  17
TORSDOF 7
ENDMDL
MODEL 9
REMARK VINA RESULT:    -6.839      3.194      9.193
REMARK INTER + INTRA:         -10.563
REMARK INTER:                  -9.633
REMARK INTRA:                  -0.929
REMARK UNBOUND:                -0.924
REMARK  Name = 
REMARK  7 active torsions:
REMARK  status: ('A' for Active; 'I' for Inactive)
REMARK    1  A    between atoms: C_2  and  C_3
REMARK    2  A    between atoms: C_6  and  O_7
REMARK    3  A    between atoms: O_7  and  C_8
REMARK    4  A    between atoms: C_8  and  C_9
REMARK    5  A    between atoms: C_12  and  C_13
REMARK    6  A    between atoms: C_13  and  N_14
REMARK    7  A    between atoms: C_15  and  C_17
REMARK                            x       y       z     vdW  Elec       q    Type
REMARK                         _______ _______ _______ _____ _____    ______ ____
ROOT
ATOM      1  C   UNL     1      49.326   8.227  15.774  0.00  0.00    +0.000 A 
ATOM      2  C   UNL     1      49.958   7.441  14.819  0.00  0.00    +0.000 A 
ATOM      3  C   UNL     1      49.386   7.326  13.554  0.00  0.00    +0.000 A 
ATOM      4  C   UNL     1      48.204   8.000  13.283  0.00  0.00    +0.000 A 
ATOM      5  N   UNL     1      47.596   8.735  14.242  0.00  0.00    +0.000 NA
ATOM      6  N   UNL     1      48.162   8.851  15.492  0.00  0.00    +0.000 NA
ENDROOT
BRANCH   1   7
ATOM      7  C   UNL     1      49.940   8.447  17.136  0.00  0.00    +0.000 C 
BRANCH   7   8
ATOM      8  O   UNL     1      49.484   7.459  18.065  0.00  0.00    +0.000 OA
BRANCH   8  12
ATOM      9  C   UNL     1      50.713   3.498  17.546  0.00  0.00    +0.000 A 
ATOM     10  C   UNL     1      51.690   4.488  17.708  0.00  0.00    +0.000 A 
ATOM     11  C   UNL     1      51.320   5.828  17.890  0.00  0.00    +0.000 A 
ATOM     12  C   UNL     1      49.972   6.191  17.905  0.00  0.00    +0.000 A 
ATOM     13  C   UNL     1      48.999   5.198  17.739  0.00  0.00    +0.000 A 
ATOM     14  C   UNL     1      49.365   3.859  17.560  0.00  0.00    +0.000 A 
BRANCH   9  16
ATOM     15  N   UNL     1      51.412   1.019  17.238  0.00  0.00    +0.000 NA
ATOM     16  C   UNL     1      51.099   2.128  17.373  0.00  0.00    +0.000 C 
ENDBRANCH   9  16
ENDBRANCH   8  12
ENDBRANCH   7   8
ENDBRANCH   1   7
BRANCH   4  17
ATOM     17  C   UNL     1      47.546   7.917  11.929  0.00  0.00    +0.000 C 
BRANCH  17  18
ATOM     18  N   UNL     1      46.829   6.673  11.757  0.00  0.00    +0.000 N 
ATOM     19  C   UNL     1      45.476   6.633  11.530  0.00  0.00    +0.000 C 
ATOM     20  O   UNL     1      44.808   7.651  11.376  0.00  0.00    +0.000 OA
ATOM     21  H   UNL     1      47.282   5.850  12.146  0.00  0.00    +0.000 HD
BRANCH  19  22
ATOM     22  C   UNL     1      44.879   5.298  11.395  0.00  0.00    +0.000 A 
ATOM     23  C   UNL     1      44.156   4.752  12.446  0.00  0.00    +0.000 A 
ATOM     24  S   UNL     1      43.499   3.215  12.099  0.00  0.00    +0.000 S 
ATOM     25  C   UNL     1      44.198   3.207  10.547  0.00  0.00    +0.000 A 
ATOM     26  N   UNL     1      44.044   2.143   9.713  0.00  0.00    +0.000 NA
ATOM     27  C   UNL     1      44.649   2.262   8.579  0.00  0.00    +0.000 A 
ATOM     28  N   UNL     1      45.390   3.353   8.199  0.00  0.00    +0.000 N 
ATOM     29  C   UNL     1      45.544   4.461   8.995  0.00  0.00    +0.000 A 
ATOM     30  O   UNL     1      46.164   5.447   8.609  0.00  0.00    +0.000 OA
ATOM     31  C   UNL     1      44.901   4.369  10.291  0.00  0.00    +0.000 A 
ATOM     32  H   UNL     1      45.824   3.394   7.290  0.00  0.00    +0.000 HD
ENDBRANCH  19  22
ENDBRANCH  17  18
ENDBRANCH   4  17
TORSDOF 7
ENDMDL
