MODEL 1
REMARK VINA RESULT:    -8.423      0.000      0.000
REMARK INTER + INTRA:         -12.798
REMARK INTER:                 -11.624
REMARK INTRA:                  -1.174
REMARK UNBOUND:                -1.174
REMARK  Name = 
REMARK  7 active torsions:
REMARK  status: ('A' for Active; 'I' for Inactive)
REMARK    1  A    between atoms: C_2  and  C_19
REMARK    2  A    between atoms: N_3  and  C_4
REMARK    3  A    between atoms: C_4  and  C_5
REMARK    4  A    between atoms: C_8  and  C_9
REMARK    5  A    between atoms: C_9  and  O_10
REMARK    6  A    between atoms: C_9  and  C_11
REMARK    7  A    between atoms: C_11  and  C_12
REMARK                            x       y       z     vdW  Elec       q    Type
REMARK                         _______ _______ _______ _____ _____    ______ ____
ROOT
ATOM      1  C   UNL     1      46.421   7.692  12.857  0.00  0.00    +0.000 C 
ENDROOT
BRANCH   1   2
ATOM      2  C   UNL     1      45.721   6.636  12.049  0.00  0.00    +0.000 A 
ATOM      3  C   UNL     1      44.673   5.889  12.590  0.00  0.00    +0.000 A 
ATOM      4  C   UNL     1      44.093   4.856  11.851  0.00  0.00    +0.000 A 
ATOM      5  C   UNL     1      44.598   4.569  10.587  0.00  0.00    +0.000 A 
ATOM      6  N   UNL     1      45.600   5.301  10.022  0.00  0.00    +0.000 NA
ATOM      7  C   UNL     1      46.128   6.310  10.760  0.00  0.00    +0.000 A 
BRANCH   5   8
ATOM      8  C   UNL     1      44.119   3.341   9.816  0.00  0.00    +0.000 C 
BRANCH   8   9
ATOM      9  O   UNL     1      44.515   2.163  10.539  0.00  0.00    +0.000 OA
ATOM     10  H   UNL     1      45.493   2.146  10.467  0.00  0.00    +0.000 HD
ENDBRANCH   8   9
BRANCH   8  11
ATOM     11  C   UNL     1      44.703   3.262   8.404  0.00  0.00    +0.000 C 
BRANCH  11  12
ATOM     12  C   UNL     1      46.089   2.606   8.370  0.00  0.00    +0.000 C 
ATOM     13  C   UNL     1      46.836   2.900   7.076  0.00  0.00    +0.000 C 
ATOM     14  C   UNL     1      47.713   1.686   6.905  0.00  0.00    +0.000 C 
ATOM     15  C   UNL     1      46.875   0.578   7.505  0.00  0.00    +0.000 C 
ATOM     16  O   UNL     1      45.962   1.173   8.435  0.00  0.00    +0.000 OA
ENDBRANCH  11  12
ENDBRANCH   8  11
ENDBRANCH   5   8
ENDBRANCH   1   2
BRANCH   1  19
ATOM     17  O   UNL     1      49.020   6.647  13.098  0.00  0.00    +0.000 OA
ATOM     18  C   UNL     1      48.310   6.696  14.094  0.00  0.00    +0.000 C 
ATOM     19  N   UNL     1      47.004   7.141  14.062  0.00  0.00    +0.000 N 
ATOM     20  H   UNL     1      46.520   7.288  14.936  0.00  0.00    +0.000 HD
BRANCH  18  21
ATOM     21  C   UNL     1      48.772   6.243  15.409  0.00  0.00    +0.000 A 
ATOM     22  C   UNL     1      49.753   6.894  16.141  0.00  0.00    +0.000 A 
ATOM     23  S   UNL     1      50.004   6.211  17.688  0.00  0.00    +0.000 S 
ATOM     24  C   UNL     1      48.807   5.030  17.428  0.00  0.00    +0.000 A 
ATOM     25  N   UNL     1      48.491   4.122  18.389  0.00  0.00    +0.000 NA
ATOM     26  C   UNL     1      47.556   3.296  18.050  0.00  0.00    +0.000 A 
ATOM     27  N   UNL     1      46.922   3.287  16.833  0.00  0.00    +0.000 N 
ATOM     28  C   UNL     1      47.266   4.130  15.798  0.00  0.00    +0.000 A 
ATOM     29  O   UNL     1      46.806   3.965  14.674  0.00  0.00    +0.000 OA
ATOM     30  C   UNL     1      48.252   5.130  16.163  0.00  0.00    +0.000 A 
ATOM     31  H   UNL     1      46.242   2.576  16.610  0.00  0.00    +0.000 HD
ENDBRANCH  18  21
ENDBRANCH   1  19
TORSDOF 7
ENDMDL
MODEL 2
REMARK VINA RESULT:    -7.559      1.916      2.525
REMARK INTER + INTRA:         -11.606
REMARK INTER:                 -10.616
REMARK INTRA:                  -0.990
REMARK UNBOUND:                -1.174
REMARK  Name = 
REMARK  7 active torsions:
REMARK  status: ('A' for Active; 'I' for Inactive)
REMARK    1  A    between atoms: C_2  and  C_19
REMARK    2  A    between atoms: N_3  and  C_4
REMARK    3  A    between atoms: C_4  and  C_5
REMARK    4  A    between atoms: C_8  and  C_9
REMARK    5  A    between atoms: C_9  and  O_10
REMARK    6  A    between atoms: C_9  and  C_11
REMARK    7  A    between atoms: C_11  and  C_12
REMARK                            x       y       z     vdW  Elec       q    Type
REMARK                         _______ _______ _______ _____ _____    ______ ____
ROOT
ATOM      1  C   UNL     1      47.217   7.061  13.277  0.00  0.00    +0.000 C 
ENDROOT
BRANCH   1   2
ATOM      2  C   UNL     1      46.539   6.089  12.354  0.00  0.00    +0.000 A 
ATOM      3  C   UNL     1      46.323   6.401  11.009  0.00  0.00    +0.000 A 
ATOM      4  C   UNL     1      45.618   5.518  10.189  0.00  0.00    +0.000 A 
ATOM      5  C   UNL     1      45.111   4.346  10.742  0.00  0.00    +0.000 A 
ATOM      6  N   UNL     1      45.332   4.003  12.043  0.00  0.00    +0.000 NA
ATOM      7  C   UNL     1      46.039   4.874  12.808  0.00  0.00    +0.000 A 
BRANCH   5   8
ATOM      8  C   UNL     1      44.185   3.440   9.935  0.00  0.00    +0.000 C 
BRANCH   8   9
ATOM      9  O   UNL     1      44.116   2.160  10.585  0.00  0.00    +0.000 OA
ATOM     10  H   UNL     1      43.481   2.290  11.321  0.00  0.00    +0.000 HD
ENDBRANCH   8   9
BRANCH   8  11
ATOM     11  C   UNL     1      44.669   3.227   8.498  0.00  0.00    +0.000 C 
BRANCH  11  12
ATOM     12  C   UNL     1      46.054   2.571   8.429  0.00  0.00    +0.000 C 
ATOM     13  C   UNL     1      46.768   2.869   7.118  0.00  0.00    +0.000 C 
ATOM     14  C   UNL     1      47.641   1.656   6.922  0.00  0.00    +0.000 C 
ATOM     15  C   UNL     1      46.819   0.546   7.539  0.00  0.00    +0.000 C 
ATOM     16  O   UNL     1      45.928   1.138   8.493  0.00  0.00    +0.000 OA
ENDBRANCH  11  12
ENDBRANCH   8  11
ENDBRANCH   5   8
ENDBRANCH   1   2
BRANCH   1  19
ATOM     17  O   UNL     1      49.671   6.793  14.623  0.00  0.00    +0.000 OA
ATOM     18  C   UNL     1      48.644   6.455  15.198  0.00  0.00    +0.000 C 
ATOM     19  N   UNL     1      47.401   6.500  14.599  0.00  0.00    +0.000 N 
ATOM     20  H   UNL     1      46.582   6.343  15.169  0.00  0.00    +0.000 HD
BRANCH  18  21
ATOM     21  C   UNL     1      48.648   5.931  16.567  0.00  0.00    +0.000 A 
ATOM     22  C   UNL     1      48.756   4.582  16.868  0.00  0.00    +0.000 A 
ATOM     23  S   UNL     1      48.852   4.274  18.547  0.00  0.00    +0.000 S 
ATOM     24  C   UNL     1      48.759   5.932  18.919  0.00  0.00    +0.000 A 
ATOM     25  N   UNL     1      48.816   6.371  20.205  0.00  0.00    +0.000 NA
ATOM     26  C   UNL     1      48.744   7.656  20.329  0.00  0.00    +0.000 A 
ATOM     27  N   UNL     1      48.603   8.537  19.287  0.00  0.00    +0.000 N 
ATOM     28  C   UNL     1      48.454   8.135  17.976  0.00  0.00    +0.000 A 
ATOM     29  O   UNL     1      48.145   8.940  17.104  0.00  0.00    +0.000 OA
ATOM     30  C   UNL     1      48.615   6.707  17.781  0.00  0.00    +0.000 A 
ATOM     31  H   UNL     1      48.491   9.525  19.456  0.00  0.00    +0.000 HD
ENDBRANCH  18  21
ENDBRANCH   1  19
TORSDOF 7
ENDMDL
MODEL 3
REMARK VINA RESULT:    -7.215      2.941      3.779
REMARK INTER + INTRA:         -11.130
REMARK INTER:                 -10.128
REMARK INTRA:                  -1.002
REMARK UNBOUND:                -1.174
REMARK  Name = 
REMARK  7 active torsions:
REMARK  status: ('A' for Active; 'I' for Inactive)
REMARK    1  A    between atoms: C_2  and  C_19
REMARK    2  A    between atoms: N_3  and  C_4
REMARK    3  A    between atoms: C_4  and  C_5
REMARK    4  A    between atoms: C_8  and  C_9
REMARK    5  A    between atoms: C_9  and  O_10
REMARK    6  A    between atoms: C_9  and  C_11
REMARK    7  A    between atoms: C_11  and  C_12
REMARK                            x       y       z     vdW  Elec       q    Type
REMARK                         _______ _______ _______ _____ _____    ______ ____
ROOT
ATOM      1  C   UNL     1      47.059   4.291  15.973  0.00  0.00    +0.000 C 
ENDROOT
BRANCH   1   2
ATOM      2  C   UNL     1      46.771   4.597  14.530  0.00  0.00    +0.000 A 
ATOM      3  C   UNL     1      47.125   5.826  13.969  0.00  0.00    +0.000 A 
ATOM      4  C   UNL     1      46.774   6.122  12.650  0.00  0.00    +0.000 A 
ATOM      5  C   UNL     1      46.042   5.188  11.924  0.00  0.00    +0.000 A 
ATOM      6  N   UNL     1      45.708   3.970  12.437  0.00  0.00    +0.000 NA
ATOM      7  C   UNL     1      46.082   3.707  13.715  0.00  0.00    +0.000 A 
BRANCH   5   8
ATOM      8  C   UNL     1      45.483   5.536  10.547  0.00  0.00    +0.000 C 
BRANCH   8   9
ATOM      9  O   UNL     1      44.993   6.887  10.579  0.00  0.00    +0.000 OA
ATOM     10  H   UNL     1      45.798   7.444  10.535  0.00  0.00    +0.000 HD
ENDBRANCH   8   9
BRANCH   8  11
ATOM     11  C   UNL     1      44.336   4.615  10.122  0.00  0.00    +0.000 C 
BRANCH  11  12
ATOM     12  C   UNL     1      44.632   3.860   8.820  0.00  0.00    +0.000 C 
ATOM     13  C   UNL     1      45.274   2.503   9.072  0.00  0.00    +0.000 C 
ATOM     14  C   UNL     1      46.112   2.286   7.839  0.00  0.00    +0.000 C 
ATOM     15  C   UNL     1      46.536   3.691   7.470  0.00  0.00    +0.000 C 
ATOM     16  O   UNL     1      45.574   4.599   8.021  0.00  0.00    +0.000 OA
ENDBRANCH  11  12
ENDBRANCH   8  11
ENDBRANCH   5   8
ENDBRANCH   1   2
BRANCH   1  19
ATOM     17  O   UNL     1      48.323   5.021  18.376  0.00  0.00    +0.000 OA
ATOM     18  C   UNL     1      49.005   4.571  17.464  0.00  0.00    +0.000 C 
ATOM     19  N   UNL     1      48.482   4.236  16.232  0.00  0.00    +0.000 N 
ATOM     20  H   UNL     1      49.067   3.741  15.574  0.00  0.00    +0.000 HD
BRANCH  18  21
ATOM     21  C   UNL     1      50.454   4.385  17.587  0.00  0.00    +0.000 A 
ATOM     22  C   UNL     1      51.335   5.417  17.873  0.00  0.00    +0.000 A 
ATOM     23  S   UNL     1      52.948   4.887  18.074  0.00  0.00    +0.000 S 
ATOM     24  C   UNL     1      52.516   3.266  17.791  0.00  0.00    +0.000 A 
ATOM     25  N   UNL     1      53.440   2.270  17.845  0.00  0.00    +0.000 NA
ATOM     26  C   UNL     1      52.960   1.090  17.620  0.00  0.00    +0.000 A 
ATOM     27  N   UNL     1      51.647   0.821  17.330  0.00  0.00    +0.000 N 
ATOM     28  C   UNL     1      50.692   1.805  17.179  0.00  0.00    +0.000 A 
ATOM     29  O   UNL     1      49.579   1.537  16.739  0.00  0.00    +0.000 OA
ATOM     30  C   UNL     1      51.167   3.135  17.507  0.00  0.00    +0.000 A 
ATOM     31  H   UNL     1      51.348  -0.115  17.103  0.00  0.00    +0.000 HD
ENDBRANCH  18  21
ENDBRANCH   1  19
TORSDOF 7
ENDMDL
MODEL 4
REMARK VINA RESULT:    -7.053      2.626      4.225
REMARK INTER + INTRA:         -10.907
REMARK INTER:                  -9.540
REMARK INTRA:                  -1.367
REMARK UNBOUND:                -1.174
REMARK  Name = 
REMARK  7 active torsions:
REMARK  status: ('A' for Active; 'I' for Inactive)
REMARK    1  A    between atoms: C_2  and  C_19
REMARK    2  A    between atoms: N_3  and  C_4
REMARK    3  A    between atoms: C_4  and  C_5
REMARK    4  A    between atoms: C_8  and  C_9
REMARK    5  A    between atoms: C_9  and  O_10
REMARK    6  A    between atoms: C_9  and  C_11
REMARK    7  A    between atoms: C_11  and  C_12
REMARK                            x       y       z     vdW  Elec       q    Type
REMARK                         _______ _______ _______ _____ _____    ______ ____
ROOT
ATOM      1  C   UNL     1      47.034   5.368  14.411  0.00  0.00    +0.000 C 
ENDROOT
BRANCH   1   2
ATOM      2  C   UNL     1      46.396   4.940  13.120  0.00  0.00    +0.000 A 
ATOM      3  C   UNL     1      46.146   5.860  12.099  0.00  0.00    +0.000 A 
ATOM      4  C   UNL     1      45.476   5.458  10.941  0.00  0.00    +0.000 A 
ATOM      5  C   UNL     1      45.040   4.140  10.841  0.00  0.00    +0.000 A 
ATOM      6  N   UNL     1      45.297   3.215  11.809  0.00  0.00    +0.000 NA
ATOM      7  C   UNL     1      45.967   3.635  12.912  0.00  0.00    +0.000 A 
BRANCH   5   8
ATOM      8  C   UNL     1      44.152   3.699   9.680  0.00  0.00    +0.000 C 
BRANCH   8   9
ATOM      9  O   UNL     1      43.768   2.330   9.891  0.00  0.00    +0.000 OA
ATOM     10  H   UNL     1      43.859   1.909   9.011  0.00  0.00    +0.000 HD
ENDBRANCH   8   9
BRANCH   8  11
ATOM     11  C   UNL     1      44.855   3.801   8.324  0.00  0.00    +0.000 C 
BRANCH  11  12
ATOM     12  C   UNL     1      46.194   3.053   8.292  0.00  0.00    +0.000 C 
ATOM     13  C   UNL     1      46.894   3.180   6.946  0.00  0.00    +0.000 C 
ATOM     14  C   UNL     1      47.684   1.901   6.850  0.00  0.00    +0.000 C 
ATOM     15  C   UNL     1      46.810   0.909   7.584  0.00  0.00    +0.000 C 
ATOM     16  O   UNL     1      45.981   1.644   8.494  0.00  0.00    +0.000 OA
ENDBRANCH  11  12
ENDBRANCH   8  11
ENDBRANCH   5   8
ENDBRANCH   1   2
BRANCH   1  19
ATOM     17  O   UNL     1      49.480   6.288  15.450  0.00  0.00    +0.000 OA
ATOM     18  C   UNL     1      48.769   7.072  14.835  0.00  0.00    +0.000 C 
ATOM     19  N   UNL     1      47.529   6.727  14.336  0.00  0.00    +0.000 N 
ATOM     20  H   UNL     1      47.056   7.373  13.721  0.00  0.00    +0.000 HD
BRANCH  18  21
ATOM     21  C   UNL     1      49.154   8.469  14.609  0.00  0.00    +0.000 A 
ATOM     22  C   UNL     1      49.177   9.427  15.611  0.00  0.00    +0.000 A 
ATOM     23  S   UNL     1      49.779  10.937  15.083  0.00  0.00    +0.000 S 
ATOM     24  C   UNL     1      50.031  10.354  13.505  0.00  0.00    +0.000 A 
ATOM     25  N   UNL     1      50.565  11.146  12.537  0.00  0.00    +0.000 NA
ATOM     26  C   UNL     1      50.707  10.561  11.392  0.00  0.00    +0.000 A 
ATOM     27  N   UNL     1      50.348   9.264  11.126  0.00  0.00    +0.000 N 
ATOM     28  C   UNL     1      49.725   8.450  12.049  0.00  0.00    +0.000 A 
ATOM     29  O   UNL     1      49.255   7.368  11.716  0.00  0.00    +0.000 OA
ATOM     30  C   UNL     1      49.624   9.037  13.371  0.00  0.00    +0.000 A 
ATOM     31  H   UNL     1      50.428   8.886  10.194  0.00  0.00    +0.000 HD
ENDBRANCH  18  21
ENDBRANCH   1  19
TORSDOF 7
ENDMDL
MODEL 5
REMARK VINA RESULT:    -6.979      2.784      3.510
REMARK INTER + INTRA:         -10.805
REMARK INTER:                  -9.812
REMARK INTRA:                  -0.993
REMARK UNBOUND:                -1.174
REMARK  Name = 
REMARK  7 active torsions:
REMARK  status: ('A' for Active; 'I' for Inactive)
REMARK    1  A    between atoms: C_2  and  C_19
REMARK    2  A    between atoms: N_3  and  C_4
REMARK    3  A    between atoms: C_4  and  C_5
REMARK    4  A    between atoms: C_8  and  C_9
REMARK    5  A    between atoms: C_9  and  O_10
REMARK    6  A    between atoms: C_9  and  C_11
REMARK    7  A    between atoms: C_11  and  C_12
REMARK                            x       y       z     vdW  Elec       q    Type
REMARK                         _______ _______ _______ _____ _____    ______ ____
ROOT
ATOM      1  C   UNL     1      47.231   4.414  15.275  0.00  0.00    +0.000 C 
ENDROOT
BRANCH   1   2
ATOM      2  C   UNL     1      46.642   4.509  13.896  0.00  0.00    +0.000 A 
ATOM      3  C   UNL     1      46.580   5.729  13.219  0.00  0.00    +0.000 A 
ATOM      4  C   UNL     1      45.953   5.810  11.974  0.00  0.00    +0.000 A 
ATOM      5  C   UNL     1      45.368   4.666  11.441  0.00  0.00    +0.000 A 
ATOM      6  N   UNL     1      45.439   3.456  12.066  0.00  0.00    +0.000 NA
ATOM      7  C   UNL     1      46.073   3.408  13.265  0.00  0.00    +0.000 A 
BRANCH   5   8
ATOM      8  C   UNL     1      44.521   4.742  10.174  0.00  0.00    +0.000 C 
BRANCH   8   9
ATOM      9  O   UNL     1      43.303   5.442  10.478  0.00  0.00    +0.000 OA
ATOM     10  H   UNL     1      43.596   6.304  10.841  0.00  0.00    +0.000 HD
ENDBRANCH   8   9
BRANCH   8  11
ATOM     11  C   UNL     1      44.159   3.362   9.618  0.00  0.00    +0.000 C 
BRANCH  11  12
ATOM     12  C   UNL     1      44.834   3.068   8.273  0.00  0.00    +0.000 C 
ATOM     13  C   UNL     1      45.883   1.970   8.380  0.00  0.00    +0.000 C 
ATOM     14  C   UNL     1      46.866   2.329   7.296  0.00  0.00    +0.000 C 
ATOM     15  C   UNL     1      46.804   3.840   7.272  0.00  0.00    +0.000 C 
ATOM     16  O   UNL     1      45.533   4.236   7.802  0.00  0.00    +0.000 OA
ENDBRANCH  11  12
ENDBRANCH   8  11
ENDBRANCH   5   8
ENDBRANCH   1   2
BRANCH   1  19
ATOM     17  O   UNL     1      49.652   4.967  16.595  0.00  0.00    +0.000 OA
ATOM     18  C   UNL     1      48.885   5.892  16.358  0.00  0.00    +0.000 C 
ATOM     19  N   UNL     1      47.653   5.710  15.764  0.00  0.00    +0.000 N 
ATOM     20  H   UNL     1      47.131   6.523  15.470  0.00  0.00    +0.000 HD
BRANCH  18  21
ATOM     21  C   UNL     1      49.191   7.277  16.725  0.00  0.00    +0.000 A 
ATOM     22  C   UNL     1      50.084   8.074  16.025  0.00  0.00    +0.000 A 
ATOM     23  S   UNL     1      50.153   9.680  16.608  0.00  0.00    +0.000 S 
ATOM     24  C   UNL     1      48.989   9.359  17.806  0.00  0.00    +0.000 A 
ATOM     25  N   UNL     1      48.561  10.334  18.653  0.00  0.00    +0.000 NA
ATOM     26  C   UNL     1      47.666   9.943  19.501  0.00  0.00    +0.000 A 
ATOM     27  N   UNL     1      47.177   8.665  19.590  0.00  0.00    +0.000 N 
ATOM     28  C   UNL     1      47.642   7.624  18.813  0.00  0.00    +0.000 A 
ATOM     29  O   UNL     1      47.312   6.467  19.051  0.00  0.00    +0.000 OA
ATOM     30  C   UNL     1      48.583   8.036  17.789  0.00  0.00    +0.000 A 
ATOM     31  H   UNL     1      46.524   8.410  20.316  0.00  0.00    +0.000 HD
ENDBRANCH  18  21
ENDBRANCH   1  19
TORSDOF 7
ENDMDL
MODEL 6
REMARK VINA RESULT:    -6.697      3.016      3.941
REMARK INTER + INTRA:         -10.415
REMARK INTER:                  -9.313
REMARK INTRA:                  -1.102
REMARK UNBOUND:                -1.174
REMARK  Name = 
REMARK  7 active torsions:
REMARK  status: ('A' for Active; 'I' for Inactive)
REMARK    1  A    between atoms: C_2  and  C_19
REMARK    2  A    between atoms: N_3  and  C_4
REMARK    3  A    between atoms: C_4  and  C_5
REMARK    4  A    between atoms: C_8  and  C_9
REMARK    5  A    between atoms: C_9  and  O_10
REMARK    6  A    between atoms: C_9  and  C_11
REMARK    7  A    between atoms: C_11  and  C_12
REMARK                            x       y       z     vdW  Elec       q    Type
REMARK                         _______ _______ _______ _____ _____    ______ ____
ROOT
ATOM      1  C   UNL     1      46.864   6.787  13.359  0.00  0.00    +0.000 C 
ENDROOT
BRANCH   1   2
ATOM      2  C   UNL     1      46.276   5.858  12.334  0.00  0.00    +0.000 A 
ATOM      3  C   UNL     1      46.047   6.282  11.023  0.00  0.00    +0.000 A 
ATOM      4  C   UNL     1      45.423   5.430  10.109  0.00  0.00    +0.000 A 
ATOM      5  C   UNL     1      45.010   4.173  10.538  0.00  0.00    +0.000 A 
ATOM      6  N   UNL     1      45.246   3.723  11.803  0.00  0.00    +0.000 NA
ATOM      7  C   UNL     1      45.873   4.569  12.660  0.00  0.00    +0.000 A 
BRANCH   5   8
ATOM      8  C   UNL     1      44.168   3.278   9.631  0.00  0.00    +0.000 C 
BRANCH   8   9
ATOM      9  O   UNL     1      44.257   1.926  10.111  0.00  0.00    +0.000 OA
ATOM     10  H   UNL     1      43.529   1.845  10.762  0.00  0.00    +0.000 HD
ENDBRANCH   8   9
BRANCH   8  11
ATOM     11  C   UNL     1      44.633   3.306   8.173  0.00  0.00    +0.000 C 
BRANCH  11  12
ATOM     12  C   UNL     1      46.110   2.924   8.015  0.00  0.00    +0.000 C 
ATOM     13  C   UNL     1      46.623   3.174   6.603  0.00  0.00    +0.000 C 
ATOM     14  C   UNL     1      47.703   2.136   6.442  0.00  0.00    +0.000 C 
ATOM     15  C   UNL     1      47.187   0.982   7.274  0.00  0.00    +0.000 C 
ATOM     16  O   UNL     1      46.288   1.515   8.254  0.00  0.00    +0.000 OA
ENDBRANCH  11  12
ENDBRANCH   8  11
ENDBRANCH   5   8
ENDBRANCH   1   2
BRANCH   1  19
ATOM     17  O   UNL     1      47.988   9.232  12.542  0.00  0.00    +0.000 OA
ATOM     18  C   UNL     1      48.732   8.285  12.759  0.00  0.00    +0.000 C 
ATOM     19  N   UNL     1      48.269   7.033  13.111  0.00  0.00    +0.000 N 
ATOM     20  H   UNL     1      48.935   6.336  13.411  0.00  0.00    +0.000 HD
BRANCH  18  21
ATOM     21  C   UNL     1      50.188   8.385  12.623  0.00  0.00    +0.000 A 
ATOM     22  C   UNL     1      50.826   8.672  11.425  0.00  0.00    +0.000 A 
ATOM     23  S   UNL     1      52.519   8.843  11.589  0.00  0.00    +0.000 S 
ATOM     24  C   UNL     1      52.449   8.545  13.262  0.00  0.00    +0.000 A 
ATOM     25  N   UNL     1      53.570   8.572  14.031  0.00  0.00    +0.000 NA
ATOM     26  C   UNL     1      53.358   8.338  15.285  0.00  0.00    +0.000 A 
ATOM     27  N   UNL     1      52.131   8.062  15.834  0.00  0.00    +0.000 N 
ATOM     28  C   UNL     1      50.981   7.938  15.083  0.00  0.00    +0.000 A 
ATOM     29  O   UNL     1      49.947   7.511  15.584  0.00  0.00    +0.000 OA
ATOM     30  C   UNL     1      51.157   8.278  13.684  0.00  0.00    +0.000 A 
ATOM     31  H   UNL     1      52.042   7.827  16.811  0.00  0.00    +0.000 HD
ENDBRANCH  18  21
ENDBRANCH   1  19
TORSDOF 7
ENDMDL
MODEL 7
REMARK VINA RESULT:    -6.689      3.852      8.710
REMARK INTER + INTRA:         -10.405
REMARK INTER:                  -9.481
REMARK INTRA:                  -0.924
REMARK UNBOUND:                -1.174
REMARK  Name = 
REMARK  7 active torsions:
REMARK  status: ('A' for Active; 'I' for Inactive)
REMARK    1  A    between atoms: C_2  and  C_19
REMARK    2  A    between atoms: N_3  and  C_4
REMARK    3  A    between atoms: C_4  and  C_5
REMARK    4  A    between atoms: C_8  and  C_9
REMARK    5  A    between atoms: C_9  and  O_10
REMARK    6  A    between atoms: C_9  and  C_11
REMARK    7  A    between atoms: C_11  and  C_12
REMARK                            x       y       z     vdW  Elec       q    Type
REMARK                         _______ _______ _______ _____ _____    ______ ____
ROOT
ATOM      1  C   UNL     1      47.144   3.420  16.778  0.00  0.00    +0.000 C 
ENDROOT
BRANCH   1   2
ATOM      2  C   UNL     1      48.628   3.276  16.966  0.00  0.00    +0.000 A 
ATOM      3  C   UNL     1      49.272   2.062  16.717  0.00  0.00    +0.000 A 
ATOM      4  C   UNL     1      50.637   1.925  16.978  0.00  0.00    +0.000 A 
ATOM      5  C   UNL     1      51.329   3.006  17.515  0.00  0.00    +0.000 A 
ATOM      6  N   UNL     1      50.732   4.211  17.740  0.00  0.00    +0.000 NA
ATOM      7  C   UNL     1      49.408   4.315  17.457  0.00  0.00    +0.000 A 
BRANCH   5   8
ATOM      8  C   UNL     1      52.774   2.852  17.981  0.00  0.00    +0.000 C 
BRANCH   8   9
ATOM      9  O   UNL     1      52.868   1.676  18.804  0.00  0.00    +0.000 OA
ATOM     10  H   UNL     1      52.771   2.007  19.721  0.00  0.00    +0.000 HD
ENDBRANCH   8   9
BRANCH   8  11
ATOM     11  C   UNL     1      53.267   4.051  18.795  0.00  0.00    +0.000 C 
BRANCH  11  12
ATOM     12  C   UNL     1      54.404   4.812  18.101  0.00  0.00    +0.000 C 
ATOM     13  C   UNL     1      53.896   5.722  16.991  0.00  0.00    +0.000 C 
ATOM     14  C   UNL     1      55.055   5.765  16.028  0.00  0.00    +0.000 C 
ATOM     15  C   UNL     1      55.668   4.390  16.177  0.00  0.00    +0.000 C 
ATOM     16  O   UNL     1      55.308   3.887  17.471  0.00  0.00    +0.000 OA
ENDBRANCH  11  12
ENDBRANCH   8  11
ENDBRANCH   5   8
ENDBRANCH   1   2
BRANCH   1  19
ATOM     17  O   UNL     1      47.163   3.156  13.979  0.00  0.00    +0.000 OA
ATOM     18  C   UNL     1      46.816   4.224  14.468  0.00  0.00    +0.000 C 
ATOM     19  N   UNL     1      46.826   4.464  15.827  0.00  0.00    +0.000 N 
ATOM     20  H   UNL     1      46.397   5.310  16.173  0.00  0.00    +0.000 HD
BRANCH  18  21
ATOM     21  C   UNL     1      46.396   5.362  13.646  0.00  0.00    +0.000 A 
ATOM     22  C   UNL     1      47.201   6.464  13.398  0.00  0.00    +0.000 A 
ATOM     23  S   UNL     1      46.497   7.581  12.312  0.00  0.00    +0.000 S 
ATOM     24  C   UNL     1      45.102   6.623  12.136  0.00  0.00    +0.000 A 
ATOM     25  N   UNL     1      44.090   6.996  11.307  0.00  0.00    +0.000 NA
ATOM     26  C   UNL     1      43.102   6.163  11.270  0.00  0.00    +0.000 A 
ATOM     27  N   UNL     1      43.028   5.003  11.999  0.00  0.00    +0.000 N 
ATOM     28  C   UNL     1      43.987   4.626  12.916  0.00  0.00    +0.000 A 
ATOM     29  O   UNL     1      43.793   3.684  13.676  0.00  0.00    +0.000 OA
ATOM     30  C   UNL     1      45.154   5.488  12.927  0.00  0.00    +0.000 A 
ATOM     31  H   UNL     1      42.200   4.426  11.970  0.00  0.00    +0.000 HD
ENDBRANCH  18  21
ENDBRANCH   1  19
TORSDOF 7
ENDMDL
MODEL 8
REMARK VINA RESULT:    -6.681      4.260      8.757
REMARK INTER + INTRA:         -10.393
REMARK INTER:                  -9.431
REMARK INTRA:                  -0.962
REMARK UNBOUND:                -1.174
REMARK  Name = 
REMARK  7 active torsions:
REMARK  status: ('A' for Active; 'I' for Inactive)
REMARK    1  A    between atoms: C_2  and  C_19
REMARK    2  A    between atoms: N_3  and  C_4
REMARK    3  A    between atoms: C_4  and  C_5
REMARK    4  A    between atoms: C_8  and  C_9
REMARK    5  A    between atoms: C_9  and  O_10
REMARK    6  A    between atoms: C_9  and  C_11
REMARK    7  A    between atoms: C_11  and  C_12
REMARK                            x       y       z     vdW  Elec       q    Type
REMARK                         _______ _______ _______ _____ _____    ______ ____
ROOT
ATOM      1  C   UNL     1      47.164   3.380  16.713  0.00  0.00    +0.000 C 
ENDROOT
BRANCH   1   2
ATOM      2  C   UNL     1      48.613   3.433  17.104  0.00  0.00    +0.000 A 
ATOM      3  C   UNL     1      49.451   2.330  16.922  0.00  0.00    +0.000 A 
ATOM      4  C   UNL     1      50.773   2.372  17.370  0.00  0.00    +0.000 A 
ATOM      5  C   UNL     1      51.225   3.514  18.023  0.00  0.00    +0.000 A 
ATOM      6  N   UNL     1      50.438   4.616  18.188  0.00  0.00    +0.000 NA
ATOM      7  C   UNL     1      49.164   4.548  17.723  0.00  0.00    +0.000 A 
BRANCH   5   8
ATOM      8  C   UNL     1      52.600   3.541  18.685  0.00  0.00    +0.000 C 
BRANCH   8   9
ATOM      9  O   UNL     1      52.799   4.836  19.277  0.00  0.00    +0.000 OA
ATOM     10  H   UNL     1      53.636   4.752  19.781  0.00  0.00    +0.000 HD
ENDBRANCH   8   9
BRANCH   8  11
ATOM     11  C   UNL     1      53.740   3.280  17.697  0.00  0.00    +0.000 C 
BRANCH  11  12
ATOM     12  C   UNL     1      54.524   2.002  18.018  0.00  0.00    +0.000 C 
ATOM     13  C   UNL     1      54.970   1.266  16.762  0.00  0.00    +0.000 C 
ATOM     14  C   UNL     1      55.014  -0.173  17.206  0.00  0.00    +0.000 C 
ATOM     15  C   UNL     1      53.900  -0.244  18.227  0.00  0.00    +0.000 C 
ATOM     16  O   UNL     1      53.691   1.077  18.742  0.00  0.00    +0.000 OA
ENDBRANCH  11  12
ENDBRANCH   8  11
ENDBRANCH   5   8
ENDBRANCH   1   2
BRANCH   1  19
ATOM     17  O   UNL     1      47.233   3.194  13.908  0.00  0.00    +0.000 OA
ATOM     18  C   UNL     1      46.841   4.235  14.420  0.00  0.00    +0.000 C 
ATOM     19  N   UNL     1      46.823   4.438  15.785  0.00  0.00    +0.000 N 
ATOM     20  H   UNL     1      46.360   5.259  16.147  0.00  0.00    +0.000 HD
BRANCH  18  21
ATOM     21  C   UNL     1      46.394   5.381  13.623  0.00  0.00    +0.000 A 
ATOM     22  C   UNL     1      47.172   6.506  13.398  0.00  0.00    +0.000 A 
ATOM     23  S   UNL     1      46.441   7.628  12.336  0.00  0.00    +0.000 S 
ATOM     24  C   UNL     1      45.068   6.643  12.142  0.00  0.00    +0.000 A 
ATOM     25  N   UNL     1      44.046   7.010  11.322  0.00  0.00    +0.000 NA
ATOM     26  C   UNL     1      43.078   6.154  11.268  0.00  0.00    +0.000 A 
ATOM     27  N   UNL     1      43.032   4.978  11.972  0.00  0.00    +0.000 N 
ATOM     28  C   UNL     1      44.001   4.604  12.880  0.00  0.00    +0.000 A 
ATOM     29  O   UNL     1      43.831   3.642  13.620  0.00  0.00    +0.000 OA
ATOM     30  C   UNL     1      45.148   5.492  12.908  0.00  0.00    +0.000 A 
ATOM     31  H   UNL     1      42.219   4.383  11.933  0.00  0.00    +0.000 HD
ENDBRANCH  18  21
ENDBRANCH   1  19
TORSDOF 7
ENDMDL
MODEL 9
REMARK VINA RESULT:    -6.662      1.985      2.539
REMARK INTER + INTRA:         -10.367
REMARK INTER:                  -9.142
REMARK INTRA:                  -1.225
REMARK UNBOUND:                -1.174
REMARK  Name = 
REMARK  7 active torsions:
REMARK  status: ('A' for Active; 'I' for Inactive)
REMARK    1  A    between atoms: C_2  and  C_19
REMARK    2  A    between atoms: N_3  and  C_4
REMARK    3  A    between atoms: C_4  and  C_5
REMARK    4  A    between atoms: C_8  and  C_9
REMARK    5  A    between atoms: C_9  and  O_10
REMARK    6  A    between atoms: C_9  and  C_11
REMARK    7  A    between atoms: C_11  and  C_12
REMARK                            x       y       z     vdW  Elec       q    Type
REMARK                         _______ _______ _______ _____ _____    ______ ____
ROOT
ATOM      1  C   UNL     1      47.298   8.271  13.496  0.00  0.00    +0.000 C 
ENDROOT
BRANCH   1   2
ATOM      2  C   UNL     1      46.460   7.142  12.966  0.00  0.00    +0.000 A 
ATOM      3  C   UNL     1      45.249   7.385  12.315  0.00  0.00    +0.000 A 
ATOM      4  C   UNL     1      44.446   6.319  11.905  0.00  0.00    +0.000 A 
ATOM      5  C   UNL     1      44.859   5.021  12.186  0.00  0.00    +0.000 A 
ATOM      6  N   UNL     1      46.050   4.753  12.794  0.00  0.00    +0.000 NA
ATOM      7  C   UNL     1      46.815   5.812  13.161  0.00  0.00    +0.000 A 
BRANCH   5   8
ATOM      8  C   UNL     1      43.937   3.834  11.919  0.00  0.00    +0.000 C 
BRANCH   8   9
ATOM      9  O   UNL     1      44.508   2.663  12.526  0.00  0.00    +0.000 OA
ATOM     10  H   UNL     1      44.274   2.737  13.475  0.00  0.00    +0.000 HD
ENDBRANCH   8   9
BRANCH   8  11
ATOM     11  C   UNL     1      43.742   3.558  10.426  0.00  0.00    +0.000 C 
BRANCH  11  12
ATOM     12  C   UNL     1      45.068   3.471   9.660  0.00  0.00    +0.000 C 
ATOM     13  C   UNL     1      44.954   4.018   8.244  0.00  0.00    +0.000 C 
ATOM     14  C   UNL     1      45.986   3.223   7.486  0.00  0.00    +0.000 C 
ATOM     15  C   UNL     1      45.963   1.884   8.190  0.00  0.00    +0.000 C 
ATOM     16  O   UNL     1      45.472   2.096   9.520  0.00  0.00    +0.000 OA
ENDBRANCH  11  12
ENDBRANCH   8  11
ENDBRANCH   5   8
ENDBRANCH   1   2
BRANCH   1  19
ATOM     17  O   UNL     1      48.651   9.279  15.746  0.00  0.00    +0.000 OA
ATOM     18  C   UNL     1      49.133   8.327  15.146  0.00  0.00    +0.000 C 
ATOM     19  N   UNL     1      48.570   7.799  14.001  0.00  0.00    +0.000 N 
ATOM     20  H   UNL     1      48.936   6.932  13.636  0.00  0.00    +0.000 HD
BRANCH  18  21
ATOM     21  C   UNL     1      50.382   7.685  15.567  0.00  0.00    +0.000 A 
ATOM     22  C   UNL     1      51.636   8.228  15.334  0.00  0.00    +0.000 A 
ATOM     23  S   UNL     1      52.902   7.322  16.041  0.00  0.00    +0.000 S 
ATOM     24  C   UNL     1      51.812   6.184  16.683  0.00  0.00    +0.000 A 
ATOM     25  N   UNL     1      52.247   5.139  17.438  0.00  0.00    +0.000 NA
ATOM     26  C   UNL     1      51.302   4.366  17.864  0.00  0.00    +0.000 A 
ATOM     27  N   UNL     1      49.968   4.534  17.590  0.00  0.00    +0.000 N 
ATOM     28  C   UNL     1      49.489   5.526  16.760  0.00  0.00    +0.000 A 
ATOM     29  O   UNL     1      48.319   5.528  16.395  0.00  0.00    +0.000 OA
ATOM     30  C   UNL     1      50.504   6.468  16.329  0.00  0.00    +0.000 A 
ATOM     31  H   UNL     1      49.286   3.860  17.903  0.00  0.00    +0.000 HD
ENDBRANCH  18  21
ENDBRANCH   1  19
TORSDOF 7
ENDMDL
