MODEL 1
REMARK VINA RESULT:    -7.648      0.000      0.000
REMARK INTER + INTRA:         -11.027
REMARK INTER:                 -10.331
REMARK INTRA:                  -0.696
REMARK UNBOUND:                -0.696
REMARK  Name = 
REMARK  7 active torsions:
REMARK  status: ('A' for Active; 'I' for Inactive)
REMARK    1  A    between atoms: C_1  and  C_2
REMARK    2  A    between atoms: C_2  and  C_3
REMARK    3  A    between atoms: C_2  and  C_14
REMARK    4  A    between atoms: C_3  and  O_4
REMARK    5  A    between atoms: O_4  and  C_5
REMARK    6  A    between atoms: C_8  and  C_9
REMARK    7  A    between atoms: C_18  and  C_19
REMARK                            x       y       z     vdW  Elec       q    Type
REMARK                         _______ _______ _______ _____ _____    ______ ____
ROOT
ATOM      1  O   UNL     1      43.430   3.270  10.250  0.00  0.00    +0.000 OA
ENDROOT
BRANCH   1   2
ATOM      2  C   UNL     1      44.435   3.031   9.329  0.00  0.00    +0.000 A 
ATOM      3  C   UNL     1      44.834   4.057   8.477  0.00  0.00    +0.000 A 
ATOM      4  N   UNL     1      45.819   3.906   7.546  0.00  0.00    +0.000 NA
ATOM      5  C   UNL     1      46.387   2.665   7.516  0.00  0.00    +0.000 A 
ATOM      6  C   UNL     1      45.992   1.644   8.365  0.00  0.00    +0.000 A 
ATOM      7  N   UNL     1      45.012   1.807   9.284  0.00  0.00    +0.000 NA
BRANCH   5   8
ATOM      8  C   UNL     1      47.471   2.392   6.532  0.00  0.00    +0.000 C 
ATOM      9  N   UNL     1      47.507   3.202   5.431  0.00  0.00    +0.000 N 
ATOM     10  O   UNL     1      48.284   1.492   6.696  0.00  0.00    +0.000 OA
ATOM     11  H   UNL     1      46.821   3.936   5.312  0.00  0.00    +0.000 HD
ATOM     12  H   UNL     1      48.220   3.046   4.731  0.00  0.00    +0.000 HD
ENDBRANCH   5   8
ENDBRANCH   1   2
BRANCH   1  13
ATOM     13  C   UNL     1      43.920   3.078  11.584  0.00  0.00    +0.000 C 
BRANCH  13  15
ATOM     14  C   UNL     1      42.761   5.258  12.295  0.00  0.00    +0.000 C 
ATOM     15  C   UNL     1      43.968   4.366  12.366  0.00  0.00    +0.000 C 
BRANCH  15  16
ATOM     16  C   UNL     1      45.283   5.036  12.538  0.00  0.00    +0.000 A 
ATOM     17  C   UNL     1      45.777   5.934  11.577  0.00  0.00    +0.000 A 
ATOM     18  C   UNL     1      46.960   6.645  11.789  0.00  0.00    +0.000 A 
ATOM     19  C   UNL     1      47.677   6.467  12.969  0.00  0.00    +0.000 A 
ATOM     20  C   UNL     1      47.221   5.556  13.925  0.00  0.00    +0.000 A 
ATOM     21  C   UNL     1      46.039   4.836  13.702  0.00  0.00    +0.000 A 
BRANCH  20  22
ATOM     22  C   UNL     1      47.950   5.377  15.144  0.00  0.00    +0.000 C 
ATOM     23  N   UNL     1      48.550   5.250  16.130  0.00  0.00    +0.000 NA
ENDBRANCH  20  22
ENDBRANCH  15  16
ENDBRANCH  13  15
ENDBRANCH   1  13
TORSDOF 6
ENDMDL
MODEL 2
REMARK VINA RESULT:    -7.446      1.656      2.093
REMARK INTER + INTRA:         -10.753
REMARK INTER:                 -10.151
REMARK INTRA:                  -0.602
REMARK UNBOUND:                -0.696
REMARK  Name = 
REMARK  7 active torsions:
REMARK  status: ('A' for Active; 'I' for Inactive)
REMARK    1  A    between atoms: C_1  and  C_2
REMARK    2  A    between atoms: C_2  and  C_3
REMARK    3  A    between atoms: C_2  and  C_14
REMARK    4  A    between atoms: C_3  and  O_4
REMARK    5  A    between atoms: O_4  and  C_5
REMARK    6  A    between atoms: C_8  and  C_9
REMARK    7  A    between atoms: C_18  and  C_19
REMARK                            x       y       z     vdW  Elec       q    Type
REMARK                         _______ _______ _______ _____ _____    ______ ____
ROOT
ATOM      1  O   UNL     1      43.446   3.369  10.320  0.00  0.00    +0.000 OA
ENDROOT
BRANCH   1   2
ATOM      2  C   UNL     1      44.447   3.122   9.395  0.00  0.00    +0.000 A 
ATOM      3  C   UNL     1      44.946   4.178   8.637  0.00  0.00    +0.000 A 
ATOM      4  N   UNL     1      45.935   4.021   7.711  0.00  0.00    +0.000 NA
ATOM      5  C   UNL     1      46.399   2.744   7.587  0.00  0.00    +0.000 A 
ATOM      6  C   UNL     1      45.905   1.694   8.342  0.00  0.00    +0.000 A 
ATOM      7  N   UNL     1      44.922   1.862   9.258  0.00  0.00    +0.000 NA
BRANCH   5   8
ATOM      8  C   UNL     1      47.477   2.462   6.599  0.00  0.00    +0.000 C 
ATOM      9  N   UNL     1      47.431   3.173   5.432  0.00  0.00    +0.000 N 
ATOM     10  O   UNL     1      48.357   1.638   6.814  0.00  0.00    +0.000 OA
ATOM     11  H   UNL     1      46.691   3.846   5.270  0.00  0.00    +0.000 HD
ATOM     12  H   UNL     1      48.137   3.007   4.728  0.00  0.00    +0.000 HD
ENDBRANCH   5   8
ENDBRANCH   1   2
BRANCH   1  13
ATOM     13  C   UNL     1      43.981   3.359  11.650  0.00  0.00    +0.000 C 
BRANCH  13  15
ATOM     14  C   UNL     1      42.496   5.421  12.026  0.00  0.00    +0.000 C 
ATOM     15  C   UNL     1      43.746   4.662  12.371  0.00  0.00    +0.000 C 
BRANCH  15  16
ATOM     16  C   UNL     1      44.927   5.468  12.770  0.00  0.00    +0.000 A 
ATOM     17  C   UNL     1      46.045   4.874  13.379  0.00  0.00    +0.000 A 
ATOM     18  C   UNL     1      47.199   5.612  13.655  0.00  0.00    +0.000 A 
ATOM     19  C   UNL     1      47.254   6.964  13.329  0.00  0.00    +0.000 A 
ATOM     20  C   UNL     1      46.143   7.582  12.751  0.00  0.00    +0.000 A 
ATOM     21  C   UNL     1      44.983   6.840  12.487  0.00  0.00    +0.000 A 
BRANCH  20  22
ATOM     22  C   UNL     1      46.198   8.971  12.407  0.00  0.00    +0.000 C 
ATOM     23  N   UNL     1      46.264  10.097  12.130  0.00  0.00    +0.000 NA
ENDBRANCH  20  22
ENDBRANCH  15  16
ENDBRANCH  13  15
ENDBRANCH   1  13
TORSDOF 6
ENDMDL
MODEL 3
REMARK VINA RESULT:    -7.092      2.772      6.295
REMARK INTER + INTRA:         -10.275
REMARK INTER:                  -9.643
REMARK INTRA:                  -0.632
REMARK UNBOUND:                -0.696
REMARK  Name = 
REMARK  7 active torsions:
REMARK  status: ('A' for Active; 'I' for Inactive)
REMARK    1  A    between atoms: C_1  and  C_2
REMARK    2  A    between atoms: C_2  and  C_3
REMARK    3  A    between atoms: C_2  and  C_14
REMARK    4  A    between atoms: C_3  and  O_4
REMARK    5  A    between atoms: O_4  and  C_5
REMARK    6  A    between atoms: C_8  and  C_9
REMARK    7  A    between atoms: C_18  and  C_19
REMARK                            x       y       z     vdW  Elec       q    Type
REMARK                         _______ _______ _______ _____ _____    ______ ____
ROOT
ATOM      1  O   UNL     1      43.764   5.328  12.454  0.00  0.00    +0.000 OA
ENDROOT
BRANCH   1   2
ATOM      2  C   UNL     1      45.045   5.737  12.780  0.00  0.00    +0.000 A 
ATOM      3  C   UNL     1      45.396   7.073  12.606  0.00  0.00    +0.000 A 
ATOM      4  N   UNL     1      46.634   7.559  12.909  0.00  0.00    +0.000 NA
ATOM      5  C   UNL     1      47.505   6.629  13.397  0.00  0.00    +0.000 A 
ATOM      6  C   UNL     1      47.156   5.300  13.572  0.00  0.00    +0.000 A 
ATOM      7  N   UNL     1      45.924   4.830  13.267  0.00  0.00    +0.000 NA
BRANCH   5   8
ATOM      8  C   UNL     1      48.887   7.054  13.755  0.00  0.00    +0.000 C 
ATOM      9  N   UNL     1      49.471   7.974  12.929  0.00  0.00    +0.000 N 
ATOM     10  O   UNL     1      49.473   6.602  14.731  0.00  0.00    +0.000 OA
ATOM     11  H   UNL     1      48.971   8.330  12.124  0.00  0.00    +0.000 HD
ATOM     12  H   UNL     1      50.412   8.284  13.128  0.00  0.00    +0.000 HD
ENDBRANCH   5   8
ENDBRANCH   1   2
BRANCH   1  13
ATOM     13  C   UNL     1      43.613   5.243  11.031  0.00  0.00    +0.000 C 
BRANCH  13  15
ATOM     14  C   UNL     1      43.542   2.722  11.516  0.00  0.00    +0.000 C 
ATOM     15  C   UNL     1      43.752   3.830  10.524  0.00  0.00    +0.000 C 
BRANCH  15  16
ATOM     16  C   UNL     1      44.716   3.569   9.425  0.00  0.00    +0.000 A 
ATOM     17  C   UNL     1      45.338   4.621   8.732  0.00  0.00    +0.000 A 
ATOM     18  C   UNL     1      46.325   4.377   7.775  0.00  0.00    +0.000 A 
ATOM     19  C   UNL     1      46.707   3.070   7.488  0.00  0.00    +0.000 A 
ATOM     20  C   UNL     1      46.080   2.007   8.141  0.00  0.00    +0.000 A 
ATOM     21  C   UNL     1      45.081   2.257   9.093  0.00  0.00    +0.000 A 
BRANCH  20  22
ATOM     22  C   UNL     1      46.475   0.660   7.855  0.00  0.00    +0.000 C 
ATOM     23  N   UNL     1      46.793  -0.436   7.643  0.00  0.00    +0.000 NA
ENDBRANCH  20  22
ENDBRANCH  15  16
ENDBRANCH  13  15
ENDBRANCH   1  13
TORSDOF 6
ENDMDL
MODEL 4
REMARK VINA RESULT:    -7.084      1.894      2.451
REMARK INTER + INTRA:         -10.265
REMARK INTER:                  -9.684
REMARK INTRA:                  -0.580
REMARK UNBOUND:                -0.696
REMARK  Name = 
REMARK  7 active torsions:
REMARK  status: ('A' for Active; 'I' for Inactive)
REMARK    1  A    between atoms: C_1  and  C_2
REMARK    2  A    between atoms: C_2  and  C_3
REMARK    3  A    between atoms: C_2  and  C_14
REMARK    4  A    between atoms: C_3  and  O_4
REMARK    5  A    between atoms: O_4  and  C_5
REMARK    6  A    between atoms: C_8  and  C_9
REMARK    7  A    between atoms: C_18  and  C_19
REMARK                            x       y       z     vdW  Elec       q    Type
REMARK                         _______ _______ _______ _____ _____    ______ ____
ROOT
ATOM      1  O   UNL     1      43.699   3.843  10.273  0.00  0.00    +0.000 OA
ENDROOT
BRANCH   1   2
ATOM      2  C   UNL     1      44.651   3.477   9.336  0.00  0.00    +0.000 A 
ATOM      3  C   UNL     1      45.069   2.150   9.276  0.00  0.00    +0.000 A 
ATOM      4  N   UNL     1      45.997   1.706   8.380  0.00  0.00    +0.000 NA
ATOM      5  C   UNL     1      46.483   2.668   7.543  0.00  0.00    +0.000 A 
ATOM      6  C   UNL     1      46.066   3.988   7.601  0.00  0.00    +0.000 A 
ATOM      7  N   UNL     1      45.145   4.416   8.496  0.00  0.00    +0.000 NA
BRANCH   5   8
ATOM      8  C   UNL     1      47.506   2.290   6.529  0.00  0.00    +0.000 C 
ATOM      9  N   UNL     1      47.467   2.974   5.345  0.00  0.00    +0.000 N 
ATOM     10  O   UNL     1      48.335   1.414   6.738  0.00  0.00    +0.000 OA
ATOM     11  H   UNL     1      46.769   3.691   5.190  0.00  0.00    +0.000 HD
ATOM     12  H   UNL     1      48.136   2.744   4.623  0.00  0.00    +0.000 HD
ENDBRANCH   5   8
ENDBRANCH   1   2
BRANCH   1  13
ATOM     13  C   UNL     1      43.930   5.185  10.721  0.00  0.00    +0.000 C 
BRANCH  13  15
ATOM     14  C   UNL     1      44.724   4.450  13.051  0.00  0.00    +0.000 C 
ATOM     15  C   UNL     1      44.974   5.254  11.806  0.00  0.00    +0.000 C 
BRANCH  15  16
ATOM     16  C   UNL     1      45.734   6.519  11.971  0.00  0.00    +0.000 A 
ATOM     17  C   UNL     1      45.133   7.668  12.513  0.00  0.00    +0.000 A 
ATOM     18  C   UNL     1      45.876   8.823  12.769  0.00  0.00    +0.000 A 
ATOM     19  C   UNL     1      47.237   8.852  12.482  0.00  0.00    +0.000 A 
ATOM     20  C   UNL     1      47.849   7.733  11.914  0.00  0.00    +0.000 A 
ATOM     21  C   UNL     1      47.097   6.579  11.648  0.00  0.00    +0.000 A 
BRANCH  20  22
ATOM     22  C   UNL     1      49.251   7.755  11.626  0.00  0.00    +0.000 C 
ATOM     23  N   UNL     1      50.385   7.765  11.373  0.00  0.00    +0.000 NA
ENDBRANCH  20  22
ENDBRANCH  15  16
ENDBRANCH  13  15
ENDBRANCH   1  13
TORSDOF 6
ENDMDL
MODEL 5
REMARK VINA RESULT:    -6.884      2.720      7.220
REMARK INTER + INTRA:          -9.994
REMARK INTER:                  -9.529
REMARK INTRA:                  -0.465
REMARK UNBOUND:                -0.696
REMARK  Name = 
REMARK  7 active torsions:
REMARK  status: ('A' for Active; 'I' for Inactive)
REMARK    1  A    between atoms: C_1  and  C_2
REMARK    2  A    between atoms: C_2  and  C_3
REMARK    3  A    between atoms: C_2  and  C_14
REMARK    4  A    between atoms: C_3  and  O_4
REMARK    5  A    between atoms: O_4  and  C_5
REMARK    6  A    between atoms: C_8  and  C_9
REMARK    7  A    between atoms: C_18  and  C_19
REMARK                            x       y       z     vdW  Elec       q    Type
REMARK                         _______ _______ _______ _____ _____    ______ ____
ROOT
ATOM      1  O   UNL     1      46.016   3.499  13.053  0.00  0.00    +0.000 OA
ENDROOT
BRANCH   1   2
ATOM      2  C   UNL     1      46.760   4.188  13.996  0.00  0.00    +0.000 A 
ATOM      3  C   UNL     1      47.419   5.356  13.621  0.00  0.00    +0.000 A 
ATOM      4  N   UNL     1      48.166   6.096  14.489  0.00  0.00    +0.000 NA
ATOM      5  C   UNL     1      48.216   5.600  15.760  0.00  0.00    +0.000 A 
ATOM      6  C   UNL     1      47.560   4.439  16.134  0.00  0.00    +0.000 A 
ATOM      7  N   UNL     1      46.822   3.713  15.262  0.00  0.00    +0.000 NA
BRANCH   5   8
ATOM      8  C   UNL     1      49.010   6.330  16.787  0.00  0.00    +0.000 C 
ATOM      9  N   UNL     1      48.300   6.922  17.794  0.00  0.00    +0.000 N 
ATOM     10  O   UNL     1      50.232   6.401  16.734  0.00  0.00    +0.000 OA
ATOM     11  H   UNL     1      47.289   6.857  17.815  0.00  0.00    +0.000 HD
ATOM     12  H   UNL     1      48.797   7.437  18.508  0.00  0.00    +0.000 HD
ENDBRANCH   5   8
ENDBRANCH   1   2
BRANCH   1  13
ATOM     13  C   UNL     1      45.135   4.394  12.362  0.00  0.00    +0.000 C 
BRANCH  13  15
ATOM     14  C   UNL     1      43.373   2.634  11.730  0.00  0.00    +0.000 C 
ATOM     15  C   UNL     1      44.338   3.697  11.288  0.00  0.00    +0.000 C 
BRANCH  15  16
ATOM     16  C   UNL     1      44.965   3.516   9.954  0.00  0.00    +0.000 A 
ATOM     17  C   UNL     1      45.255   4.614   9.127  0.00  0.00    +0.000 A 
ATOM     18  C   UNL     1      45.943   4.454   7.922  0.00  0.00    +0.000 A 
ATOM     19  C   UNL     1      46.349   3.186   7.517  0.00  0.00    +0.000 A 
ATOM     20  C   UNL     1      46.044   2.076   8.307  0.00  0.00    +0.000 A 
ATOM     21  C   UNL     1      45.343   2.241   9.511  0.00  0.00    +0.000 A 
BRANCH  20  22
ATOM     22  C   UNL     1      46.468   0.770   7.899  0.00  0.00    +0.000 C 
ATOM     23  N   UNL     1      46.825  -0.279   7.553  0.00  0.00    +0.000 NA
ENDBRANCH  20  22
ENDBRANCH  15  16
ENDBRANCH  13  15
ENDBRANCH   1  13
TORSDOF 6
ENDMDL
MODEL 6
REMARK VINA RESULT:    -6.503      2.698      7.212
REMARK INTER + INTRA:          -9.479
REMARK INTER:                  -8.813
REMARK INTRA:                  -0.666
REMARK UNBOUND:                -0.696
REMARK  Name = 
REMARK  7 active torsions:
REMARK  status: ('A' for Active; 'I' for Inactive)
REMARK    1  A    between atoms: C_1  and  C_2
REMARK    2  A    between atoms: C_2  and  C_3
REMARK    3  A    between atoms: C_2  and  C_14
REMARK    4  A    between atoms: C_3  and  O_4
REMARK    5  A    between atoms: O_4  and  C_5
REMARK    6  A    between atoms: C_8  and  C_9
REMARK    7  A    between atoms: C_18  and  C_19
REMARK                            x       y       z     vdW  Elec       q    Type
REMARK                         _______ _______ _______ _____ _____    ______ ____
ROOT
ATOM      1  O   UNL     1      47.446   6.474  12.821  0.00  0.00    +0.000 OA
ENDROOT
BRANCH   1   2
ATOM      2  C   UNL     1      47.503   5.704  13.970  0.00  0.00    +0.000 A 
ATOM      3  C   UNL     1      46.756   4.531  14.038  0.00  0.00    +0.000 A 
ATOM      4  N   UNL     1      46.760   3.713  15.129  0.00  0.00    +0.000 NA
ATOM      5  C   UNL     1      47.558   4.135  16.152  0.00  0.00    +0.000 A 
ATOM      6  C   UNL     1      48.303   5.301  16.084  0.00  0.00    +0.000 A 
ATOM      7  N   UNL     1      48.290   6.105  14.995  0.00  0.00    +0.000 NA
BRANCH   5   8
ATOM      8  C   UNL     1      47.632   3.317  17.394  0.00  0.00    +0.000 C 
ATOM      9  N   UNL     1      48.760   3.465  18.152  0.00  0.00    +0.000 N 
ATOM     10  O   UNL     1      46.735   2.549  17.720  0.00  0.00    +0.000 OA
ATOM     11  H   UNL     1      49.493   4.101  17.861  0.00  0.00    +0.000 HD
ATOM     12  H   UNL     1      48.858   2.922  18.999  0.00  0.00    +0.000 HD
ENDBRANCH   5   8
ENDBRANCH   1   2
BRANCH   1  13
ATOM     13  C   UNL     1      46.315   7.353  12.864  0.00  0.00    +0.000 C 
BRANCH  13  15
ATOM     14  C   UNL     1      44.608   8.508  11.330  0.00  0.00    +0.000 C 
ATOM     15  C   UNL     1      45.543   7.356  11.569  0.00  0.00    +0.000 C 
BRANCH  15  16
ATOM     16  C   UNL     1      45.157   6.050  10.977  0.00  0.00    +0.000 A 
ATOM     17  C   UNL     1      44.160   5.250  11.559  0.00  0.00    +0.000 A 
ATOM     18  C   UNL     1      43.720   4.075  10.944  0.00  0.00    +0.000 A 
ATOM     19  C   UNL     1      44.276   3.675   9.732  0.00  0.00    +0.000 A 
ATOM     20  C   UNL     1      45.291   4.439   9.151  0.00  0.00    +0.000 A 
ATOM     21  C   UNL     1      45.736   5.611   9.778  0.00  0.00    +0.000 A 
BRANCH  20  22
ATOM     22  C   UNL     1      45.859   4.036   7.900  0.00  0.00    +0.000 C 
ATOM     23  N   UNL     1      46.301   3.707   6.877  0.00  0.00    +0.000 NA
ENDBRANCH  20  22
ENDBRANCH  15  16
ENDBRANCH  13  15
ENDBRANCH   1  13
TORSDOF 6
ENDMDL
MODEL 7
REMARK VINA RESULT:    -6.426      2.420      6.939
REMARK INTER + INTRA:          -9.376
REMARK INTER:                  -8.944
REMARK INTRA:                  -0.431
REMARK UNBOUND:                -0.696
REMARK  Name = 
REMARK  7 active torsions:
REMARK  status: ('A' for Active; 'I' for Inactive)
REMARK    1  A    between atoms: C_1  and  C_2
REMARK    2  A    between atoms: C_2  and  C_3
REMARK    3  A    between atoms: C_2  and  C_14
REMARK    4  A    between atoms: C_3  and  O_4
REMARK    5  A    between atoms: O_4  and  C_5
REMARK    6  A    between atoms: C_8  and  C_9
REMARK    7  A    between atoms: C_18  and  C_19
REMARK                            x       y       z     vdW  Elec       q    Type
REMARK                         _______ _______ _______ _____ _____    ______ ____
ROOT
ATOM      1  O   UNL     1      46.515   5.886  11.644  0.00  0.00    +0.000 OA
ENDROOT
BRANCH   1   2
ATOM      2  C   UNL     1      46.787   5.414  12.917  0.00  0.00    +0.000 A 
ATOM      3  C   UNL     1      46.390   4.125  13.262  0.00  0.00    +0.000 A 
ATOM      4  N   UNL     1      46.625   3.583  14.492  0.00  0.00    +0.000 NA
ATOM      5  C   UNL     1      47.283   4.406  15.359  0.00  0.00    +0.000 A 
ATOM      6  C   UNL     1      47.680   5.688  15.015  0.00  0.00    +0.000 A 
ATOM      7  N   UNL     1      47.440   6.215  13.791  0.00  0.00    +0.000 NA
BRANCH   5   8
ATOM      8  C   UNL     1      47.586   3.913  16.731  0.00  0.00    +0.000 C 
ATOM      9  N   UNL     1      48.790   4.289  17.258  0.00  0.00    +0.000 N 
ATOM     10  O   UNL     1      46.803   3.207  17.355  0.00  0.00    +0.000 OA
ATOM     11  H   UNL     1      49.425   4.868  16.723  0.00  0.00    +0.000 HD
ATOM     12  H   UNL     1      49.042   3.969  18.184  0.00  0.00    +0.000 HD
ENDBRANCH   5   8
ENDBRANCH   1   2
BRANCH   1  13
ATOM     13  C   UNL     1      45.272   6.600  11.631  0.00  0.00    +0.000 C 
BRANCH  13  15
ATOM     14  C   UNL     1      42.801   5.918  11.456  0.00  0.00    +0.000 C 
ATOM     15  C   UNL     1      44.191   5.855  10.888  0.00  0.00    +0.000 C 
BRANCH  15  16
ATOM     16  C   UNL     1      44.562   4.610  10.169  0.00  0.00    +0.000 A 
ATOM     17  C   UNL     1      44.129   3.351  10.615  0.00  0.00    +0.000 A 
ATOM     18  C   UNL     1      44.386   2.192   9.879  0.00  0.00    +0.000 A 
ATOM     19  C   UNL     1      45.088   2.271   8.680  0.00  0.00    +0.000 A 
ATOM     20  C   UNL     1      45.555   3.509   8.232  0.00  0.00    +0.000 A 
ATOM     21  C   UNL     1      45.305   4.668   8.981  0.00  0.00    +0.000 A 
BRANCH  20  22
ATOM     22  C   UNL     1      46.270   3.596   6.995  0.00  0.00    +0.000 C 
ATOM     23  N   UNL     1      46.833   3.661   5.981  0.00  0.00    +0.000 NA
ENDBRANCH  20  22
ENDBRANCH  15  16
ENDBRANCH  13  15
ENDBRANCH   1  13
TORSDOF 6
ENDMDL
MODEL 8
REMARK VINA RESULT:    -6.395      4.087      6.417
REMARK INTER + INTRA:          -9.335
REMARK INTER:                  -8.918
REMARK INTRA:                  -0.417
REMARK UNBOUND:                -0.696
REMARK  Name = 
REMARK  7 active torsions:
REMARK  status: ('A' for Active; 'I' for Inactive)
REMARK    1  A    between atoms: C_1  and  C_2
REMARK    2  A    between atoms: C_2  and  C_3
REMARK    3  A    between atoms: C_2  and  C_14
REMARK    4  A    between atoms: C_3  and  O_4
REMARK    5  A    between atoms: O_4  and  C_5
REMARK    6  A    between atoms: C_8  and  C_9
REMARK    7  A    between atoms: C_18  and  C_19
REMARK                            x       y       z     vdW  Elec       q    Type
REMARK                         _______ _______ _______ _____ _____    ______ ____
ROOT
ATOM      1  O   UNL     1      47.505   3.342  14.381  0.00  0.00    +0.000 OA
ENDROOT
BRANCH   1   2
ATOM      2  C   UNL     1      46.457   3.801  13.601  0.00  0.00    +0.000 A 
ATOM      3  C   UNL     1      46.193   5.167  13.554  0.00  0.00    +0.000 A 
ATOM      4  N   UNL     1      45.185   5.701  12.806  0.00  0.00    +0.000 NA
ATOM      5  C   UNL     1      44.454   4.787  12.103  0.00  0.00    +0.000 A 
ATOM      6  C   UNL     1      44.718   3.428  12.148  0.00  0.00    +0.000 A 
ATOM      7  N   UNL     1      45.721   2.911  12.895  0.00  0.00    +0.000 NA
BRANCH   5   8
ATOM      8  C   UNL     1      43.326   5.265  11.257  0.00  0.00    +0.000 C 
ATOM      9  N   UNL     1      42.322   5.929  11.905  0.00  0.00    +0.000 N 
ATOM     10  O   UNL     1      43.294   5.072  10.048  0.00  0.00    +0.000 OA
ATOM     11  H   UNL     1      42.364   6.072  12.907  0.00  0.00    +0.000 HD
ATOM     12  H   UNL     1      41.530   6.262  11.372  0.00  0.00    +0.000 HD
ENDBRANCH   5   8
ENDBRANCH   1   2
BRANCH   1  13
ATOM     13  C   UNL     1      47.497   3.991  15.660  0.00  0.00    +0.000 C 
BRANCH  13  15
ATOM     14  C   UNL     1      47.139   2.723  17.865  0.00  0.00    +0.000 C 
ATOM     15  C   UNL     1      48.065   3.118  16.749  0.00  0.00    +0.000 C 
BRANCH  15  16
ATOM     16  C   UNL     1      49.501   3.270  17.096  0.00  0.00    +0.000 A 
ATOM     17  C   UNL     1      50.062   4.534  17.346  0.00  0.00    +0.000 A 
ATOM     18  C   UNL     1      51.384   4.669  17.778  0.00  0.00    +0.000 A 
ATOM     19  C   UNL     1      52.173   3.537  17.964  0.00  0.00    +0.000 A 
ATOM     20  C   UNL     1      51.646   2.273  17.692  0.00  0.00    +0.000 A 
ATOM     21  C   UNL     1      50.322   2.144  17.247  0.00  0.00    +0.000 A 
BRANCH  20  22
ATOM     22  C   UNL     1      52.452   1.106  17.890  0.00  0.00    +0.000 C 
ATOM     23  N   UNL     1      53.106   0.164  18.071  0.00  0.00    +0.000 NA
ENDBRANCH  20  22
ENDBRANCH  15  16
ENDBRANCH  13  15
ENDBRANCH   1  13
TORSDOF 6
ENDMDL
MODEL 9
REMARK VINA RESULT:    -5.976      3.022      7.618
REMARK INTER + INTRA:          -8.768
REMARK INTER:                  -8.281
REMARK INTRA:                  -0.487
REMARK UNBOUND:                -0.696
REMARK  Name = 
REMARK  7 active torsions:
REMARK  status: ('A' for Active; 'I' for Inactive)
REMARK    1  A    between atoms: C_1  and  C_2
REMARK    2  A    between atoms: C_2  and  C_3
REMARK    3  A    between atoms: C_2  and  C_14
REMARK    4  A    between atoms: C_3  and  O_4
REMARK    5  A    between atoms: O_4  and  C_5
REMARK    6  A    between atoms: C_8  and  C_9
REMARK    7  A    between atoms: C_18  and  C_19
REMARK                            x       y       z     vdW  Elec       q    Type
REMARK                         _______ _______ _______ _____ _____    ______ ____
ROOT
ATOM      1  O   UNL     1      46.978   5.314  13.027  0.00  0.00    +0.000 OA
ENDROOT
BRANCH   1   2
ATOM      2  C   UNL     1      47.341   5.069  14.340  0.00  0.00    +0.000 A 
ATOM      3  C   UNL     1      48.244   5.924  14.966  0.00  0.00    +0.000 A 
ATOM      4  N   UNL     1      48.650   5.756  16.258  0.00  0.00    +0.000 NA
ATOM      5  C   UNL     1      48.097   4.681  16.891  0.00  0.00    +0.000 A 
ATOM      6  C   UNL     1      47.197   3.831  16.269  0.00  0.00    +0.000 A 
ATOM      7  N   UNL     1      46.804   4.008  14.986  0.00  0.00    +0.000 NA
BRANCH   5   8
ATOM      8  C   UNL     1      48.476   4.404  18.304  0.00  0.00    +0.000 C 
ATOM      9  N   UNL     1      48.061   3.207  18.820  0.00  0.00    +0.000 N 
ATOM     10  O   UNL     1      49.121   5.202  18.972  0.00  0.00    +0.000 OA
ATOM     11  H   UNL     1      47.522   2.564  18.253  0.00  0.00    +0.000 HD
ATOM     12  H   UNL     1      48.287   2.981  19.779  0.00  0.00    +0.000 HD
ENDBRANCH   5   8
ENDBRANCH   1   2
BRANCH   1  13
ATOM     13  C   UNL     1      45.872   6.226  12.978  0.00  0.00    +0.000 C 
BRANCH  13  15
ATOM     14  C   UNL     1      44.317   7.465  11.351  0.00  0.00    +0.000 C 
ATOM     15  C   UNL     1      45.292   6.347  11.591  0.00  0.00    +0.000 C 
BRANCH  15  16
ATOM     16  C   UNL     1      45.090   5.105  10.802  0.00  0.00    +0.000 A 
ATOM     17  C   UNL     1      44.259   4.071  11.266  0.00  0.00    +0.000 A 
ATOM     18  C   UNL     1      43.983   2.952  10.477  0.00  0.00    +0.000 A 
ATOM     19  C   UNL     1      44.539   2.844   9.206  0.00  0.00    +0.000 A 
ATOM     20  C   UNL     1      45.393   3.844   8.736  0.00  0.00    +0.000 A 
ATOM     21  C   UNL     1      45.677   4.960   9.538  0.00  0.00    +0.000 A 
BRANCH  20  22
ATOM     22  C   UNL     1      45.961   3.741   7.426  0.00  0.00    +0.000 C 
ATOM     23  N   UNL     1      46.440   3.666   6.371  0.00  0.00    +0.000 NA
ENDBRANCH  20  22
ENDBRANCH  15  16
ENDBRANCH  13  15
ENDBRANCH   1  13
TORSDOF 6
ENDMDL
