MODEL 1
REMARK VINA RESULT:    -8.301      0.000      0.000
REMARK INTER + INTRA:         -11.866
REMARK INTER:                 -11.213
REMARK INTRA:                  -0.653
REMARK UNBOUND:                -0.653
REMARK  Name = 
REMARK  7 active torsions:
REMARK  status: ('A' for Active; 'I' for Inactive)
REMARK    1  A    between atoms: C_1  and  C_2
REMARK    2  A    between atoms: C_5  and  O_6
REMARK    3  A    between atoms: O_6  and  C_7
REMARK    4  A    between atoms: C_11  and  C_12
REMARK    5  A    between atoms: C_13  and  C_14
REMARK    6  A    between atoms: C_14  and  C_15
REMARK    7  A    between atoms: C_18  and  C_19
REMARK                            x       y       z     vdW  Elec       q    Type
REMARK                         _______ _______ _______ _____ _____    ______ ____
ROOT
ATOM      1  C   UNL     1      46.039   4.992  12.206  0.00  0.00    +0.000 C 
ATOM      2  C   UNL     1      44.950   5.389  11.524  0.00  0.00    +0.000 C 
ENDROOT
BRANCH   1   7
ATOM      3  C   UNL     1      48.157   6.157  14.925  0.00  0.00    +0.000 A 
ATOM      4  C   UNL     1      48.259   7.524  14.742  0.00  0.00    +0.000 A 
ATOM      5  C   UNL     1      47.583   8.089  13.666  0.00  0.00    +0.000 A 
ATOM      6  C   UNL     1      46.848   7.268  12.812  0.00  0.00    +0.000 A 
ATOM      7  C   UNL     1      46.810   5.902  13.069  0.00  0.00    +0.000 A 
ATOM      8  N   UNL     1      47.452   5.342  14.120  0.00  0.00    +0.000 NA
BRANCH   3   9
ATOM      9  O   UNL     1      48.825   5.609  16.003  0.00  0.00    +0.000 OA
BRANCH   9  14
ATOM     10  C   UNL     1      49.669   2.298  17.134  0.00  0.00    +0.000 C 
ATOM     11  C   UNL     1      49.112   3.638  17.578  0.00  0.00    +0.000 C 
ATOM     12  N   UNL     1      47.924   3.469  18.446  0.00  0.00    +0.000 NA
ATOM     13  C   UNL     1      47.279   4.611  17.770  0.00  0.00    +0.000 C 
ATOM     14  C   UNL     1      48.225   4.412  16.562  0.00  0.00    +0.000 C 
ATOM     15  H   UNL     1      48.099   3.606  19.440  0.00  0.00    +0.000 HD
ENDBRANCH   9  14
ENDBRANCH   3   9
ENDBRANCH   1   7
BRANCH   2  16
ATOM     16  C   UNL     1      44.138   4.529  10.604  0.00  0.00    +0.000 C 
BRANCH  16  17
ATOM     17  C   UNL     1      44.991   3.909   9.527  0.00  0.00    +0.000 A 
ATOM     18  C   UNL     1      45.675   4.700   8.605  0.00  0.00    +0.000 A 
ATOM     19  N   UNL     1      46.441   4.211   7.602  0.00  0.00    +0.000 NA
ATOM     20  C   UNL     1      46.516   2.846   7.502  0.00  0.00    +0.000 A 
ATOM     21  C   UNL     1      45.857   1.979   8.361  0.00  0.00    +0.000 A 
ATOM     22  F   UNL     1      45.936   0.647   8.247  0.00  0.00    +0.000 F 
ATOM     23  C   UNL     1      45.084   2.519   9.383  0.00  0.00    +0.000 A 
BRANCH  20  24
ATOM     24  C   UNL     1      47.372   2.322   6.390  0.00  0.00    +0.000 C 
ATOM     25  N   UNL     1      47.223   2.971   5.191  0.00  0.00    +0.000 N 
ATOM     26  O   UNL     1      48.157   1.392   6.506  0.00  0.00    +0.000 OA
ATOM     27  H   UNL     1      46.564   3.738   5.112  0.00  0.00    +0.000 HD
ATOM     28  H   UNL     1      47.764   2.669   4.394  0.00  0.00    +0.000 HD
ENDBRANCH  20  24
ENDBRANCH  16  17
ENDBRANCH   2  16
TORSDOF 6
ENDMDL
MODEL 2
REMARK VINA RESULT:    -7.491      2.060      2.409
REMARK INTER + INTRA:         -10.771
REMARK INTER:                 -10.321
REMARK INTRA:                  -0.450
REMARK UNBOUND:                -0.653
REMARK  Name = 
REMARK  7 active torsions:
REMARK  status: ('A' for Active; 'I' for Inactive)
REMARK    1  A    between atoms: C_1  and  C_2
REMARK    2  A    between atoms: C_5  and  O_6
REMARK    3  A    between atoms: O_6  and  C_7
REMARK    4  A    between atoms: C_11  and  C_12
REMARK    5  A    between atoms: C_13  and  C_14
REMARK    6  A    between atoms: C_14  and  C_15
REMARK    7  A    between atoms: C_18  and  C_19
REMARK                            x       y       z     vdW  Elec       q    Type
REMARK                         _______ _______ _______ _____ _____    ______ ____
ROOT
ATOM      1  C   UNL     1      45.739   5.234  11.702  0.00  0.00    +0.000 C 
ATOM      2  C   UNL     1      44.541   5.520  11.161  0.00  0.00    +0.000 C 
ENDROOT
BRANCH   1   7
ATOM      3  C   UNL     1      48.014   6.502  14.243  0.00  0.00    +0.000 A 
ATOM      4  C   UNL     1      47.865   7.876  14.206  0.00  0.00    +0.000 A 
ATOM      5  C   UNL     1      46.958   8.409  13.297  0.00  0.00    +0.000 A 
ATOM      6  C   UNL     1      46.248   7.552  12.455  0.00  0.00    +0.000 A 
ATOM      7  C   UNL     1      46.470   6.183  12.557  0.00  0.00    +0.000 A 
ATOM      8  N   UNL     1      47.340   5.652  13.447  0.00  0.00    +0.000 NA
BRANCH   3   9
ATOM      9  O   UNL     1      48.911   5.984  15.157  0.00  0.00    +0.000 OA
BRANCH   9  14
ATOM     10  C   UNL     1      48.273   7.761  18.220  0.00  0.00    +0.000 C 
ATOM     11  C   UNL     1      49.190   6.748  17.562  0.00  0.00    +0.000 C 
ATOM     12  N   UNL     1      50.611   7.021  17.875  0.00  0.00    +0.000 NA
ATOM     13  C   UNL     1      50.974   6.683  16.485  0.00  0.00    +0.000 C 
ATOM     14  C   UNL     1      49.511   6.953  16.055  0.00  0.00    +0.000 C 
ATOM     15  H   UNL     1      51.018   6.410  18.582  0.00  0.00    +0.000 HD
ENDBRANCH   9  14
ENDBRANCH   3   9
ENDBRANCH   1   7
BRANCH   2  16
ATOM     16  C   UNL     1      43.758   4.619  10.256  0.00  0.00    +0.000 C 
BRANCH  16  17
ATOM     17  C   UNL     1      44.661   3.791   9.379  0.00  0.00    +0.000 A 
ATOM     18  C   UNL     1      44.929   2.456   9.678  0.00  0.00    +0.000 A 
ATOM     19  N   UNL     1      45.745   1.660   8.947  0.00  0.00    +0.000 NA
ATOM     20  C   UNL     1      46.345   2.239   7.859  0.00  0.00    +0.000 A 
ATOM     21  C   UNL     1      46.154   3.562   7.494  0.00  0.00    +0.000 A 
ATOM     22  F   UNL     1      46.752   4.114   6.431  0.00  0.00    +0.000 F 
ATOM     23  C   UNL     1      45.304   4.347   8.266  0.00  0.00    +0.000 A 
BRANCH  20  24
ATOM     24  C   UNL     1      47.240   1.343   7.059  0.00  0.00    +0.000 C 
ATOM     25  N   UNL     1      48.402   1.926   6.622  0.00  0.00    +0.000 N 
ATOM     26  O   UNL     1      46.989   0.175   6.799  0.00  0.00    +0.000 OA
ATOM     27  H   UNL     1      48.591   2.897   6.843  0.00  0.00    +0.000 HD
ATOM     28  H   UNL     1      49.052   1.384   6.072  0.00  0.00    +0.000 HD
ENDBRANCH  20  24
ENDBRANCH  16  17
ENDBRANCH   2  16
TORSDOF 6
ENDMDL
MODEL 3
REMARK VINA RESULT:    -7.339      1.959      3.311
REMARK INTER + INTRA:         -10.565
REMARK INTER:                  -9.899
REMARK INTRA:                  -0.666
REMARK UNBOUND:                -0.653
REMARK  Name = 
REMARK  7 active torsions:
REMARK  status: ('A' for Active; 'I' for Inactive)
REMARK    1  A    between atoms: C_1  and  C_2
REMARK    2  A    between atoms: C_5  and  O_6
REMARK    3  A    between atoms: O_6  and  C_7
REMARK    4  A    between atoms: C_11  and  C_12
REMARK    5  A    between atoms: C_13  and  C_14
REMARK    6  A    between atoms: C_14  and  C_15
REMARK    7  A    between atoms: C_18  and  C_19
REMARK                            x       y       z     vdW  Elec       q    Type
REMARK                         _______ _______ _______ _____ _____    ______ ____
ROOT
ATOM      1  C   UNL     1      45.841   4.786  12.032  0.00  0.00    +0.000 C 
ATOM      2  C   UNL     1      44.887   3.840  11.967  0.00  0.00    +0.000 C 
ENDROOT
BRANCH   1   7
ATOM      3  C   UNL     1      48.090   6.440  14.366  0.00  0.00    +0.000 A 
ATOM      4  C   UNL     1      48.040   5.676  15.517  0.00  0.00    +0.000 A 
ATOM      5  C   UNL     1      47.225   4.549  15.517  0.00  0.00    +0.000 A 
ATOM      6  C   UNL     1      46.485   4.240  14.375  0.00  0.00    +0.000 A 
ATOM      7  C   UNL     1      46.590   5.073  13.267  0.00  0.00    +0.000 A 
ATOM      8  N   UNL     1      47.390   6.164  13.250  0.00  0.00    +0.000 NA
BRANCH   3   9
ATOM      9  O   UNL     1      48.909   7.552  14.377  0.00  0.00    +0.000 OA
BRANCH   9  14
ATOM     10  C   UNL     1      47.981   9.332  17.363  0.00  0.00    +0.000 C 
ATOM     11  C   UNL     1      48.857   9.391  16.126  0.00  0.00    +0.000 C 
ATOM     12  N   UNL     1      48.811  10.729  15.495  0.00  0.00    +0.000 NA
ATOM     13  C   UNL     1      48.790  10.091  14.164  0.00  0.00    +0.000 C 
ATOM     14  C   UNL     1      48.281   8.783  14.817  0.00  0.00    +0.000 C 
ATOM     15  H   UNL     1      49.626  11.315  15.673  0.00  0.00    +0.000 HD
ENDBRANCH   9  14
ENDBRANCH   3   9
ENDBRANCH   1   7
BRANCH   2  16
ATOM     16  C   UNL     1      44.063   3.518  10.758  0.00  0.00    +0.000 C 
BRANCH  16  17
ATOM     17  C   UNL     1      44.926   3.271   9.547  0.00  0.00    +0.000 A 
ATOM     18  C   UNL     1      45.276   4.312   8.688  0.00  0.00    +0.000 A 
ATOM     19  N   UNL     1      46.029   4.161   7.574  0.00  0.00    +0.000 NA
ATOM     20  C   UNL     1      46.445   2.886   7.289  0.00  0.00    +0.000 A 
ATOM     21  C   UNL     1      46.131   1.786   8.073  0.00  0.00    +0.000 A 
ATOM     22  F   UNL     1      46.541   0.546   7.778  0.00  0.00    +0.000 F 
ATOM     23  C   UNL     1      45.360   1.983   9.213  0.00  0.00    +0.000 A 
BRANCH  20  24
ATOM     24  C   UNL     1      47.281   2.737   6.055  0.00  0.00    +0.000 C 
ATOM     25  N   UNL     1      48.615   2.514   6.284  0.00  0.00    +0.000 N 
ATOM     26  O   UNL     1      46.842   2.799   4.915  0.00  0.00    +0.000 OA
ATOM     27  H   UNL     1      48.961   2.469   7.236  0.00  0.00    +0.000 HD
ATOM     28  H   UNL     1      49.241   2.409   5.499  0.00  0.00    +0.000 HD
ENDBRANCH  20  24
ENDBRANCH  16  17
ENDBRANCH   2  16
TORSDOF 6
ENDMDL
MODEL 4
REMARK VINA RESULT:    -7.208      2.406      2.774
REMARK INTER + INTRA:         -10.389
REMARK INTER:                 -10.283
REMARK INTRA:                  -0.106
REMARK UNBOUND:                -0.653
REMARK  Name = 
REMARK  7 active torsions:
REMARK  status: ('A' for Active; 'I' for Inactive)
REMARK    1  A    between atoms: C_1  and  C_2
REMARK    2  A    between atoms: C_5  and  O_6
REMARK    3  A    between atoms: O_6  and  C_7
REMARK    4  A    between atoms: C_11  and  C_12
REMARK    5  A    between atoms: C_13  and  C_14
REMARK    6  A    between atoms: C_14  and  C_15
REMARK    7  A    between atoms: C_18  and  C_19
REMARK                            x       y       z     vdW  Elec       q    Type
REMARK                         _______ _______ _______ _____ _____    ______ ____
ROOT
ATOM      1  C   UNL     1      45.698   5.523  11.283  0.00  0.00    +0.000 C 
ATOM      2  C   UNL     1      44.374   5.323  11.157  0.00  0.00    +0.000 C 
ENDROOT
BRANCH   1   7
ATOM      3  C   UNL     1      47.895   7.038  13.756  0.00  0.00    +0.000 A 
ATOM      4  C   UNL     1      47.382   8.305  13.965  0.00  0.00    +0.000 A 
ATOM      5  C   UNL     1      46.245   8.673  13.255  0.00  0.00    +0.000 A 
ATOM      6  C   UNL     1      45.675   7.769  12.359  0.00  0.00    +0.000 A 
ATOM      7  C   UNL     1      46.266   6.520  12.206  0.00  0.00    +0.000 A 
ATOM      8  N   UNL     1      47.364   6.145  12.901  0.00  0.00    +0.000 NA
BRANCH   3   9
ATOM      9  O   UNL     1      49.020   6.682  14.474  0.00  0.00    +0.000 OA
BRANCH   9  14
ATOM     10  C   UNL     1      51.518   7.832  16.795  0.00  0.00    +0.000 C 
ATOM     11  C   UNL     1      51.305   7.310  15.387  0.00  0.00    +0.000 C 
ATOM     12  N   UNL     1      52.080   8.090  14.397  0.00  0.00    +0.000 NA
ATOM     13  C   UNL     1      50.938   8.027  13.464  0.00  0.00    +0.000 C 
ATOM     14  C   UNL     1      49.998   7.737  14.660  0.00  0.00    +0.000 C 
ATOM     15  H   UNL     1      52.928   7.635  14.063  0.00  0.00    +0.000 HD
ENDBRANCH   9  14
ENDBRANCH   3   9
ENDBRANCH   1   7
BRANCH   2  16
ATOM     16  C   UNL     1      43.727   4.354  10.216  0.00  0.00    +0.000 C 
BRANCH  16  17
ATOM     17  C   UNL     1      44.729   3.743   9.271  0.00  0.00    +0.000 A 
ATOM     18  C   UNL     1      45.429   4.529   8.357  0.00  0.00    +0.000 A 
ATOM     19  N   UNL     1      46.328   4.046   7.468  0.00  0.00    +0.000 NA
ATOM     20  C   UNL     1      46.527   2.689   7.479  0.00  0.00    +0.000 A 
ATOM     21  C   UNL     1      45.865   1.827   8.338  0.00  0.00    +0.000 A 
ATOM     22  F   UNL     1      46.067   0.503   8.333  0.00  0.00    +0.000 F 
ATOM     23  C   UNL     1      44.953   2.361   9.242  0.00  0.00    +0.000 A 
BRANCH  20  24
ATOM     24  C   UNL     1      47.528   2.173   6.491  0.00  0.00    +0.000 C 
ATOM     25  N   UNL     1      47.836   3.038   5.473  0.00  0.00    +0.000 N 
ATOM     26  O   UNL     1      48.054   1.071   6.559  0.00  0.00    +0.000 OA
ATOM     27  H   UNL     1      47.387   3.946   5.431  0.00  0.00    +0.000 HD
ATOM     28  H   UNL     1      48.500   2.756   4.767  0.00  0.00    +0.000 HD
ENDBRANCH  20  24
ENDBRANCH  16  17
ENDBRANCH   2  16
TORSDOF 6
ENDMDL
MODEL 5
REMARK VINA RESULT:    -6.900      3.564      8.661
REMARK INTER + INTRA:          -9.973
REMARK INTER:                  -9.717
REMARK INTRA:                  -0.256
REMARK UNBOUND:                -0.653
REMARK  Name = 
REMARK  7 active torsions:
REMARK  status: ('A' for Active; 'I' for Inactive)
REMARK    1  A    between atoms: C_1  and  C_2
REMARK    2  A    between atoms: C_5  and  O_6
REMARK    3  A    between atoms: O_6  and  C_7
REMARK    4  A    between atoms: C_11  and  C_12
REMARK    5  A    between atoms: C_13  and  C_14
REMARK    6  A    between atoms: C_14  and  C_15
REMARK    7  A    between atoms: C_18  and  C_19
REMARK                            x       y       z     vdW  Elec       q    Type
REMARK                         _______ _______ _______ _____ _____    ______ ____
ROOT
ATOM      1  C   UNL     1      46.782   3.990  14.799  0.00  0.00    +0.000 C 
ATOM      2  C   UNL     1      47.248   4.405  15.991  0.00  0.00    +0.000 C 
ENDROOT
BRANCH   1   7
ATOM      3  C   UNL     1      45.044   5.692  12.093  0.00  0.00    +0.000 A 
ATOM      4  C   UNL     1      45.964   6.588  11.582  0.00  0.00    +0.000 A 
ATOM      5  C   UNL     1      47.229   6.625  12.159  0.00  0.00    +0.000 A 
ATOM      6  C   UNL     1      47.518   5.777  13.228  0.00  0.00    +0.000 A 
ATOM      7  C   UNL     1      46.526   4.914  13.682  0.00  0.00    +0.000 A 
ATOM      8  N   UNL     1      45.297   4.860  13.120  0.00  0.00    +0.000 NA
BRANCH   3   9
ATOM      9  O   UNL     1      43.795   5.658  11.505  0.00  0.00    +0.000 OA
BRANCH   9  14
ATOM     10  C   UNL     1      44.992   4.025   8.530  0.00  0.00    +0.000 C 
ATOM     11  C   UNL     1      44.798   3.855  10.025  0.00  0.00    +0.000 C 
ATOM     12  N   UNL     1      44.238   2.524  10.350  0.00  0.00    +0.000 NA
ATOM     13  C   UNL     1      43.374   3.146  11.372  0.00  0.00    +0.000 C 
ATOM     14  C   UNL     1      43.537   4.509  10.658  0.00  0.00    +0.000 C 
ATOM     15  H   UNL     1      44.914   1.854  10.715  0.00  0.00    +0.000 HD
ENDBRANCH   9  14
ENDBRANCH   3   9
ENDBRANCH   1   7
BRANCH   2  16
ATOM     16  C   UNL     1      47.499   3.528  17.179  0.00  0.00    +0.000 C 
BRANCH  16  17
ATOM     17  C   UNL     1      48.973   3.361  17.445  0.00  0.00    +0.000 A 
ATOM     18  C   UNL     1      49.719   4.383  18.031  0.00  0.00    +0.000 A 
ATOM     19  N   UNL     1      51.047   4.310  18.280  0.00  0.00    +0.000 NA
ATOM     20  C   UNL     1      51.675   3.149  17.905  0.00  0.00    +0.000 A 
ATOM     21  C   UNL     1      51.020   2.087  17.301  0.00  0.00    +0.000 A 
ATOM     22  F   UNL     1      51.648   0.962  16.936  0.00  0.00    +0.000 F 
ATOM     23  C   UNL     1      49.654   2.197  17.066  0.00  0.00    +0.000 A 
BRANCH  20  24
ATOM     24  C   UNL     1      53.143   3.083  18.193  0.00  0.00    +0.000 C 
ATOM     25  N   UNL     1      53.497   2.223  19.200  0.00  0.00    +0.000 N 
ATOM     26  O   UNL     1      53.991   3.730  17.594  0.00  0.00    +0.000 OA
ATOM     27  H   UNL     1      52.780   1.698  19.688  0.00  0.00    +0.000 HD
ATOM     28  H   UNL     1      54.470   2.130  19.453  0.00  0.00    +0.000 HD
ENDBRANCH  20  24
ENDBRANCH  16  17
ENDBRANCH   2  16
TORSDOF 6
ENDMDL
MODEL 6
REMARK VINA RESULT:    -6.841      2.568      8.735
REMARK INTER + INTRA:          -9.894
REMARK INTER:                  -9.710
REMARK INTRA:                  -0.183
REMARK UNBOUND:                -0.653
REMARK  Name = 
REMARK  7 active torsions:
REMARK  status: ('A' for Active; 'I' for Inactive)
REMARK    1  A    between atoms: C_1  and  C_2
REMARK    2  A    between atoms: C_5  and  O_6
REMARK    3  A    between atoms: O_6  and  C_7
REMARK    4  A    between atoms: C_11  and  C_12
REMARK    5  A    between atoms: C_13  and  C_14
REMARK    6  A    between atoms: C_14  and  C_15
REMARK    7  A    between atoms: C_18  and  C_19
REMARK                            x       y       z     vdW  Elec       q    Type
REMARK                         _______ _______ _______ _____ _____    ______ ____
ROOT
ATOM      1  C   UNL     1      45.979   6.568  12.303  0.00  0.00    +0.000 C 
ATOM      2  C   UNL     1      47.193   6.276  12.803  0.00  0.00    +0.000 C 
ENDROOT
BRANCH   1   7
ATOM      3  C   UNL     1      45.480   4.825   9.148  0.00  0.00    +0.000 A 
ATOM      4  C   UNL     1      44.216   4.272   9.238  0.00  0.00    +0.000 A 
ATOM      5  C   UNL     1      43.488   4.495  10.402  0.00  0.00    +0.000 A 
ATOM      6  C   UNL     1      44.056   5.248  11.430  0.00  0.00    +0.000 A 
ATOM      7  C   UNL     1      45.338   5.757  11.254  0.00  0.00    +0.000 A 
ATOM      8  N   UNL     1      46.051   5.558  10.122  0.00  0.00    +0.000 NA
BRANCH   3   9
ATOM      9  O   UNL     1      46.189   4.604   7.983  0.00  0.00    +0.000 OA
BRANCH   9  14
ATOM     10  C   UNL     1      47.432   2.538   5.312  0.00  0.00    +0.000 C 
ATOM     11  C   UNL     1      47.349   2.667   6.821  0.00  0.00    +0.000 C 
ATOM     12  N   UNL     1      47.001   1.376   7.456  0.00  0.00    +0.000 NA
ATOM     13  C   UNL     1      46.117   2.088   8.400  0.00  0.00    +0.000 C 
ATOM     14  C   UNL     1      46.047   3.278   7.412  0.00  0.00    +0.000 C 
ATOM     15  H   UNL     1      47.783   0.889   7.890  0.00  0.00    +0.000 HD
ENDBRANCH   9  14
ENDBRANCH   3   9
ENDBRANCH   1   7
BRANCH   2  16
ATOM     16  C   UNL     1      47.919   7.074  13.843  0.00  0.00    +0.000 C 
BRANCH  16  17
ATOM     17  C   UNL     1      48.219   6.248  15.068  0.00  0.00    +0.000 A 
ATOM     18  C   UNL     1      49.276   6.574  15.915  0.00  0.00    +0.000 A 
ATOM     19  N   UNL     1      49.615   5.868  17.019  0.00  0.00    +0.000 NA
ATOM     20  C   UNL     1      48.861   4.753  17.284  0.00  0.00    +0.000 A 
ATOM     21  C   UNL     1      47.802   4.340  16.489  0.00  0.00    +0.000 A 
ATOM     22  F   UNL     1      47.078   3.247  16.759  0.00  0.00    +0.000 F 
ATOM     23  C   UNL     1      47.481   5.096  15.367  0.00  0.00    +0.000 A 
BRANCH  20  24
ATOM     24  C   UNL     1      49.246   3.986  18.511  0.00  0.00    +0.000 C 
ATOM     25  N   UNL     1      49.990   2.859  18.278  0.00  0.00    +0.000 N 
ATOM     26  O   UNL     1      48.940   4.312  19.650  0.00  0.00    +0.000 OA
ATOM     27  H   UNL     1      50.231   2.602  17.327  0.00  0.00    +0.000 HD
ATOM     28  H   UNL     1      50.282   2.288  19.058  0.00  0.00    +0.000 HD
ENDBRANCH  20  24
ENDBRANCH  16  17
ENDBRANCH   2  16
TORSDOF 6
ENDMDL
MODEL 7
REMARK VINA RESULT:    -6.738      3.273      4.203
REMARK INTER + INTRA:          -9.754
REMARK INTER:                  -9.612
REMARK INTRA:                  -0.142
REMARK UNBOUND:                -0.653
REMARK  Name = 
REMARK  7 active torsions:
REMARK  status: ('A' for Active; 'I' for Inactive)
REMARK    1  A    between atoms: C_1  and  C_2
REMARK    2  A    between atoms: C_5  and  O_6
REMARK    3  A    between atoms: O_6  and  C_7
REMARK    4  A    between atoms: C_11  and  C_12
REMARK    5  A    between atoms: C_13  and  C_14
REMARK    6  A    between atoms: C_14  and  C_15
REMARK    7  A    between atoms: C_18  and  C_19
REMARK                            x       y       z     vdW  Elec       q    Type
REMARK                         _______ _______ _______ _____ _____    ______ ____
ROOT
ATOM      1  C   UNL     1      45.740   5.918  11.022  0.00  0.00    +0.000 C 
ATOM      2  C   UNL     1      44.422   5.666  11.115  0.00  0.00    +0.000 C 
ENDROOT
BRANCH   1   7
ATOM      3  C   UNL     1      48.440   7.488  12.889  0.00  0.00    +0.000 A 
ATOM      4  C   UNL     1      47.829   8.465  13.653  0.00  0.00    +0.000 A 
ATOM      5  C   UNL     1      46.449   8.604  13.551  0.00  0.00    +0.000 A 
ATOM      6  C   UNL     1      45.740   7.775  12.682  0.00  0.00    +0.000 A 
ATOM      7  C   UNL     1      46.441   6.827  11.945  0.00  0.00    +0.000 A 
ATOM      8  N   UNL     1      47.781   6.672  12.045  0.00  0.00    +0.000 NA
BRANCH   3   9
ATOM      9  O   UNL     1      49.810   7.354  13.006  0.00  0.00    +0.000 OA
BRANCH   9  14
ATOM     10  C   UNL     1      53.191   8.390  12.337  0.00  0.00    +0.000 C 
ATOM     11  C   UNL     1      51.821   8.206  11.711  0.00  0.00    +0.000 C 
ATOM     12  N   UNL     1      51.458   9.359  10.856  0.00  0.00    +0.000 NA
ATOM     13  C   UNL     1      50.074   9.289  11.365  0.00  0.00    +0.000 C 
ATOM     14  C   UNL     1      50.585   8.512  12.603  0.00  0.00    +0.000 C 
ATOM     15  H   UNL     1      51.552   9.195   9.855  0.00  0.00    +0.000 HD
ENDBRANCH   9  14
ENDBRANCH   3   9
ENDBRANCH   1   7
BRANCH   2  16
ATOM     16  C   UNL     1      43.639   4.782  10.194  0.00  0.00    +0.000 C 
BRANCH  16  17
ATOM     17  C   UNL     1      44.538   3.864   9.406  0.00  0.00    +0.000 A 
ATOM     18  C   UNL     1      44.784   2.559   9.831  0.00  0.00    +0.000 A 
ATOM     19  N   UNL     1      45.594   1.688   9.186  0.00  0.00    +0.000 NA
ATOM     20  C   UNL     1      46.213   2.155   8.055  0.00  0.00    +0.000 A 
ATOM     21  C   UNL     1      46.044   3.441   7.567  0.00  0.00    +0.000 A 
ATOM     22  F   UNL     1      46.660   3.884   6.463  0.00  0.00    +0.000 F 
ATOM     23  C   UNL     1      45.199   4.306   8.253  0.00  0.00    +0.000 A 
BRANCH  20  24
ATOM     24  C   UNL     1      47.103   1.176   7.351  0.00  0.00    +0.000 C 
ATOM     25  N   UNL     1      46.774  -0.142   7.537  0.00  0.00    +0.000 N 
ATOM     26  O   UNL     1      48.056   1.492   6.653  0.00  0.00    +0.000 OA
ATOM     27  H   UNL     1      45.983  -0.385   8.123  0.00  0.00    +0.000 HD
ATOM     28  H   UNL     1      47.332  -0.859   7.097  0.00  0.00    +0.000 HD
ENDBRANCH  20  24
ENDBRANCH  16  17
ENDBRANCH   2  16
TORSDOF 6
ENDMDL
MODEL 8
REMARK VINA RESULT:    -6.691      2.802      3.892
REMARK INTER + INTRA:          -9.690
REMARK INTER:                  -9.100
REMARK INTRA:                  -0.590
REMARK UNBOUND:                -0.653
REMARK  Name = 
REMARK  7 active torsions:
REMARK  status: ('A' for Active; 'I' for Inactive)
REMARK    1  A    between atoms: C_1  and  C_2
REMARK    2  A    between atoms: C_5  and  O_6
REMARK    3  A    between atoms: O_6  and  C_7
REMARK    4  A    between atoms: C_11  and  C_12
REMARK    5  A    between atoms: C_13  and  C_14
REMARK    6  A    between atoms: C_14  and  C_15
REMARK    7  A    between atoms: C_18  and  C_19
REMARK                            x       y       z     vdW  Elec       q    Type
REMARK                         _______ _______ _______ _____ _____    ______ ____
ROOT
ATOM      1  C   UNL     1      48.987   7.609  13.321  0.00  0.00    +0.000 C 
ATOM      2  C   UNL     1      47.646   7.522  13.378  0.00  0.00    +0.000 C 
ENDROOT
BRANCH   1   7
ATOM      3  C   UNL     1      50.117   6.351  16.543  0.00  0.00    +0.000 A 
ATOM      4  C   UNL     1      51.372   6.902  16.724  0.00  0.00    +0.000 A 
ATOM      5  C   UNL     1      51.866   7.741  15.731  0.00  0.00    +0.000 A 
ATOM      6  C   UNL     1      51.095   7.983  14.594  0.00  0.00    +0.000 A 
ATOM      7  C   UNL     1      49.847   7.378  14.493  0.00  0.00    +0.000 A 
ATOM      8  N   UNL     1      49.350   6.571  15.459  0.00  0.00    +0.000 NA
BRANCH   3   9
ATOM      9  O   UNL     1      49.635   5.527  17.540  0.00  0.00    +0.000 OA
BRANCH   9  14
ATOM     10  C   UNL     1      48.859   2.135  16.622  0.00  0.00    +0.000 C 
ATOM     11  C   UNL     1      48.604   3.210  17.662  0.00  0.00    +0.000 C 
ATOM     12  N   UNL     1      47.171   3.280  18.027  0.00  0.00    +0.000 NA
ATOM     13  C   UNL     1      47.259   4.753  18.055  0.00  0.00    +0.000 C 
ATOM     14  C   UNL     1      48.521   4.679  17.161  0.00  0.00    +0.000 C 
ATOM     15  H   UNL     1      46.936   2.850  18.920  0.00  0.00    +0.000 HD
ENDBRANCH   9  14
ENDBRANCH   3   9
ENDBRANCH   1   7
BRANCH   2  16
ATOM     16  C   UNL     1      46.709   7.777  12.237  0.00  0.00    +0.000 C 
BRANCH  16  17
ATOM     17  C   UNL     1      45.980   6.524  11.825  0.00  0.00    +0.000 A 
ATOM     18  C   UNL     1      45.443   5.659  12.777  0.00  0.00    +0.000 A 
ATOM     19  N   UNL     1      44.795   4.508  12.481  0.00  0.00    +0.000 NA
ATOM     20  C   UNL     1      44.691   4.192  11.151  0.00  0.00    +0.000 A 
ATOM     21  C   UNL     1      45.209   4.981  10.135  0.00  0.00    +0.000 A 
ATOM     22  F   UNL     1      45.104   4.656   8.841  0.00  0.00    +0.000 F 
ATOM     23  C   UNL     1      45.863   6.159  10.478  0.00  0.00    +0.000 A 
BRANCH  20  24
ATOM     24  C   UNL     1      43.967   2.918  10.841  0.00  0.00    +0.000 C 
ATOM     25  N   UNL     1      44.587   2.108   9.926  0.00  0.00    +0.000 N 
ATOM     26  O   UNL     1      42.903   2.591  11.349  0.00  0.00    +0.000 OA
ATOM     27  H   UNL     1      45.466   2.397   9.512  0.00  0.00    +0.000 HD
ATOM     28  H   UNL     1      44.154   1.234   9.663  0.00  0.00    +0.000 HD
ENDBRANCH  20  24
ENDBRANCH  16  17
ENDBRANCH   2  16
TORSDOF 6
ENDMDL
MODEL 9
REMARK VINA RESULT:    -6.388      3.058      4.315
REMARK INTER + INTRA:          -9.281
REMARK INTER:                  -8.743
REMARK INTRA:                  -0.539
REMARK UNBOUND:                -0.653
REMARK  Name = 
REMARK  7 active torsions:
REMARK  status: ('A' for Active; 'I' for Inactive)
REMARK    1  A    between atoms: C_1  and  C_2
REMARK    2  A    between atoms: C_5  and  O_6
REMARK    3  A    between atoms: O_6  and  C_7
REMARK    4  A    between atoms: C_11  and  C_12
REMARK    5  A    between atoms: C_13  and  C_14
REMARK    6  A    between atoms: C_14  and  C_15
REMARK    7  A    between atoms: C_18  and  C_19
REMARK                            x       y       z     vdW  Elec       q    Type
REMARK                         _______ _______ _______ _____ _____    ______ ____
ROOT
ATOM      1  C   UNL     1      49.415   7.311  14.380  0.00  0.00    +0.000 C 
ATOM      2  C   UNL     1      48.134   7.058  14.052  0.00  0.00    +0.000 C 
ENDROOT
BRANCH   1   7
ATOM      3  C   UNL     1      50.271   5.516  17.427  0.00  0.00    +0.000 A 
ATOM      4  C   UNL     1      50.923   6.443  18.219  0.00  0.00    +0.000 A 
ATOM      5  C   UNL     1      51.080   7.732  17.721  0.00  0.00    +0.000 A 
ATOM      6  C   UNL     1      50.592   8.038  16.450  0.00  0.00    +0.000 A 
ATOM      7  C   UNL     1      49.958   7.038  15.721  0.00  0.00    +0.000 A 
ATOM      8  N   UNL     1      49.788   5.785  16.200  0.00  0.00    +0.000 NA
BRANCH   3   9
ATOM      9  O   UNL     1      50.115   4.243  17.937  0.00  0.00    +0.000 OA
BRANCH   9  14
ATOM     10  C   UNL     1      47.242   5.891  19.345  0.00  0.00    +0.000 C 
ATOM     11  C   UNL     1      47.707   5.006  18.204  0.00  0.00    +0.000 C 
ATOM     12  N   UNL     1      46.763   3.891  17.965  0.00  0.00    +0.000 NA
ATOM     13  C   UNL     1      47.905   2.983  17.742  0.00  0.00    +0.000 C 
ATOM     14  C   UNL     1      48.816   3.963  18.521  0.00  0.00    +0.000 C 
ATOM     15  H   UNL     1      46.153   4.014  17.158  0.00  0.00    +0.000 HD
ENDBRANCH   9  14
ENDBRANCH   3   9
ENDBRANCH   1   7
BRANCH   2  16
ATOM     16  C   UNL     1      47.506   7.341  12.722  0.00  0.00    +0.000 C 
BRANCH  16  17
ATOM     17  C   UNL     1      46.645   6.193  12.259  0.00  0.00    +0.000 A 
ATOM     18  C   UNL     1      45.706   6.363  11.243  0.00  0.00    +0.000 A 
ATOM     19  N   UNL     1      44.887   5.384  10.792  0.00  0.00    +0.000 NA
ATOM     20  C   UNL     1      45.000   4.163  11.406  0.00  0.00    +0.000 A 
ATOM     21  C   UNL     1      45.892   3.906  12.436  0.00  0.00    +0.000 A 
ATOM     22  F   UNL     1      45.987   2.709  13.030  0.00  0.00    +0.000 F 
ATOM     23  C   UNL     1      46.721   4.935  12.869  0.00  0.00    +0.000 A 
BRANCH  20  24
ATOM     24  C   UNL     1      44.090   3.091  10.891  0.00  0.00    +0.000 C 
ATOM     25  N   UNL     1      44.644   2.269   9.943  0.00  0.00    +0.000 N 
ATOM     26  O   UNL     1      42.938   2.928  11.267  0.00  0.00    +0.000 OA
ATOM     27  H   UNL     1      45.599   2.421   9.641  0.00  0.00    +0.000 HD
ATOM     28  H   UNL     1      44.087   1.525   9.546  0.00  0.00    +0.000 HD
ENDBRANCH  20  24
ENDBRANCH  16  17
ENDBRANCH   2  16
TORSDOF 6
ENDMDL
