MODEL 1
REMARK VINA RESULT:    -8.358      0.000      0.000
REMARK INTER + INTRA:         -10.696
REMARK INTER:                 -10.313
REMARK INTRA:                  -0.383
REMARK UNBOUND:                -0.383
REMARK  Name = 
REMARK  4 active torsions:
REMARK  status: ('A' for Active; 'I' for Inactive)
REMARK    1  A    between atoms: C_2  and  C_4
REMARK    2  A    between atoms: C_7  and  C_8
REMARK    3  A    between atoms: C_8  and  C_9
REMARK    4  A    between atoms: C_9  and  C_10
REMARK                            x       y       z     vdW  Elec       q    Type
REMARK                         _______ _______ _______ _____ _____    ______ ____
ROOT
ATOM      1  C   UNL     1      46.419   2.574   7.699  0.00  0.00    +0.000 A 
ATOM      2  N   UNL     1      45.699   1.841   8.584  0.00  0.00    +0.000 NA
ATOM      3  C   UNL     1      44.865   2.569   9.360  0.00  0.00    +0.000 A 
ATOM      4  C   UNL     1      44.756   3.947   9.302  0.00  0.00    +0.000 A 
ATOM      5  N   UNL     1      45.478   4.609   8.370  0.00  0.00    +0.000 NA
ATOM      6  N   UNL     1      46.331   3.911   7.554  0.00  0.00    +0.000 NA
ENDROOT
BRANCH   1   8
ATOM      7  N   UNL     1      48.503   2.578   6.438  0.00  0.00    +0.000 N 
ATOM      8  C   UNL     1      47.429   1.833   6.870  0.00  0.00    +0.000 C 
ATOM      9  O   UNL     1      47.329   0.648   6.565  0.00  0.00    +0.000 OA
ATOM     10  H   UNL     1      49.168   2.163   5.798  0.00  0.00    +0.000 HD
ATOM     11  H   UNL     1      48.546   3.570   6.643  0.00  0.00    +0.000 HD
ENDBRANCH   1   8
BRANCH   4  12
ATOM     12  C   UNL     1      43.819   4.768  10.154  0.00  0.00    +0.000 C 
BRANCH  12  13
ATOM     13  C   UNL     1      44.048   4.664  11.662  0.00  0.00    +0.000 C 
ATOM     14  C   UNL     1      43.369   3.511  12.391  0.00  0.00    +0.000 C 
ATOM     15  C   UNL     1      42.855   4.900  12.593  0.00  0.00    +0.000 C 
BRANCH  13  16
ATOM     16  C   UNL     1      45.367   5.218  12.192  0.00  0.00    +0.000 A 
ATOM     17  C   UNL     1      46.049   4.599  13.254  0.00  0.00    +0.000 A 
ATOM     18  C   UNL     1      47.302   5.052  13.685  0.00  0.00    +0.000 A 
ATOM     19  C   UNL     1      47.889   6.153  13.066  0.00  0.00    +0.000 A 
ATOM     20  C   UNL     1      47.217   6.790  12.032  0.00  0.00    +0.000 A 
ATOM     21  F   UNL     1      47.774   7.846  11.429  0.00  0.00    +0.000 F 
ATOM     22  C   UNL     1      45.979   6.333  11.596  0.00  0.00    +0.000 A 
ENDBRANCH  13  16
ENDBRANCH  12  13
ENDBRANCH   4  12
TORSDOF 4
ENDMDL
MODEL 2
REMARK VINA RESULT:    -7.891      0.923      1.475
REMARK INTER + INTRA:         -10.120
REMARK INTER:                  -9.841
REMARK INTRA:                  -0.279
REMARK UNBOUND:                -0.383
REMARK  Name = 
REMARK  4 active torsions:
REMARK  status: ('A' for Active; 'I' for Inactive)
REMARK    1  A    between atoms: C_2  and  C_4
REMARK    2  A    between atoms: C_7  and  C_8
REMARK    3  A    between atoms: C_8  and  C_9
REMARK    4  A    between atoms: C_9  and  C_10
REMARK                            x       y       z     vdW  Elec       q    Type
REMARK                         _______ _______ _______ _____ _____    ______ ____
ROOT
ATOM      1  C   UNL     1      46.412   2.597   7.726  0.00  0.00    +0.000 A 
ATOM      2  N   UNL     1      45.685   1.844   8.588  0.00  0.00    +0.000 NA
ATOM      3  C   UNL     1      44.841   2.554   9.370  0.00  0.00    +0.000 A 
ATOM      4  C   UNL     1      44.729   3.932   9.340  0.00  0.00    +0.000 A 
ATOM      5  N   UNL     1      45.459   4.615   8.430  0.00  0.00    +0.000 NA
ATOM      6  N   UNL     1      46.322   3.936   7.608  0.00  0.00    +0.000 NA
ENDROOT
BRANCH   1   8
ATOM      7  N   UNL     1      48.502   2.636   6.475  0.00  0.00    +0.000 N 
ATOM      8  C   UNL     1      47.432   1.876   6.893  0.00  0.00    +0.000 C 
ATOM      9  O   UNL     1      47.345   0.694   6.571  0.00  0.00    +0.000 OA
ATOM     10  H   UNL     1      49.174   2.236   5.833  0.00  0.00    +0.000 HD
ATOM     11  H   UNL     1      48.535   3.626   6.694  0.00  0.00    +0.000 HD
ENDBRANCH   1   8
BRANCH   4  12
ATOM     12  C   UNL     1      43.781   4.733  10.198  0.00  0.00    +0.000 C 
BRANCH  12  13
ATOM     13  C   UNL     1      44.282   5.043  11.609  0.00  0.00    +0.000 C 
ATOM     14  C   UNL     1      44.408   3.871  12.576  0.00  0.00    +0.000 C 
ATOM     15  C   UNL     1      43.309   4.864  12.778  0.00  0.00    +0.000 C 
BRANCH  13  16
ATOM     16  C   UNL     1      45.212   6.243  11.755  0.00  0.00    +0.000 A 
ATOM     17  C   UNL     1      44.708   7.548  11.900  0.00  0.00    +0.000 A 
ATOM     18  C   UNL     1      45.555   8.641  12.124  0.00  0.00    +0.000 A 
ATOM     19  C   UNL     1      46.932   8.446  12.188  0.00  0.00    +0.000 A 
ATOM     20  C   UNL     1      47.447   7.166  12.023  0.00  0.00    +0.000 A 
ATOM     21  F   UNL     1      48.767   6.969  12.087  0.00  0.00    +0.000 F 
ATOM     22  C   UNL     1      46.605   6.080  11.814  0.00  0.00    +0.000 A 
ENDBRANCH  13  16
ENDBRANCH  12  13
ENDBRANCH   4  12
TORSDOF 4
ENDMDL
MODEL 3
REMARK VINA RESULT:    -6.816      4.463      6.309
REMARK INTER + INTRA:          -8.794
REMARK INTER:                  -8.760
REMARK INTRA:                  -0.034
REMARK UNBOUND:                -0.383
REMARK  Name = 
REMARK  4 active torsions:
REMARK  status: ('A' for Active; 'I' for Inactive)
REMARK    1  A    between atoms: C_2  and  C_4
REMARK    2  A    between atoms: C_7  and  C_8
REMARK    3  A    between atoms: C_8  and  C_9
REMARK    4  A    between atoms: C_9  and  C_10
REMARK                            x       y       z     vdW  Elec       q    Type
REMARK                         _______ _______ _______ _____ _____    ______ ____
ROOT
ATOM      1  C   UNL     1      48.079   6.233  14.217  0.00  0.00    +0.000 A 
ATOM      2  N   UNL     1      47.567   6.635  13.027  0.00  0.00    +0.000 NA
ATOM      3  C   UNL     1      46.603   5.824  12.535  0.00  0.00    +0.000 A 
ATOM      4  C   UNL     1      46.179   4.660  13.152  0.00  0.00    +0.000 A 
ATOM      5  N   UNL     1      46.708   4.342  14.354  0.00  0.00    +0.000 NA
ATOM      6  N   UNL     1      47.682   5.140  14.898  0.00  0.00    +0.000 NA
ENDROOT
BRANCH   1   8
ATOM      7  N   UNL     1      50.185   7.406  13.866  0.00  0.00    +0.000 N 
ATOM      8  C   UNL     1      49.215   7.044  14.773  0.00  0.00    +0.000 C 
ATOM      9  O   UNL     1      49.314   7.367  15.953  0.00  0.00    +0.000 OA
ATOM     10  H   UNL     1      51.022   7.870  14.194  0.00  0.00    +0.000 HD
ATOM     11  H   UNL     1      50.126   7.083  12.906  0.00  0.00    +0.000 HD
ENDBRANCH   1   8
BRANCH   4  12
ATOM     12  C   UNL     1      45.095   3.756  12.618  0.00  0.00    +0.000 C 
BRANCH  12  13
ATOM     13  C   UNL     1      44.391   4.257  11.357  0.00  0.00    +0.000 C 
ATOM     14  C   UNL     1      43.707   5.616  11.436  0.00  0.00    +0.000 C 
ATOM     15  C   UNL     1      42.865   4.383  11.383  0.00  0.00    +0.000 C 
BRANCH  13  16
ATOM     16  C   UNL     1      44.950   3.771  10.023  0.00  0.00    +0.000 A 
ATOM     17  C   UNL     1      45.431   4.673   9.057  0.00  0.00    +0.000 A 
ATOM     18  C   UNL     1      46.026   4.227   7.870  0.00  0.00    +0.000 A 
ATOM     19  C   UNL     1      46.133   2.861   7.621  0.00  0.00    +0.000 A 
ATOM     20  C   UNL     1      45.639   1.958   8.554  0.00  0.00    +0.000 A 
ATOM     21  F   UNL     1      45.740   0.645   8.325  0.00  0.00    +0.000 F 
ATOM     22  C   UNL     1      45.061   2.400   9.738  0.00  0.00    +0.000 A 
ENDBRANCH  13  16
ENDBRANCH  12  13
ENDBRANCH   4  12
TORSDOF 4
ENDMDL
MODEL 4
REMARK VINA RESULT:    -6.797      4.622      6.379
REMARK INTER + INTRA:          -8.770
REMARK INTER:                  -9.154
REMARK INTRA:                   0.384
REMARK UNBOUND:                -0.383
REMARK  Name = 
REMARK  4 active torsions:
REMARK  status: ('A' for Active; 'I' for Inactive)
REMARK    1  A    between atoms: C_2  and  C_4
REMARK    2  A    between atoms: C_7  and  C_8
REMARK    3  A    between atoms: C_8  and  C_9
REMARK    4  A    between atoms: C_9  and  C_10
REMARK                            x       y       z     vdW  Elec       q    Type
REMARK                         _______ _______ _______ _____ _____    ______ ____
ROOT
ATOM      1  C   UNL     1      47.813   3.859  15.656  0.00  0.00    +0.000 A 
ATOM      2  N   UNL     1      47.261   3.157  14.635  0.00  0.00    +0.000 NA
ATOM      3  C   UNL     1      46.997   3.895  13.533  0.00  0.00    +0.000 A 
ATOM      4  C   UNL     1      47.227   5.256  13.436  0.00  0.00    +0.000 A 
ATOM      5  N   UNL     1      47.813   5.882  14.481  0.00  0.00    +0.000 NA
ATOM      6  N   UNL     1      48.109   5.173  15.617  0.00  0.00    +0.000 NA
ENDROOT
BRANCH   1   8
ATOM      7  N   UNL     1      46.914   2.748  17.628  0.00  0.00    +0.000 N 
ATOM      8  C   UNL     1      48.048   3.115  16.939  0.00  0.00    +0.000 C 
ATOM      9  O   UNL     1      49.161   2.847  17.384  0.00  0.00    +0.000 OA
ATOM     10  H   UNL     1      47.005   2.329  18.544  0.00  0.00    +0.000 HD
ATOM     11  H   UNL     1      46.001   3.026  17.285  0.00  0.00    +0.000 HD
ENDBRANCH   1   8
BRANCH   4  12
ATOM     12  C   UNL     1      46.948   6.085  12.207  0.00  0.00    +0.000 C 
BRANCH  12  13
ATOM     13  C   UNL     1      45.530   5.968  11.650  0.00  0.00    +0.000 C 
ATOM     14  C   UNL     1      44.721   7.254  11.531  0.00  0.00    +0.000 C 
ATOM     15  C   UNL     1      44.357   6.263  12.589  0.00  0.00    +0.000 C 
BRANCH  13  16
ATOM     16  C   UNL     1      45.270   4.822  10.676  0.00  0.00    +0.000 A 
ATOM     17  C   UNL     1      44.555   3.676  11.067  0.00  0.00    +0.000 A 
ATOM     18  C   UNL     1      44.238   2.663  10.153  0.00  0.00    +0.000 A 
ATOM     19  C   UNL     1      44.652   2.773   8.828  0.00  0.00    +0.000 A 
ATOM     20  C   UNL     1      45.381   3.887   8.433  0.00  0.00    +0.000 A 
ATOM     21  F   UNL     1      45.779   4.003   7.162  0.00  0.00    +0.000 F 
ATOM     22  C   UNL     1      45.683   4.899   9.337  0.00  0.00    +0.000 A 
ENDBRANCH  13  16
ENDBRANCH  12  13
ENDBRANCH   4  12
TORSDOF 4
ENDMDL
MODEL 5
REMARK VINA RESULT:    -6.494      4.911      6.763
REMARK INTER + INTRA:          -8.396
REMARK INTER:                  -8.817
REMARK INTRA:                   0.421
REMARK UNBOUND:                -0.383
REMARK  Name = 
REMARK  4 active torsions:
REMARK  status: ('A' for Active; 'I' for Inactive)
REMARK    1  A    between atoms: C_2  and  C_4
REMARK    2  A    between atoms: C_7  and  C_8
REMARK    3  A    between atoms: C_8  and  C_9
REMARK    4  A    between atoms: C_9  and  C_10
REMARK                            x       y       z     vdW  Elec       q    Type
REMARK                         _______ _______ _______ _____ _____    ______ ____
ROOT
ATOM      1  C   UNL     1      47.692   4.412  16.004  0.00  0.00    +0.000 A 
ATOM      2  N   UNL     1      46.875   3.776  15.128  0.00  0.00    +0.000 NA
ATOM      3  C   UNL     1      46.768   4.384  13.925  0.00  0.00    +0.000 A 
ATOM      4  C   UNL     1      47.399   5.571  13.598  0.00  0.00    +0.000 A 
ATOM      5  N   UNL     1      48.227   6.129  14.508  0.00  0.00    +0.000 NA
ATOM      6  N   UNL     1      48.375   5.542  15.739  0.00  0.00    +0.000 NA
ENDROOT
BRANCH   1   8
ATOM      7  N   UNL     1      46.909   2.804  17.658  0.00  0.00    +0.000 N 
ATOM      8  C   UNL     1      47.782   3.834  17.387  0.00  0.00    +0.000 C 
ATOM      9  O   UNL     1      48.558   4.236  18.250  0.00  0.00    +0.000 OA
ATOM     10  H   UNL     1      46.854   2.436  18.599  0.00  0.00    +0.000 HD
ATOM     11  H   UNL     1      46.231   2.519  16.960  0.00  0.00    +0.000 HD
ENDBRANCH   1   8
BRANCH   4  12
ATOM     12  C   UNL     1      47.297   6.251  12.254  0.00  0.00    +0.000 C 
BRANCH  12  13
ATOM     13  C   UNL     1      45.877   6.424  11.717  0.00  0.00    +0.000 C 
ATOM     14  C   UNL     1      45.364   7.850  11.554  0.00  0.00    +0.000 C 
ATOM     15  C   UNL     1      44.814   7.003  12.656  0.00  0.00    +0.000 C 
BRANCH  13  16
ATOM     16  C   UNL     1      45.356   5.325  10.795  0.00  0.00    +0.000 A 
ATOM     17  C   UNL     1      45.679   5.303   9.426  0.00  0.00    +0.000 A 
ATOM     18  C   UNL     1      45.277   4.249   8.595  0.00  0.00    +0.000 A 
ATOM     19  C   UNL     1      44.524   3.202   9.122  0.00  0.00    +0.000 A 
ATOM     20  C   UNL     1      44.177   3.223  10.466  0.00  0.00    +0.000 A 
ATOM     21  F   UNL     1      43.457   2.221  10.981  0.00  0.00    +0.000 F 
ATOM     22  C   UNL     1      44.587   4.262  11.293  0.00  0.00    +0.000 A 
ENDBRANCH  13  16
ENDBRANCH  12  13
ENDBRANCH   4  12
TORSDOF 4
ENDMDL
MODEL 6
REMARK VINA RESULT:    -6.484      4.362      6.399
REMARK INTER + INTRA:          -8.384
REMARK INTER:                  -8.277
REMARK INTRA:                  -0.108
REMARK UNBOUND:                -0.383
REMARK  Name = 
REMARK  4 active torsions:
REMARK  status: ('A' for Active; 'I' for Inactive)
REMARK    1  A    between atoms: C_2  and  C_4
REMARK    2  A    between atoms: C_7  and  C_8
REMARK    3  A    between atoms: C_8  and  C_9
REMARK    4  A    between atoms: C_9  and  C_10
REMARK                            x       y       z     vdW  Elec       q    Type
REMARK                         _______ _______ _______ _____ _____    ______ ____
ROOT
ATOM      1  C   UNL     1      46.853   8.676  12.370  0.00  0.00    +0.000 A 
ATOM      2  N   UNL     1      47.656   7.779  11.745  0.00  0.00    +0.000 NA
ATOM      3  C   UNL     1      47.165   6.520  11.714  0.00  0.00    +0.000 A 
ATOM      4  C   UNL     1      45.966   6.140  12.291  0.00  0.00    +0.000 A 
ATOM      5  N   UNL     1      45.201   7.094  12.865  0.00  0.00    +0.000 NA
ATOM      6  N   UNL     1      45.653   8.388  12.912  0.00  0.00    +0.000 NA
ENDROOT
BRANCH   1   8
ATOM      7  N   UNL     1      46.459  11.079  12.346  0.00  0.00    +0.000 N 
ATOM      8  C   UNL     1      47.383  10.073  12.515  0.00  0.00    +0.000 C 
ATOM      9  O   UNL     1      48.558  10.341  12.753  0.00  0.00    +0.000 OA
ATOM     10  H   UNL     1      46.770  12.042  12.337  0.00  0.00    +0.000 HD
ATOM     11  H   UNL     1      45.504  10.851  12.090  0.00  0.00    +0.000 HD
ENDBRANCH   1   8
BRANCH   4  12
ATOM     12  C   UNL     1      45.403   4.741  12.250  0.00  0.00    +0.000 C 
BRANCH  12  13
ATOM     13  C   UNL     1      44.428   4.463  11.106  0.00  0.00    +0.000 C 
ATOM     14  C   UNL     1      43.191   5.349  11.016  0.00  0.00    +0.000 C 
ATOM     15  C   UNL     1      43.036   3.929  11.455  0.00  0.00    +0.000 C 
BRANCH  13  16
ATOM     16  C   UNL     1      45.020   3.865   9.834  0.00  0.00    +0.000 A 
ATOM     17  C   UNL     1      45.582   4.678   8.833  0.00  0.00    +0.000 A 
ATOM     18  C   UNL     1      46.206   4.127   7.706  0.00  0.00    +0.000 A 
ATOM     19  C   UNL     1      46.261   2.744   7.553  0.00  0.00    +0.000 A 
ATOM     20  C   UNL     1      45.688   1.929   8.520  0.00  0.00    +0.000 A 
ATOM     21  F   UNL     1      45.739   0.600   8.383  0.00  0.00    +0.000 F 
ATOM     22  C   UNL     1      45.081   2.475   9.645  0.00  0.00    +0.000 A 
ENDBRANCH  13  16
ENDBRANCH  12  13
ENDBRANCH   4  12
TORSDOF 4
ENDMDL
MODEL 7
REMARK VINA RESULT:    -5.969      5.208      7.127
REMARK INTER + INTRA:          -7.748
REMARK INTER:                  -7.848
REMARK INTRA:                   0.099
REMARK UNBOUND:                -0.383
REMARK  Name = 
REMARK  4 active torsions:
REMARK  status: ('A' for Active; 'I' for Inactive)
REMARK    1  A    between atoms: C_2  and  C_4
REMARK    2  A    between atoms: C_7  and  C_8
REMARK    3  A    between atoms: C_8  and  C_9
REMARK    4  A    between atoms: C_9  and  C_10
REMARK                            x       y       z     vdW  Elec       q    Type
REMARK                         _______ _______ _______ _____ _____    ______ ____
ROOT
ATOM      1  C   UNL     1      48.370   5.788  16.184  0.00  0.00    +0.000 A 
ATOM      2  N   UNL     1      47.614   4.760  16.645  0.00  0.00    +0.000 NA
ATOM      3  C   UNL     1      46.985   4.055  15.678  0.00  0.00    +0.000 A 
ATOM      4  C   UNL     1      47.058   4.352  14.329  0.00  0.00    +0.000 A 
ATOM      5  N   UNL     1      47.860   5.368  13.939  0.00  0.00    +0.000 NA
ATOM      6  N   UNL     1      48.527   6.105  14.884  0.00  0.00    +0.000 NA
ENDROOT
BRANCH   1   8
ATOM      7  N   UNL     1      48.165   7.292  18.088  0.00  0.00    +0.000 N 
ATOM      8  C   UNL     1      49.023   6.663  17.214  0.00  0.00    +0.000 C 
ATOM      9  O   UNL     1      50.235   6.843  17.293  0.00  0.00    +0.000 OA
ATOM     10  H   UNL     1      48.534   7.968  18.744  0.00  0.00    +0.000 HD
ATOM     11  H   UNL     1      47.163   7.186  17.977  0.00  0.00    +0.000 HD
ENDBRANCH   1   8
BRANCH   4  12
ATOM     12  C   UNL     1      46.371   3.564  13.241  0.00  0.00    +0.000 C 
BRANCH  12  13
ATOM     13  C   UNL     1      45.284   4.320  12.476  0.00  0.00    +0.000 C 
ATOM     14  C   UNL     1      44.903   5.702  12.993  0.00  0.00    +0.000 C 
ATOM     15  C   UNL     1      43.946   4.569  13.177  0.00  0.00    +0.000 C 
BRANCH  13  16
ATOM     16  C   UNL     1      45.155   4.010  10.987  0.00  0.00    +0.000 A 
ATOM     17  C   UNL     1      45.411   4.988  10.010  0.00  0.00    +0.000 A 
ATOM     18  C   UNL     1      45.381   4.684   8.643  0.00  0.00    +0.000 A 
ATOM     19  C   UNL     1      45.074   3.391   8.229  0.00  0.00    +0.000 A 
ATOM     20  C   UNL     1      44.794   2.420   9.182  0.00  0.00    +0.000 A 
ATOM     21  F   UNL     1      44.501   1.174   8.794  0.00  0.00    +0.000 F 
ATOM     22  C   UNL     1      44.837   2.718  10.539  0.00  0.00    +0.000 A 
ENDBRANCH  13  16
ENDBRANCH  12  13
ENDBRANCH   4  12
TORSDOF 4
ENDMDL
MODEL 8
REMARK VINA RESULT:    -5.793      4.970      6.978
REMARK INTER + INTRA:          -7.532
REMARK INTER:                  -7.694
REMARK INTRA:                   0.163
REMARK UNBOUND:                -0.383
REMARK  Name = 
REMARK  4 active torsions:
REMARK  status: ('A' for Active; 'I' for Inactive)
REMARK    1  A    between atoms: C_2  and  C_4
REMARK    2  A    between atoms: C_7  and  C_8
REMARK    3  A    between atoms: C_8  and  C_9
REMARK    4  A    between atoms: C_9  and  C_10
REMARK                            x       y       z     vdW  Elec       q    Type
REMARK                         _______ _______ _______ _____ _____    ______ ____
ROOT
ATOM      1  C   UNL     1      47.858   4.538  16.439  0.00  0.00    +0.000 A 
ATOM      2  N   UNL     1      48.401   5.780  16.402  0.00  0.00    +0.000 NA
ATOM      3  C   UNL     1      48.353   6.372  15.187  0.00  0.00    +0.000 A 
ATOM      4  C   UNL     1      47.832   5.775  14.053  0.00  0.00    +0.000 A 
ATOM      5  N   UNL     1      47.274   4.549  14.173  0.00  0.00    +0.000 NA
ATOM      6  N   UNL     1      47.290   3.914  15.388  0.00  0.00    +0.000 NA
ENDROOT
BRANCH   1   8
ATOM      7  N   UNL     1      47.172   2.669  17.842  0.00  0.00    +0.000 N 
ATOM      8  C   UNL     1      47.960   3.793  17.739  0.00  0.00    +0.000 C 
ATOM      9  O   UNL     1      48.674   4.141  18.675  0.00  0.00    +0.000 OA
ATOM     10  H   UNL     1      47.123   2.178  18.725  0.00  0.00    +0.000 HD
ATOM     11  H   UNL     1      46.539   2.424  17.088  0.00  0.00    +0.000 HD
ENDBRANCH   1   8
BRANCH   4  12
ATOM     12  C   UNL     1      47.761   6.431  12.696  0.00  0.00    +0.000 C 
BRANCH  12  13
ATOM     13  C   UNL     1      46.427   7.099  12.364  0.00  0.00    +0.000 C 
ATOM     14  C   UNL     1      46.481   8.493  11.749  0.00  0.00    +0.000 C 
ATOM     15  C   UNL     1      46.021   8.341  13.163  0.00  0.00    +0.000 C 
BRANCH  13  16
ATOM     16  C   UNL     1      45.264   6.171  12.027  0.00  0.00    +0.000 A 
ATOM     17  C   UNL     1      44.279   5.855  12.979  0.00  0.00    +0.000 A 
ATOM     18  C   UNL     1      43.162   5.076  12.648  0.00  0.00    +0.000 A 
ATOM     19  C   UNL     1      43.023   4.583  11.353  0.00  0.00    +0.000 A 
ATOM     20  C   UNL     1      44.000   4.867  10.408  0.00  0.00    +0.000 A 
ATOM     21  F   UNL     1      43.873   4.400   9.162  0.00  0.00    +0.000 F 
ATOM     22  C   UNL     1      45.101   5.650  10.733  0.00  0.00    +0.000 A 
ENDBRANCH  13  16
ENDBRANCH  12  13
ENDBRANCH   4  12
TORSDOF 4
ENDMDL
MODEL 9
REMARK VINA RESULT:    -5.363      4.769      6.982
REMARK INTER + INTRA:          -7.000
REMARK INTER:                  -6.518
REMARK INTRA:                  -0.482
REMARK UNBOUND:                -0.383
REMARK  Name = 
REMARK  4 active torsions:
REMARK  status: ('A' for Active; 'I' for Inactive)
REMARK    1  A    between atoms: C_2  and  C_4
REMARK    2  A    between atoms: C_7  and  C_8
REMARK    3  A    between atoms: C_8  and  C_9
REMARK    4  A    between atoms: C_9  and  C_10
REMARK                            x       y       z     vdW  Elec       q    Type
REMARK                         _______ _______ _______ _____ _____    ______ ____
ROOT
ATOM      1  C   UNL     1      45.170   5.085  13.382  0.00  0.00    +0.000 A 
ATOM      2  N   UNL     1      45.365   6.353  12.943  0.00  0.00    +0.000 NA
ATOM      3  C   UNL     1      46.588   6.857  13.224  0.00  0.00    +0.000 A 
ATOM      4  C   UNL     1      47.565   6.175  13.927  0.00  0.00    +0.000 A 
ATOM      5  N   UNL     1      47.314   4.902  14.302  0.00  0.00    +0.000 NA
ATOM      6  N   UNL     1      46.091   4.344  14.029  0.00  0.00    +0.000 NA
ENDROOT
BRANCH   1   8
ATOM      7  N   UNL     1      42.775   5.413  13.087  0.00  0.00    +0.000 N 
ATOM      8  C   UNL     1      43.802   4.501  13.178  0.00  0.00    +0.000 C 
ATOM      9  O   UNL     1      43.573   3.297  13.109  0.00  0.00    +0.000 OA
ATOM     10  H   UNL     1      41.820   5.082  13.045  0.00  0.00    +0.000 HD
ATOM     11  H   UNL     1      42.965   6.403  13.206  0.00  0.00    +0.000 HD
ENDBRANCH   1   8
BRANCH   4  12
ATOM     12  C   UNL     1      48.937   6.724  14.234  0.00  0.00    +0.000 C 
BRANCH  12  13
ATOM     13  C   UNL     1      49.058   7.470  15.563  0.00  0.00    +0.000 C 
ATOM     14  C   UNL     1      48.529   8.899  15.608  0.00  0.00    +0.000 C 
ATOM     15  C   UNL     1      50.006   8.671  15.635  0.00  0.00    +0.000 C 
BRANCH  13  16
ATOM     16  C   UNL     1      49.039   6.619  16.829  0.00  0.00    +0.000 A 
ATOM     17  C   UNL     1      48.253   6.974  17.940  0.00  0.00    +0.000 A 
ATOM     18  C   UNL     1      48.164   6.150  19.069  0.00  0.00    +0.000 A 
ATOM     19  C   UNL     1      48.881   4.957  19.111  0.00  0.00    +0.000 A 
ATOM     20  C   UNL     1      49.682   4.605  18.032  0.00  0.00    +0.000 A 
ATOM     21  F   UNL     1      50.371   3.460  18.063  0.00  0.00    +0.000 F 
ATOM     22  C   UNL     1      49.759   5.417  16.907  0.00  0.00    +0.000 A 
ENDBRANCH  13  16
ENDBRANCH  12  13
ENDBRANCH   4  12
TORSDOF 4
ENDMDL
