MODEL 1
REMARK VINA RESULT:    -7.974      0.000      0.000
REMARK INTER + INTRA:         -11.960
REMARK INTER:                 -10.772
REMARK INTRA:                  -1.188
REMARK UNBOUND:                -1.188
REMARK  Name = 
REMARK  6 active torsions:
REMARK  status: ('A' for Active; 'I' for Inactive)
REMARK    1  A    between atoms: C_2  and  C_25
REMARK    2  A    between atoms: N_3  and  C_4
REMARK    3  A    between atoms: C_4  and  C_5
REMARK    4  A    between atoms: C_8  and  C_9
REMARK    5  A    between atoms: C_9  and  N_10
REMARK    6  A    between atoms: C_11  and  C_13
REMARK                            x       y       z     vdW  Elec       q    Type
REMARK                         _______ _______ _______ _____ _____    ______ ____
ROOT
ATOM      1  C   UNL     1      45.032   5.434  11.251  0.00  0.00    +0.000 C 
ATOM      2  C   UNL     1      44.220   6.581  11.860  0.00  0.00    +0.000 C 
ATOM      3  C   UNL     1      45.019   7.368  12.889  0.00  0.00    +0.000 C 
ATOM      4  C   UNL     1      46.331   7.918  12.313  0.00  0.00    +0.000 C 
ATOM      5  C   UNL     1      47.160   6.757  11.742  0.00  0.00    +0.000 C 
ATOM      6  C   UNL     1      46.375   5.948  10.708  0.00  0.00    +0.000 C 
ENDROOT
BRANCH   1   7
ATOM      7  C   UNL     1      44.238   4.735  10.134  0.00  0.00    +0.000 C 
BRANCH   7  10
ATOM      8  O   UNL     1      44.580   2.031   9.365  0.00  0.00    +0.000 OA
ATOM      9  C   UNL     1      45.196   2.908   8.762  0.00  0.00    +0.000 C 
ATOM     10  N   UNL     1      45.106   4.243   9.086  0.00  0.00    +0.000 N 
ATOM     11  H   UNL     1      45.474   4.911   8.422  0.00  0.00    +0.000 HD
BRANCH   9  12
ATOM     12  C   UNL     1      46.068   2.611   7.649  0.00  0.00    +0.000 A 
ATOM     13  C   UNL     1      46.352   3.302   6.478  0.00  0.00    +0.000 A 
ATOM     14  C   UNL     1      47.292   2.546   5.733  0.00  0.00    +0.000 A 
ATOM     15  C   UNL     1      47.574   1.415   6.462  0.00  0.00    +0.000 A 
ATOM     16  N   UNL     1      46.838   1.466   7.617  0.00  0.00    +0.000 N 
ATOM     17  H   UNL     1      46.845   0.774   8.359  0.00  0.00    +0.000 HD
ENDBRANCH   9  12
ENDBRANCH   7  10
ENDBRANCH   1   7
BRANCH   4  18
ATOM     18  C   UNL     1      47.142   8.695  13.367  0.00  0.00    +0.000 C 
BRANCH  18  19
ATOM     19  N   UNL     1      47.452   7.896  14.538  0.00  0.00    +0.000 N 
ATOM     20  C   UNL     1      48.725   7.429  14.769  0.00  0.00    +0.000 C 
ATOM     21  O   UNL     1      49.672   7.730  14.048  0.00  0.00    +0.000 OA
ATOM     22  H   UNL     1      46.688   7.419  15.003  0.00  0.00    +0.000 HD
BRANCH  20  23
ATOM     23  C   UNL     1      48.910   6.601  15.970  0.00  0.00    +0.000 A 
ATOM     24  C   UNL     1      49.822   6.996  16.940  0.00  0.00    +0.000 A 
ATOM     25  S   UNL     1      49.869   5.964  18.297  0.00  0.00    +0.000 S 
ATOM     26  C   UNL     1      48.711   4.921  17.615  0.00  0.00    +0.000 A 
ATOM     27  N   UNL     1      48.306   3.802  18.271  0.00  0.00    +0.000 NA
ATOM     28  C   UNL     1      47.444   3.085  17.625  0.00  0.00    +0.000 A 
ATOM     29  N   UNL     1      46.956   3.390  16.382  0.00  0.00    +0.000 N 
ATOM     30  C   UNL     1      47.333   4.514  15.690  0.00  0.00    +0.000 A 
ATOM     31  O   UNL     1      46.867   4.765  14.585  0.00  0.00    +0.000 OA
ATOM     32  C   UNL     1      48.289   5.358  16.372  0.00  0.00    +0.000 A 
ATOM     33  H   UNL     1      46.285   2.788  15.928  0.00  0.00    +0.000 HD
ENDBRANCH  20  23
ENDBRANCH  18  19
ENDBRANCH   4  18
TORSDOF 6
ENDMDL
MODEL 2
REMARK VINA RESULT:    -7.792      2.260      2.796
REMARK INTER + INTRA:         -11.713
REMARK INTER:                 -10.798
REMARK INTRA:                  -0.915
REMARK UNBOUND:                -1.188
REMARK  Name = 
REMARK  6 active torsions:
REMARK  status: ('A' for Active; 'I' for Inactive)
REMARK    1  A    between atoms: C_2  and  C_25
REMARK    2  A    between atoms: N_3  and  C_4
REMARK    3  A    between atoms: C_4  and  C_5
REMARK    4  A    between atoms: C_8  and  C_9
REMARK    5  A    between atoms: C_9  and  N_10
REMARK    6  A    between atoms: C_11  and  C_13
REMARK                            x       y       z     vdW  Elec       q    Type
REMARK                         _______ _______ _______ _____ _____    ______ ____
ROOT
ATOM      1  C   UNL     1      44.656   4.256  12.398  0.00  0.00    +0.000 C 
ATOM      2  C   UNL     1      44.883   5.637  11.777  0.00  0.00    +0.000 C 
ATOM      3  C   UNL     1      45.765   6.521  12.649  0.00  0.00    +0.000 C 
ATOM      4  C   UNL     1      47.119   5.869  12.959  0.00  0.00    +0.000 C 
ATOM      5  C   UNL     1      46.884   4.502  13.620  0.00  0.00    +0.000 C 
ATOM      6  C   UNL     1      45.996   3.597  12.763  0.00  0.00    +0.000 C 
ENDROOT
BRANCH   1   7
ATOM      7  C   UNL     1      43.862   3.351  11.441  0.00  0.00    +0.000 C 
BRANCH   7  10
ATOM      8  O   UNL     1      44.138   4.160   8.741  0.00  0.00    +0.000 OA
ATOM      9  C   UNL     1      44.806   3.214   9.155  0.00  0.00    +0.000 C 
ATOM     10  N   UNL     1      44.716   2.742  10.445  0.00  0.00    +0.000 N 
ATOM     11  H   UNL     1      45.436   2.107  10.761  0.00  0.00    +0.000 HD
BRANCH   9  12
ATOM     12  C   UNL     1      45.755   2.516   8.317  0.00  0.00    +0.000 A 
ATOM     13  C   UNL     1      46.635   2.958   7.339  0.00  0.00    +0.000 A 
ATOM     14  C   UNL     1      47.339   1.836   6.835  0.00  0.00    +0.000 A 
ATOM     15  C   UNL     1      46.887   0.731   7.517  0.00  0.00    +0.000 A 
ATOM     16  N   UNL     1      45.938   1.150   8.412  0.00  0.00    +0.000 N 
ATOM     17  H   UNL     1      45.433   0.561   9.065  0.00  0.00    +0.000 HD
ENDBRANCH   9  12
ENDBRANCH   7  10
ENDBRANCH   1   7
BRANCH   4  18
ATOM     18  C   UNL     1      47.996   6.761  13.858  0.00  0.00    +0.000 C 
BRANCH  18  19
ATOM     19  N   UNL     1      47.877   6.430  15.266  0.00  0.00    +0.000 N 
ATOM     20  C   UNL     1      48.988   6.249  16.055  0.00  0.00    +0.000 C 
ATOM     21  O   UNL     1      50.127   6.439  15.634  0.00  0.00    +0.000 OA
ATOM     22  H   UNL     1      47.006   6.021  15.585  0.00  0.00    +0.000 HD
BRANCH  20  23
ATOM     23  C   UNL     1      48.743   5.882  17.458  0.00  0.00    +0.000 A 
ATOM     24  C   UNL     1      48.961   4.575  17.871  0.00  0.00    +0.000 A 
ATOM     25  S   UNL     1      48.694   4.329  19.538  0.00  0.00    +0.000 S 
ATOM     26  C   UNL     1      48.223   5.949  19.758  0.00  0.00    +0.000 A 
ATOM     27  N   UNL     1      47.842   6.407  20.980  0.00  0.00    +0.000 NA
ATOM     28  C   UNL     1      47.483   7.649  20.998  0.00  0.00    +0.000 A 
ATOM     29  N   UNL     1      47.470   8.471  19.902  0.00  0.00    +0.000 N 
ATOM     30  C   UNL     1      47.855   8.050  18.654  0.00  0.00    +0.000 A 
ATOM     31  O   UNL     1      47.844   8.814  17.696  0.00  0.00    +0.000 OA
ATOM     32  C   UNL     1      48.277   6.669  18.578  0.00  0.00    +0.000 A 
ATOM     33  H   UNL     1      47.175   9.433  19.981  0.00  0.00    +0.000 HD
ENDBRANCH  20  23
ENDBRANCH  18  19
ENDBRANCH   4  18
TORSDOF 6
ENDMDL
MODEL 3
REMARK VINA RESULT:    -7.758      1.741      2.116
REMARK INTER + INTRA:         -11.667
REMARK INTER:                 -11.095
REMARK INTRA:                  -0.571
REMARK UNBOUND:                -1.188
REMARK  Name = 
REMARK  6 active torsions:
REMARK  status: ('A' for Active; 'I' for Inactive)
REMARK    1  A    between atoms: C_2  and  C_25
REMARK    2  A    between atoms: N_3  and  C_4
REMARK    3  A    between atoms: C_4  and  C_5
REMARK    4  A    between atoms: C_8  and  C_9
REMARK    5  A    between atoms: C_9  and  N_10
REMARK    6  A    between atoms: C_11  and  C_13
REMARK                            x       y       z     vdW  Elec       q    Type
REMARK                         _______ _______ _______ _____ _____    ______ ____
ROOT
ATOM      1  C   UNL     1      44.834   4.865  11.981  0.00  0.00    +0.000 C 
ATOM      2  C   UNL     1      45.591   5.762  10.997  0.00  0.00    +0.000 C 
ATOM      3  C   UNL     1      46.451   6.798  11.708  0.00  0.00    +0.000 C 
ATOM      4  C   UNL     1      47.444   6.158  12.688  0.00  0.00    +0.000 C 
ATOM      5  C   UNL     1      46.675   5.294  13.698  0.00  0.00    +0.000 C 
ATOM      6  C   UNL     1      45.799   4.247  13.006  0.00  0.00    +0.000 C 
ENDROOT
BRANCH   1   7
ATOM      7  C   UNL     1      44.070   3.759  11.235  0.00  0.00    +0.000 C 
BRANCH   7  10
ATOM      8  O   UNL     1      44.132   4.146   8.430  0.00  0.00    +0.000 OA
ATOM      9  C   UNL     1      44.897   3.330   8.940  0.00  0.00    +0.000 C 
ATOM     10  N   UNL     1      44.917   3.064  10.291  0.00  0.00    +0.000 N 
ATOM     11  H   UNL     1      45.703   2.542  10.652  0.00  0.00    +0.000 HD
BRANCH   9  12
ATOM     12  C   UNL     1      45.855   2.579   8.160  0.00  0.00    +0.000 A 
ATOM     13  C   UNL     1      46.763   2.962   7.182  0.00  0.00    +0.000 A 
ATOM     14  C   UNL     1      47.462   1.807   6.749  0.00  0.00    +0.000 A 
ATOM     15  C   UNL     1      46.979   0.743   7.473  0.00  0.00    +0.000 A 
ATOM     16  N   UNL     1      46.017   1.218   8.325  0.00  0.00    +0.000 N 
ATOM     17  H   UNL     1      45.488   0.668   8.993  0.00  0.00    +0.000 HD
ENDBRANCH   9  12
ENDBRANCH   7  10
ENDBRANCH   1   7
BRANCH   4  18
ATOM     18  C   UNL     1      48.296   7.214  13.417  0.00  0.00    +0.000 C 
BRANCH  18  19
ATOM     19  N   UNL     1      48.099   7.200  14.854  0.00  0.00    +0.000 N 
ATOM     20  C   UNL     1      49.128   6.895  15.714  0.00  0.00    +0.000 C 
ATOM     21  O   UNL     1      50.275   6.704  15.320  0.00  0.00    +0.000 OA
ATOM     22  H   UNL     1      47.153   7.095  15.203  0.00  0.00    +0.000 HD
BRANCH  20  23
ATOM     23  C   UNL     1      48.799   6.878  17.148  0.00  0.00    +0.000 A 
ATOM     24  C   UNL     1      48.349   8.040  17.761  0.00  0.00    +0.000 A 
ATOM     25  S   UNL     1      47.949   7.836  19.407  0.00  0.00    +0.000 S 
ATOM     26  C   UNL     1      48.415   6.200  19.374  0.00  0.00    +0.000 A 
ATOM     27  N   UNL     1      48.338   5.429  20.492  0.00  0.00    +0.000 NA
ATOM     28  C   UNL     1      48.751   4.213  20.333  0.00  0.00    +0.000 A 
ATOM     29  N   UNL     1      49.235   3.704  19.157  0.00  0.00    +0.000 N 
ATOM     30  C   UNL     1      49.321   4.446  18.005  0.00  0.00    +0.000 A 
ATOM     31  O   UNL     1      49.747   3.957  16.966  0.00  0.00    +0.000 OA
ATOM     32  C   UNL     1      48.862   5.813  18.124  0.00  0.00    +0.000 A 
ATOM     33  H   UNL     1      49.545   2.746  19.097  0.00  0.00    +0.000 HD
ENDBRANCH  20  23
ENDBRANCH  18  19
ENDBRANCH   4  18
TORSDOF 6
ENDMDL
MODEL 4
REMARK VINA RESULT:    -7.026      1.775      2.125
REMARK INTER + INTRA:         -10.679
REMARK INTER:                  -9.802
REMARK INTRA:                  -0.877
REMARK UNBOUND:                -1.188
REMARK  Name = 
REMARK  6 active torsions:
REMARK  status: ('A' for Active; 'I' for Inactive)
REMARK    1  A    between atoms: C_2  and  C_25
REMARK    2  A    between atoms: N_3  and  C_4
REMARK    3  A    between atoms: C_4  and  C_5
REMARK    4  A    between atoms: C_8  and  C_9
REMARK    5  A    between atoms: C_9  and  N_10
REMARK    6  A    between atoms: C_11  and  C_13
REMARK                            x       y       z     vdW  Elec       q    Type
REMARK                         _______ _______ _______ _____ _____    ______ ____
ROOT
ATOM      1  C   UNL     1      44.599   5.143  11.303  0.00  0.00    +0.000 C 
ATOM      2  C   UNL     1      45.714   5.978  10.666  0.00  0.00    +0.000 C 
ATOM      3  C   UNL     1      46.362   6.928  11.664  0.00  0.00    +0.000 C 
ATOM      4  C   UNL     1      46.909   6.195  12.897  0.00  0.00    +0.000 C 
ATOM      5  C   UNL     1      45.775   5.394  13.555  0.00  0.00    +0.000 C 
ATOM      6  C   UNL     1      45.105   4.435  12.569  0.00  0.00    +0.000 C 
ENDROOT
BRANCH   1   7
ATOM      7  C   UNL     1      44.047   4.115  10.302  0.00  0.00    +0.000 C 
BRANCH   7  10
ATOM      8  O   UNL     1      44.584   1.581   9.156  0.00  0.00    +0.000 OA
ATOM      9  C   UNL     1      45.177   2.570   8.729  0.00  0.00    +0.000 C 
ATOM     10  N   UNL     1      44.993   3.833   9.244  0.00  0.00    +0.000 N 
ATOM     11  H   UNL     1      45.355   4.612   8.711  0.00  0.00    +0.000 HD
BRANCH   9  12
ATOM     12  C   UNL     1      46.120   2.491   7.637  0.00  0.00    +0.000 A 
ATOM     13  C   UNL     1      46.315   3.286   6.515  0.00  0.00    +0.000 A 
ATOM     14  C   UNL     1      47.393   2.747   5.770  0.00  0.00    +0.000 A 
ATOM     15  C   UNL     1      47.844   1.640   6.449  0.00  0.00    +0.000 A 
ATOM     16  N   UNL     1      47.077   1.497   7.575  0.00  0.00    +0.000 N 
ATOM     17  H   UNL     1      47.181   0.775   8.280  0.00  0.00    +0.000 HD
ENDBRANCH   9  12
ENDBRANCH   7  10
ENDBRANCH   1   7
BRANCH   4  18
ATOM     18  C   UNL     1      47.544   7.166  13.909  0.00  0.00    +0.000 C 
BRANCH  18  19
ATOM     19  N   UNL     1      48.685   6.593  14.598  0.00  0.00    +0.000 N 
ATOM     20  C   UNL     1      49.231   7.199  15.705  0.00  0.00    +0.000 C 
ATOM     21  O   UNL     1      48.735   8.201  16.213  0.00  0.00    +0.000 OA
ATOM     22  H   UNL     1      49.270   5.942  14.086  0.00  0.00    +0.000 HD
BRANCH  20  23
ATOM     23  C   UNL     1      50.408   6.544  16.296  0.00  0.00    +0.000 A 
ATOM     24  C   UNL     1      51.631   7.202  16.293  0.00  0.00    +0.000 A 
ATOM     25  S   UNL     1      52.876   6.336  17.074  0.00  0.00    +0.000 S 
ATOM     26  C   UNL     1      51.839   5.026  17.397  0.00  0.00    +0.000 A 
ATOM     27  N   UNL     1      52.293   3.919  18.042  0.00  0.00    +0.000 NA
ATOM     28  C   UNL     1      51.407   2.989  18.196  0.00  0.00    +0.000 A 
ATOM     29  N   UNL     1      50.111   3.070  17.760  0.00  0.00    +0.000 N 
ATOM     30  C   UNL     1      49.612   4.173  17.113  0.00  0.00    +0.000 A 
ATOM     31  O   UNL     1      48.444   4.219  16.746  0.00  0.00    +0.000 OA
ATOM     32  C   UNL     1      50.560   5.250  16.922  0.00  0.00    +0.000 A 
ATOM     33  H   UNL     1      49.466   2.308  17.908  0.00  0.00    +0.000 HD
ENDBRANCH  20  23
ENDBRANCH  18  19
ENDBRANCH   4  18
TORSDOF 6
ENDMDL
MODEL 5
REMARK VINA RESULT:    -6.767      4.136      8.269
REMARK INTER + INTRA:         -10.329
REMARK INTER:                  -9.494
REMARK INTRA:                  -0.835
REMARK UNBOUND:                -1.188
REMARK  Name = 
REMARK  6 active torsions:
REMARK  status: ('A' for Active; 'I' for Inactive)
REMARK    1  A    between atoms: C_2  and  C_25
REMARK    2  A    between atoms: N_3  and  C_4
REMARK    3  A    between atoms: C_4  and  C_5
REMARK    4  A    between atoms: C_8  and  C_9
REMARK    5  A    between atoms: C_9  and  N_10
REMARK    6  A    between atoms: C_11  and  C_13
REMARK                            x       y       z     vdW  Elec       q    Type
REMARK                         _______ _______ _______ _____ _____    ______ ____
ROOT
ATOM      1  C   UNL     1      50.595   4.454  17.394  0.00  0.00    +0.000 C 
ATOM      2  C   UNL     1      51.461   5.714  17.312  0.00  0.00    +0.000 C 
ATOM      3  C   UNL     1      50.993   6.662  16.217  0.00  0.00    +0.000 C 
ATOM      4  C   UNL     1      49.521   7.062  16.380  0.00  0.00    +0.000 C 
ATOM      5  C   UNL     1      48.653   5.795  16.420  0.00  0.00    +0.000 C 
ATOM      6  C   UNL     1      49.108   4.824  17.511  0.00  0.00    +0.000 C 
ENDROOT
BRANCH   1   7
ATOM      7  C   UNL     1      51.020   3.576  18.582  0.00  0.00    +0.000 C 
BRANCH   7  10
ATOM      8  O   UNL     1      51.069   1.027  17.349  0.00  0.00    +0.000 OA
ATOM      9  C   UNL     1      52.131   1.565  17.654  0.00  0.00    +0.000 C 
ATOM     10  N   UNL     1      52.197   2.791  18.277  0.00  0.00    +0.000 N 
ATOM     11  H   UNL     1      53.095   3.253  18.306  0.00  0.00    +0.000 HD
BRANCH   9  12
ATOM     12  C   UNL     1      53.412   0.956  17.377  0.00  0.00    +0.000 A 
ATOM     13  C   UNL     1      54.677   1.495  17.184  0.00  0.00    +0.000 A 
ATOM     14  C   UNL     1      55.582   0.430  16.946  0.00  0.00    +0.000 A 
ATOM     15  C   UNL     1      54.860  -0.739  17.007  0.00  0.00    +0.000 A 
ATOM     16  N   UNL     1      53.556  -0.413  17.273  0.00  0.00    +0.000 N 
ATOM     17  H   UNL     1      52.790  -1.068  17.386  0.00  0.00    +0.000 HD
ENDBRANCH   9  12
ENDBRANCH   7  10
ENDBRANCH   1   7
BRANCH   4  18
ATOM     18  C   UNL     1      49.051   8.005  15.257  0.00  0.00    +0.000 C 
BRANCH  18  19
ATOM     19  N   UNL     1      47.860   7.525  14.581  0.00  0.00    +0.000 N 
ATOM     20  C   UNL     1      47.939   6.839  13.392  0.00  0.00    +0.000 C 
ATOM     21  O   UNL     1      49.015   6.527  12.888  0.00  0.00    +0.000 OA
ATOM     22  H   UNL     1      46.976   7.967  14.807  0.00  0.00    +0.000 HD
BRANCH  20  23
ATOM     23  C   UNL     1      46.663   6.435  12.784  0.00  0.00    +0.000 A 
ATOM     24  C   UNL     1      45.843   7.397  12.209  0.00  0.00    +0.000 A 
ATOM     25  S   UNL     1      44.435   6.757  11.490  0.00  0.00    +0.000 S 
ATOM     26  C   UNL     1      44.842   5.176  11.969  0.00  0.00    +0.000 A 
ATOM     27  N   UNL     1      44.028   4.127  11.677  0.00  0.00    +0.000 NA
ATOM     28  C   UNL     1      44.444   2.987  12.125  0.00  0.00    +0.000 A 
ATOM     29  N   UNL     1      45.600   2.807  12.839  0.00  0.00    +0.000 N 
ATOM     30  C   UNL     1      46.451   3.838  13.146  0.00  0.00    +0.000 A 
ATOM     31  O   UNL     1      47.484   3.641  13.776  0.00  0.00    +0.000 OA
ATOM     32  C   UNL     1      46.039   5.137  12.660  0.00  0.00    +0.000 A 
ATOM     33  H   UNL     1      45.869   1.890  13.164  0.00  0.00    +0.000 HD
ENDBRANCH  20  23
ENDBRANCH  18  19
ENDBRANCH   4  18
TORSDOF 6
ENDMDL
MODEL 6
REMARK VINA RESULT:    -6.727      1.818      2.444
REMARK INTER + INTRA:         -10.274
REMARK INTER:                  -9.146
REMARK INTRA:                  -1.129
REMARK UNBOUND:                -1.188
REMARK  Name = 
REMARK  6 active torsions:
REMARK  status: ('A' for Active; 'I' for Inactive)
REMARK    1  A    between atoms: C_2  and  C_25
REMARK    2  A    between atoms: N_3  and  C_4
REMARK    3  A    between atoms: C_4  and  C_5
REMARK    4  A    between atoms: C_8  and  C_9
REMARK    5  A    between atoms: C_9  and  N_10
REMARK    6  A    between atoms: C_11  and  C_13
REMARK                            x       y       z     vdW  Elec       q    Type
REMARK                         _______ _______ _______ _____ _____    ______ ____
ROOT
ATOM      1  C   UNL     1      46.122   7.338  12.400  0.00  0.00    +0.000 C 
ATOM      2  C   UNL     1      46.232   8.722  13.046  0.00  0.00    +0.000 C 
ATOM      3  C   UNL     1      47.403   8.812  14.015  0.00  0.00    +0.000 C 
ATOM      4  C   UNL     1      48.738   8.446  13.354  0.00  0.00    +0.000 C 
ATOM      5  C   UNL     1      48.634   7.040  12.745  0.00  0.00    +0.000 C 
ATOM      6  C   UNL     1      47.461   6.924  11.769  0.00  0.00    +0.000 C 
ENDROOT
BRANCH   1   7
ATOM      7  C   UNL     1      45.006   7.317  11.342  0.00  0.00    +0.000 C 
BRANCH   7  10
ATOM      8  O   UNL     1      43.966   4.733  11.854  0.00  0.00    +0.000 OA
ATOM      9  C   UNL     1      44.554   4.944  10.795  0.00  0.00    +0.000 C 
ATOM     10  N   UNL     1      45.109   6.162  10.476  0.00  0.00    +0.000 N 
ATOM     11  H   UNL     1      45.387   6.312   9.516  0.00  0.00    +0.000 HD
BRANCH   9  12
ATOM     12  C   UNL     1      44.706   3.924   9.782  0.00  0.00    +0.000 A 
ATOM     13  C   UNL     1      44.887   3.996   8.407  0.00  0.00    +0.000 A 
ATOM     14  C   UNL     1      44.980   2.676   7.901  0.00  0.00    +0.000 A 
ATOM     15  C   UNL     1      44.866   1.821   8.972  0.00  0.00    +0.000 A 
ATOM     16  N   UNL     1      44.707   2.580  10.101  0.00  0.00    +0.000 N 
ATOM     17  H   UNL     1      44.608   2.229  11.047  0.00  0.00    +0.000 HD
ENDBRANCH   9  12
ENDBRANCH   7  10
ENDBRANCH   1   7
BRANCH   4  18
ATOM     18  C   UNL     1      49.912   8.520  14.347  0.00  0.00    +0.000 C 
BRANCH  18  19
ATOM     19  N   UNL     1      49.866   7.474  15.352  0.00  0.00    +0.000 N 
ATOM     20  C   UNL     1      49.513   7.746  16.653  0.00  0.00    +0.000 C 
ATOM     21  O   UNL     1      49.141   8.861  17.010  0.00  0.00    +0.000 OA
ATOM     22  H   UNL     1      50.395   6.627  15.179  0.00  0.00    +0.000 HD
BRANCH  20  23
ATOM     23  C   UNL     1      49.536   6.611  17.588  0.00  0.00    +0.000 A 
ATOM     24  C   UNL     1      50.275   6.705  18.760  0.00  0.00    +0.000 A 
ATOM     25  S   UNL     1      50.145   5.333  19.765  0.00  0.00    +0.000 S 
ATOM     26  C   UNL     1      49.138   4.541  18.645  0.00  0.00    +0.000 A 
ATOM     27  N   UNL     1      48.671   3.287  18.891  0.00  0.00    +0.000 NA
ATOM     28  C   UNL     1      47.941   2.793  17.944  0.00  0.00    +0.000 A 
ATOM     29  N   UNL     1      47.641   3.442  16.775  0.00  0.00    +0.000 N 
ATOM     30  C   UNL     1      48.085   4.709  16.493  0.00  0.00    +0.000 A 
ATOM     31  O   UNL     1      47.788   5.267  15.443  0.00  0.00    +0.000 OA
ATOM     32  C   UNL     1      48.899   5.315  17.525  0.00  0.00    +0.000 A 
ATOM     33  H   UNL     1      47.067   3.001  16.072  0.00  0.00    +0.000 HD
ENDBRANCH  20  23
ENDBRANCH  18  19
ENDBRANCH   4  18
TORSDOF 6
ENDMDL
MODEL 7
REMARK VINA RESULT:    -6.708      5.082      9.649
REMARK INTER + INTRA:         -10.249
REMARK INTER:                  -9.634
REMARK INTRA:                  -0.615
REMARK UNBOUND:                -1.188
REMARK  Name = 
REMARK  6 active torsions:
REMARK  status: ('A' for Active; 'I' for Inactive)
REMARK    1  A    between atoms: C_2  and  C_25
REMARK    2  A    between atoms: N_3  and  C_4
REMARK    3  A    between atoms: C_4  and  C_5
REMARK    4  A    between atoms: C_8  and  C_9
REMARK    5  A    between atoms: C_9  and  N_10
REMARK    6  A    between atoms: C_11  and  C_13
REMARK                            x       y       z     vdW  Elec       q    Type
REMARK                         _______ _______ _______ _____ _____    ______ ____
ROOT
ATOM      1  C   UNL     1      51.534   2.666  18.046  0.00  0.00    +0.000 C 
ATOM      2  C   UNL     1      50.787   1.798  17.031  0.00  0.00    +0.000 C 
ATOM      3  C   UNL     1      49.283   2.035  17.068  0.00  0.00    +0.000 C 
ATOM      4  C   UNL     1      48.920   3.510  16.848  0.00  0.00    +0.000 C 
ATOM      5  C   UNL     1      49.640   4.371  17.897  0.00  0.00    +0.000 C 
ATOM      6  C   UNL     1      51.153   4.146  17.881  0.00  0.00    +0.000 C 
ENDROOT
BRANCH   1   7
ATOM      7  C   UNL     1      53.055   2.489  17.902  0.00  0.00    +0.000 C 
BRANCH   7  10
ATOM      8  O   UNL     1      53.972   0.135  16.620  0.00  0.00    +0.000 OA
ATOM      9  C   UNL     1      53.969   0.187  17.849  0.00  0.00    +0.000 C 
ATOM     10  N   UNL     1      53.519   1.282  18.551  0.00  0.00    +0.000 N 
ATOM     11  H   UNL     1      53.740   1.328  19.536  0.00  0.00    +0.000 HD
BRANCH   9  12
ATOM     12  C   UNL     1      54.449  -0.904  18.667  0.00  0.00    +0.000 A 
ATOM     13  C   UNL     1      55.360  -0.952  19.713  0.00  0.00    +0.000 A 
ATOM     14  C   UNL     1      55.453  -2.294  20.160  0.00  0.00    +0.000 A 
ATOM     15  C   UNL     1      54.593  -3.040  19.389  0.00  0.00    +0.000 A 
ATOM     16  N   UNL     1      53.988  -2.194  18.498  0.00  0.00    +0.000 N 
ATOM     17  H   UNL     1      53.294  -2.455  17.805  0.00  0.00    +0.000 HD
ENDBRANCH   9  12
ENDBRANCH   7  10
ENDBRANCH   1   7
BRANCH   4  18
ATOM     18  C   UNL     1      47.399   3.744  16.908  0.00  0.00    +0.000 C 
BRANCH  18  19
ATOM     19  N   UNL     1      46.931   4.660  15.884  0.00  0.00    +0.000 N 
ATOM     20  C   UNL     1      46.915   4.303  14.557  0.00  0.00    +0.000 C 
ATOM     21  O   UNL     1      47.214   3.173  14.180  0.00  0.00    +0.000 OA
ATOM     22  H   UNL     1      46.924   5.651  16.102  0.00  0.00    +0.000 HD
BRANCH  20  23
ATOM     23  C   UNL     1      46.452   5.329  13.609  0.00  0.00    +0.000 A 
ATOM     24  C   UNL     1      47.281   6.398  13.299  0.00  0.00    +0.000 A 
ATOM     25  S   UNL     1      46.625   7.460  12.137  0.00  0.00    +0.000 S 
ATOM     26  C   UNL     1      45.186   6.558  12.044  0.00  0.00    +0.000 A 
ATOM     27  N   UNL     1      44.171   6.943  11.225  0.00  0.00    +0.000 NA
ATOM     28  C   UNL     1      43.126   6.183  11.274  0.00  0.00    +0.000 A 
ATOM     29  N   UNL     1      43.007   5.076  12.072  0.00  0.00    +0.000 N 
ATOM     30  C   UNL     1      44.010   4.649  12.906  0.00  0.00    +0.000 A 
ATOM     31  O   UNL     1      43.877   3.646  13.597  0.00  0.00    +0.000 OA
ATOM     32  C   UNL     1      45.209   5.459  12.882  0.00  0.00    +0.000 A 
ATOM     33  H   UNL     1      42.162   4.524  12.067  0.00  0.00    +0.000 HD
ENDBRANCH  20  23
ENDBRANCH  18  19
ENDBRANCH   4  18
TORSDOF 6
ENDMDL
MODEL 8
REMARK VINA RESULT:    -6.479      2.392      3.726
REMARK INTER + INTRA:          -9.940
REMARK INTER:                  -9.082
REMARK INTRA:                  -0.857
REMARK UNBOUND:                -1.188
REMARK  Name = 
REMARK  6 active torsions:
REMARK  status: ('A' for Active; 'I' for Inactive)
REMARK    1  A    between atoms: C_2  and  C_25
REMARK    2  A    between atoms: N_3  and  C_4
REMARK    3  A    between atoms: C_4  and  C_5
REMARK    4  A    between atoms: C_8  and  C_9
REMARK    5  A    between atoms: C_9  and  N_10
REMARK    6  A    between atoms: C_11  and  C_13
REMARK                            x       y       z     vdW  Elec       q    Type
REMARK                         _______ _______ _______ _____ _____    ______ ____
ROOT
ATOM      1  C   UNL     1      45.565   6.151  12.239  0.00  0.00    +0.000 C 
ATOM      2  C   UNL     1      47.092   6.143  12.345  0.00  0.00    +0.000 C 
ATOM      3  C   UNL     1      47.569   5.758  13.738  0.00  0.00    +0.000 C 
ATOM      4  C   UNL     1      47.017   4.399  14.190  0.00  0.00    +0.000 C 
ATOM      5  C   UNL     1      45.482   4.428  14.121  0.00  0.00    +0.000 C 
ATOM      6  C   UNL     1      44.979   4.818  12.729  0.00  0.00    +0.000 C 
ENDROOT
BRANCH   1   7
ATOM      7  C   UNL     1      45.119   6.428  10.793  0.00  0.00    +0.000 C 
BRANCH   7  10
ATOM      8  O   UNL     1      43.857   4.248   9.498  0.00  0.00    +0.000 OA
ATOM      9  C   UNL     1      45.038   4.488   9.255  0.00  0.00    +0.000 C 
ATOM     10  N   UNL     1      45.734   5.512   9.856  0.00  0.00    +0.000 N 
ATOM     11  H   UNL     1      46.625   5.770   9.456  0.00  0.00    +0.000 HD
BRANCH   9  12
ATOM     12  C   UNL     1      45.802   3.712   8.303  0.00  0.00    +0.000 A 
ATOM     13  C   UNL     1      45.819   2.356   8.008  0.00  0.00    +0.000 A 
ATOM     14  C   UNL     1      46.766   2.138   6.975  0.00  0.00    +0.000 A 
ATOM     15  C   UNL     1      47.302   3.362   6.651  0.00  0.00    +0.000 A 
ATOM     16  N   UNL     1      46.712   4.305   7.450  0.00  0.00    +0.000 N 
ATOM     17  H   UNL     1      46.897   5.302   7.433  0.00  0.00    +0.000 HD
ENDBRANCH   9  12
ENDBRANCH   7  10
ENDBRANCH   1   7
BRANCH   4  18
ATOM     18  C   UNL     1      47.488   4.028  15.607  0.00  0.00    +0.000 C 
BRANCH  18  19
ATOM     19  N   UNL     1      47.370   5.129  16.546  0.00  0.00    +0.000 N 
ATOM     20  C   UNL     1      48.482   5.723  17.096  0.00  0.00    +0.000 C 
ATOM     21  O   UNL     1      49.622   5.412  16.761  0.00  0.00    +0.000 OA
ATOM     22  H   UNL     1      46.490   5.242  17.035  0.00  0.00    +0.000 HD
BRANCH  20  23
ATOM     23  C   UNL     1      48.235   6.805  18.061  0.00  0.00    +0.000 A 
ATOM     24  C   UNL     1      48.059   6.497  19.404  0.00  0.00    +0.000 A 
ATOM     25  S   UNL     1      47.850   7.866  20.399  0.00  0.00    +0.000 S 
ATOM     26  C   UNL     1      47.933   8.918  19.064  0.00  0.00    +0.000 A 
ATOM     27  N   UNL     1      47.806  10.262  19.224  0.00  0.00    +0.000 NA
ATOM     28  C   UNL     1      47.860  10.940  18.124  0.00  0.00    +0.000 A 
ATOM     29  N   UNL     1      48.028  10.391  16.880  0.00  0.00    +0.000 N 
ATOM     30  C   UNL     1      48.168   9.041  16.677  0.00  0.00    +0.000 A 
ATOM     31  O   UNL     1      48.329   8.582  15.552  0.00  0.00    +0.000 OA
ATOM     32  C   UNL     1      48.125   8.234  17.877  0.00  0.00    +0.000 A 
ATOM     33  H   UNL     1      48.059  10.974  16.057  0.00  0.00    +0.000 HD
ENDBRANCH  20  23
ENDBRANCH  18  19
ENDBRANCH   4  18
TORSDOF 6
ENDMDL
MODEL 9
REMARK VINA RESULT:    -6.412      3.632      8.484
REMARK INTER + INTRA:          -9.849
REMARK INTER:                  -8.786
REMARK INTRA:                  -1.063
REMARK UNBOUND:                -1.188
REMARK  Name = 
REMARK  6 active torsions:
REMARK  status: ('A' for Active; 'I' for Inactive)
REMARK    1  A    between atoms: C_2  and  C_25
REMARK    2  A    between atoms: N_3  and  C_4
REMARK    3  A    between atoms: C_4  and  C_5
REMARK    4  A    between atoms: C_8  and  C_9
REMARK    5  A    between atoms: C_9  and  N_10
REMARK    6  A    between atoms: C_11  and  C_13
REMARK                            x       y       z     vdW  Elec       q    Type
REMARK                         _______ _______ _______ _____ _____    ______ ____
ROOT
ATOM      1  C   UNL     1      48.804   5.660  17.962  0.00  0.00    +0.000 C 
ATOM      2  C   UNL     1      48.437   4.665  16.857  0.00  0.00    +0.000 C 
ATOM      3  C   UNL     1      47.842   5.355  15.637  0.00  0.00    +0.000 C 
ATOM      4  C   UNL     1      48.770   6.436  15.067  0.00  0.00    +0.000 C 
ATOM      5  C   UNL     1      49.100   7.453  16.169  0.00  0.00    +0.000 C 
ATOM      6  C   UNL     1      49.696   6.782  17.408  0.00  0.00    +0.000 C 
ENDROOT
BRANCH   1   7
ATOM      7  C   UNL     1      49.508   4.946  19.128  0.00  0.00    +0.000 C 
BRANCH   7  10
ATOM      8  O   UNL     1      52.335   5.055  18.998  0.00  0.00    +0.000 OA
ATOM      9  C   UNL     1      51.758   4.026  18.652  0.00  0.00    +0.000 C 
ATOM     10  N   UNL     1      50.388   3.896  18.662  0.00  0.00    +0.000 N 
ATOM     11  H   UNL     1      50.006   2.966  18.564  0.00  0.00    +0.000 HD
BRANCH   9  12
ATOM     12  C   UNL     1      52.475   2.851  18.209  0.00  0.00    +0.000 A 
ATOM     13  C   UNL     1      53.786   2.662  17.794  0.00  0.00    +0.000 A 
ATOM     14  C   UNL     1      53.958   1.293  17.472  0.00  0.00    +0.000 A 
ATOM     15  C   UNL     1      52.756   0.667  17.705  0.00  0.00    +0.000 A 
ATOM     16  N   UNL     1      51.871   1.611  18.155  0.00  0.00    +0.000 N 
ATOM     17  H   UNL     1      50.906   1.445  18.420  0.00  0.00    +0.000 HD
ENDBRANCH   9  12
ENDBRANCH   7  10
ENDBRANCH   1   7
BRANCH   4  18
ATOM     18  C   UNL     1      48.151   7.141  13.846  0.00  0.00    +0.000 C 
BRANCH  18  19
ATOM     19  N   UNL     1      47.414   6.234  12.986  0.00  0.00    +0.000 N 
ATOM     20  C   UNL     1      46.562   6.702  12.014  0.00  0.00    +0.000 C 
ATOM     21  O   UNL     1      46.445   7.900  11.769  0.00  0.00    +0.000 OA
ATOM     22  H   UNL     1      47.278   5.282  13.307  0.00  0.00    +0.000 HD
BRANCH  20  23
ATOM     23  C   UNL     1      45.843   5.687  11.229  0.00  0.00    +0.000 A 
ATOM     24  C   UNL     1      45.949   5.691   9.845  0.00  0.00    +0.000 A 
ATOM     25  S   UNL     1      45.110   4.413   9.090  0.00  0.00    +0.000 S 
ATOM     26  C   UNL     1      44.530   3.838  10.582  0.00  0.00    +0.000 A 
ATOM     27  N   UNL     1      43.717   2.749  10.644  0.00  0.00    +0.000 NA
ATOM     28  C   UNL     1      43.328   2.439  11.838  0.00  0.00    +0.000 A 
ATOM     29  N   UNL     1      43.678   3.123  12.972  0.00  0.00    +0.000 N 
ATOM     30  C   UNL     1      44.502   4.221  12.953  0.00  0.00    +0.000 A 
ATOM     31  O   UNL     1      44.806   4.803  13.987  0.00  0.00    +0.000 OA
ATOM     32  C   UNL     1      44.976   4.606  11.642  0.00  0.00    +0.000 A 
ATOM     33  H   UNL     1      43.338   2.832  13.877  0.00  0.00    +0.000 HD
ENDBRANCH  20  23
ENDBRANCH  18  19
ENDBRANCH   4  18
TORSDOF 6
ENDMDL
