MODEL 1
REMARK VINA RESULT:    -7.986      0.000      0.000
REMARK INTER + INTRA:         -12.110
REMARK INTER:                 -10.787
REMARK INTRA:                  -1.323
REMARK UNBOUND:                -1.323
REMARK  Name = 
REMARK  7 active torsions:
REMARK  status: ('A' for Active; 'I' for Inactive)
REMARK    1  A    between atoms: C_1  and  C_2
REMARK    2  A    between atoms: C_2  and  N_3
REMARK    3  A    between atoms: N_3  and  C_4
REMARK    4  A    between atoms: C_4  and  C_5
REMARK    5  A    between atoms: C_8  and  C_9
REMARK    6  A    between atoms: C_9  and  C_10
REMARK    7  A    between atoms: C_18  and  C_20
REMARK                            x       y       z     vdW  Elec       q    Type
REMARK                         _______ _______ _______ _____ _____    ______ ____
ROOT
ATOM      1  N   UNL     1      46.241   7.011  12.217  0.00  0.00    +0.000 N 
ATOM      2  C   UNL     1      44.983   6.670  11.681  0.00  0.00    +0.000 C 
ATOM      3  O   UNL     1      44.169   7.528  11.348  0.00  0.00    +0.000 OA
ENDROOT
BRANCH   2   4
ATOM      4  C   UNL     1      44.613   5.252  11.561  0.00  0.00    +0.000 A 
ATOM      5  C   UNL     1      43.878   4.551  12.502  0.00  0.00    +0.000 A 
ATOM      6  S   UNL     1      43.512   2.951  12.024  0.00  0.00    +0.000 S 
ATOM      7  C   UNL     1      44.213   3.194  10.492  0.00  0.00    +0.000 A 
ATOM      8  N   UNL     1      44.145   2.240   9.526  0.00  0.00    +0.000 NA
ATOM      9  C   UNL     1      44.659   2.596   8.395  0.00  0.00    +0.000 A 
ATOM     10  N   UNL     1      45.274   3.801   8.159  0.00  0.00    +0.000 N 
ATOM     11  C   UNL     1      45.482   4.742   9.145  0.00  0.00    +0.000 A 
ATOM     12  O   UNL     1      46.230   5.697   8.969  0.00  0.00    +0.000 OA
ATOM     13  C   UNL     1      44.805   4.438  10.390  0.00  0.00    +0.000 A 
ATOM     14  H   UNL     1      45.718   3.986   7.273  0.00  0.00    +0.000 HD
ENDBRANCH   2   4
BRANCH   1  16
ATOM     15  C   UNL     1      47.896   8.851  12.091  0.00  0.00    +0.000 C 
ATOM     16  C   UNL     1      46.484   8.434  12.473  0.00  0.00    +0.000 C 
ENDBRANCH   1  16
BRANCH   1  17
ATOM     17  C   UNL     1      47.228   6.008  12.611  0.00  0.00    +0.000 C 
BRANCH  17  18
ATOM     18  C   UNL     1      47.392   5.650  14.058  0.00  0.00    +0.000 A 
ATOM     19  C   UNL     1      48.231   6.355  14.918  0.00  0.00    +0.000 A 
ATOM     20  C   UNL     1      48.532   5.834  16.182  0.00  0.00    +0.000 A 
ATOM     21  C   UNL     1      47.957   4.632  16.574  0.00  0.00    +0.000 A 
ATOM     22  N   UNL     1      47.072   3.983  15.774  0.00  0.00    +0.000 NA
ATOM     23  C   UNL     1      46.812   4.493  14.555  0.00  0.00    +0.000 A 
BRANCH  21  24
ATOM     24  C   UNL     1      48.299   3.855  17.819  0.00  0.00    +0.000 C 
BRANCH  24  25
ATOM     25  C   UNL     1      49.638   3.142  18.055  0.00  0.00    +0.000 C 
ATOM     26  C   UNL     1      50.056   2.163  16.950  0.00  0.00    +0.000 C 
ATOM     27  C   UNL     1      51.330   1.430  17.377  0.00  0.00    +0.000 C 
ATOM     28  C   UNL     1      52.422   2.403  17.819  0.00  0.00    +0.000 C 
ATOM     29  N   UNL     1      51.952   3.320  18.858  0.00  0.00    +0.000 NA
ATOM     30  C   UNL     1      50.787   4.089  18.419  0.00  0.00    +0.000 C 
ATOM     31  H   UNL     1      52.701   3.962  19.113  0.00  0.00    +0.000 HD
ENDBRANCH  24  25
ENDBRANCH  21  24
ENDBRANCH  17  18
ENDBRANCH   1  17
TORSDOF 6
ENDMDL
MODEL 2
REMARK VINA RESULT:    -7.349      1.303      2.001
REMARK INTER + INTRA:         -11.250
REMARK INTER:                 -10.142
REMARK INTRA:                  -1.108
REMARK UNBOUND:                -1.323
REMARK  Name = 
REMARK  7 active torsions:
REMARK  status: ('A' for Active; 'I' for Inactive)
REMARK    1  A    between atoms: C_1  and  C_2
REMARK    2  A    between atoms: C_2  and  N_3
REMARK    3  A    between atoms: N_3  and  C_4
REMARK    4  A    between atoms: C_4  and  C_5
REMARK    5  A    between atoms: C_8  and  C_9
REMARK    6  A    between atoms: C_9  and  C_10
REMARK    7  A    between atoms: C_18  and  C_20
REMARK                            x       y       z     vdW  Elec       q    Type
REMARK                         _______ _______ _______ _____ _____    ______ ____
ROOT
ATOM      1  N   UNL     1      46.427   7.228  12.396  0.00  0.00    +0.000 N 
ATOM      2  C   UNL     1      45.414   7.201  11.418  0.00  0.00    +0.000 C 
ATOM      3  O   UNL     1      44.750   8.199  11.148  0.00  0.00    +0.000 OA
ENDROOT
BRANCH   2   4
ATOM      4  C   UNL     1      45.106   5.936  10.735  0.00  0.00    +0.000 A 
ATOM      5  C   UNL     1      45.598   5.576   9.491  0.00  0.00    +0.000 A 
ATOM      6  S   UNL     1      45.152   3.996   9.015  0.00  0.00    +0.000 S 
ATOM      7  C   UNL     1      44.401   3.702  10.513  0.00  0.00    +0.000 A 
ATOM      8  N   UNL     1      43.897   2.476  10.820  0.00  0.00    +0.000 NA
ATOM      9  C   UNL     1      43.421   2.387  12.018  0.00  0.00    +0.000 A 
ATOM     10  N   UNL     1      43.364   3.423  12.918  0.00  0.00    +0.000 N 
ATOM     11  C   UNL     1      43.741   4.711  12.602  0.00  0.00    +0.000 A 
ATOM     12  O   UNL     1      43.466   5.655  13.335  0.00  0.00    +0.000 OA
ATOM     13  C   UNL     1      44.400   4.825  11.317  0.00  0.00    +0.000 A 
ATOM     14  H   UNL     1      42.914   3.303  13.812  0.00  0.00    +0.000 HD
ENDBRANCH   2   4
BRANCH   1  16
ATOM     15  C   UNL     1      47.687   9.350  12.623  0.00  0.00    +0.000 C 
ATOM     16  C   UNL     1      46.570   8.469  13.163  0.00  0.00    +0.000 C 
ENDBRANCH   1  16
BRANCH   1  17
ATOM     17  C   UNL     1      47.235   6.056  12.726  0.00  0.00    +0.000 C 
BRANCH  17  18
ATOM     18  C   UNL     1      47.425   5.660  14.160  0.00  0.00    +0.000 A 
ATOM     19  C   UNL     1      48.304   6.324  15.014  0.00  0.00    +0.000 A 
ATOM     20  C   UNL     1      48.622   5.766  16.258  0.00  0.00    +0.000 A 
ATOM     21  C   UNL     1      48.026   4.571  16.638  0.00  0.00    +0.000 A 
ATOM     22  N   UNL     1      47.105   3.963  15.846  0.00  0.00    +0.000 NA
ATOM     23  C   UNL     1      46.828   4.507  14.646  0.00  0.00    +0.000 A 
BRANCH  21  24
ATOM     24  C   UNL     1      48.378   3.757  17.856  0.00  0.00    +0.000 C 
BRANCH  24  25
ATOM     25  C   UNL     1      49.728   3.057  18.070  0.00  0.00    +0.000 C 
ATOM     26  C   UNL     1      50.145   2.096  16.948  0.00  0.00    +0.000 C 
ATOM     27  C   UNL     1      51.431   1.371  17.353  0.00  0.00    +0.000 C 
ATOM     28  C   UNL     1      52.517   2.351  17.796  0.00  0.00    +0.000 C 
ATOM     29  N   UNL     1      52.048   3.250  18.850  0.00  0.00    +0.000 NA
ATOM     30  C   UNL     1      50.870   4.012  18.433  0.00  0.00    +0.000 C 
ATOM     31  H   UNL     1      52.793   3.897  19.106  0.00  0.00    +0.000 HD
ENDBRANCH  24  25
ENDBRANCH  21  24
ENDBRANCH  17  18
ENDBRANCH   1  17
TORSDOF 6
ENDMDL
MODEL 3
REMARK VINA RESULT:    -6.872      3.573      8.074
REMARK INTER + INTRA:         -10.605
REMARK INTER:                  -9.348
REMARK INTRA:                  -1.258
REMARK UNBOUND:                -1.323
REMARK  Name = 
REMARK  7 active torsions:
REMARK  status: ('A' for Active; 'I' for Inactive)
REMARK    1  A    between atoms: C_1  and  C_2
REMARK    2  A    between atoms: C_2  and  N_3
REMARK    3  A    between atoms: N_3  and  C_4
REMARK    4  A    between atoms: C_4  and  C_5
REMARK    5  A    between atoms: C_8  and  C_9
REMARK    6  A    between atoms: C_9  and  C_10
REMARK    7  A    between atoms: C_18  and  C_20
REMARK                            x       y       z     vdW  Elec       q    Type
REMARK                         _______ _______ _______ _____ _____    ______ ____
ROOT
ATOM      1  N   UNL     1      48.910   7.563  13.730  0.00  0.00    +0.000 N 
ATOM      2  C   UNL     1      49.795   7.524  14.826  0.00  0.00    +0.000 C 
ATOM      3  O   UNL     1      50.961   7.157  14.701  0.00  0.00    +0.000 OA
ENDROOT
BRANCH   2   4
ATOM      4  C   UNL     1      49.301   7.885  16.163  0.00  0.00    +0.000 A 
ATOM      5  C   UNL     1      49.295   9.171  16.676  0.00  0.00    +0.000 A 
ATOM      6  S   UNL     1      48.554   9.285  18.212  0.00  0.00    +0.000 S 
ATOM      7  C   UNL     1      48.104   7.644  18.174  0.00  0.00    +0.000 A 
ATOM      8  N   UNL     1      47.330   7.103  19.153  0.00  0.00    +0.000 NA
ATOM      9  C   UNL     1      47.013   5.866  18.951  0.00  0.00    +0.000 A 
ATOM     10  N   UNL     1      47.437   5.113  17.884  0.00  0.00    +0.000 N 
ATOM     11  C   UNL     1      48.328   5.583  16.941  0.00  0.00    +0.000 A 
ATOM     12  O   UNL     1      48.867   4.828  16.140  0.00  0.00    +0.000 OA
ATOM     13  C   UNL     1      48.603   7.001  17.059  0.00  0.00    +0.000 A 
ATOM     14  H   UNL     1      47.210   4.132  17.824  0.00  0.00    +0.000 HD
ENDBRANCH   2   4
BRANCH   1  16
ATOM     15  C   UNL     1      49.592   8.119  11.413  0.00  0.00    +0.000 C 
ATOM     16  C   UNL     1      49.410   7.030  12.460  0.00  0.00    +0.000 C 
ENDBRANCH   1  16
BRANCH   1  17
ATOM     17  C   UNL     1      47.523   8.006  13.853  0.00  0.00    +0.000 C 
BRANCH  17  18
ATOM     18  C   UNL     1      46.424   7.203  13.222  0.00  0.00    +0.000 A 
ATOM     19  C   UNL     1      46.271   5.835  13.440  0.00  0.00    +0.000 A 
ATOM     20  C   UNL     1      45.389   5.096  12.642  0.00  0.00    +0.000 A 
ATOM     21  C   UNL     1      44.651   5.749  11.663  0.00  0.00    +0.000 A 
ATOM     22  N   UNL     1      44.734   7.094  11.502  0.00  0.00    +0.000 NA
ATOM     23  C   UNL     1      45.602   7.783  12.268  0.00  0.00    +0.000 A 
BRANCH  21  24
ATOM     24  C   UNL     1      43.792   5.086  10.618  0.00  0.00    +0.000 C 
BRANCH  24  25
ATOM     25  C   UNL     1      44.301   4.047   9.609  0.00  0.00    +0.000 C 
ATOM     26  C   UNL     1      45.472   4.512   8.733  0.00  0.00    +0.000 C 
ATOM     27  C   UNL     1      45.785   3.436   7.690  0.00  0.00    +0.000 C 
ATOM     28  C   UNL     1      45.969   2.062   8.333  0.00  0.00    +0.000 C 
ATOM     29  N   UNL     1      44.827   1.689   9.170  0.00  0.00    +0.000 NA
ATOM     30  C   UNL     1      44.582   2.672  10.225  0.00  0.00    +0.000 C 
ATOM     31  H   UNL     1      44.996   0.777   9.592  0.00  0.00    +0.000 HD
ENDBRANCH  24  25
ENDBRANCH  21  24
ENDBRANCH  17  18
ENDBRANCH   1  17
TORSDOF 6
ENDMDL
MODEL 4
REMARK VINA RESULT:    -6.592      3.411      8.241
REMARK INTER + INTRA:         -10.227
REMARK INTER:                  -9.058
REMARK INTRA:                  -1.169
REMARK UNBOUND:                -1.323
REMARK  Name = 
REMARK  7 active torsions:
REMARK  status: ('A' for Active; 'I' for Inactive)
REMARK    1  A    between atoms: C_1  and  C_2
REMARK    2  A    between atoms: C_2  and  N_3
REMARK    3  A    between atoms: N_3  and  C_4
REMARK    4  A    between atoms: C_4  and  C_5
REMARK    5  A    between atoms: C_8  and  C_9
REMARK    6  A    between atoms: C_9  and  C_10
REMARK    7  A    between atoms: C_18  and  C_20
REMARK                            x       y       z     vdW  Elec       q    Type
REMARK                         _______ _______ _______ _____ _____    ______ ____
ROOT
ATOM      1  N   UNL     1      49.125   7.830  14.447  0.00  0.00    +0.000 N 
ATOM      2  C   UNL     1      49.685   7.010  15.447  0.00  0.00    +0.000 C 
ATOM      3  O   UNL     1      50.893   6.796  15.504  0.00  0.00    +0.000 OA
ENDROOT
BRANCH   2   4
ATOM      4  C   UNL     1      48.798   6.354  16.418  0.00  0.00    +0.000 A 
ATOM      5  C   UNL     1      48.287   5.075  16.275  0.00  0.00    +0.000 A 
ATOM      6  S   UNL     1      47.380   4.550  17.626  0.00  0.00    +0.000 S 
ATOM      7  C   UNL     1      47.756   5.966  18.492  0.00  0.00    +0.000 A 
ATOM      8  N   UNL     1      47.378   6.119  19.790  0.00  0.00    +0.000 NA
ATOM      9  C   UNL     1      47.796   7.214  20.335  0.00  0.00    +0.000 A 
ATOM     10  N   UNL     1      48.517   8.186  19.687  0.00  0.00    +0.000 N 
ATOM     11  C   UNL     1      48.806   8.132  18.339  0.00  0.00    +0.000 A 
ATOM     12  O   UNL     1      49.242   9.109  17.740  0.00  0.00    +0.000 OA
ATOM     13  C   UNL     1      48.471   6.863  17.724  0.00  0.00    +0.000 A 
ATOM     14  H   UNL     1      48.750   9.050  20.152  0.00  0.00    +0.000 HD
ENDBRANCH   2   4
BRANCH   1  16
ATOM     15  C   UNL     1      49.974   7.463  12.147  0.00  0.00    +0.000 C 
ATOM     16  C   UNL     1      50.037   8.315  13.406  0.00  0.00    +0.000 C 
ENDBRANCH   1  16
BRANCH   1  17
ATOM     17  C   UNL     1      47.693   8.107  14.365  0.00  0.00    +0.000 C 
BRANCH  17  18
ATOM     18  C   UNL     1      46.870   7.470  13.284  0.00  0.00    +0.000 A 
ATOM     19  C   UNL     1      46.076   8.209  12.408  0.00  0.00    +0.000 A 
ATOM     20  C   UNL     1      45.149   7.555  11.588  0.00  0.00    +0.000 A 
ATOM     21  C   UNL     1      45.060   6.170  11.635  0.00  0.00    +0.000 A 
ATOM     22  N   UNL     1      45.890   5.439  12.424  0.00  0.00    +0.000 NA
ATOM     23  C   UNL     1      46.761   6.090  13.219  0.00  0.00    +0.000 A 
BRANCH  21  24
ATOM     24  C   UNL     1      44.015   5.329  10.949  0.00  0.00    +0.000 C 
BRANCH  24  25
ATOM     25  C   UNL     1      44.321   4.250   9.900  0.00  0.00    +0.000 C 
ATOM     26  C   UNL     1      45.473   4.585   8.943  0.00  0.00    +0.000 C 
ATOM     27  C   UNL     1      45.578   3.493   7.875  0.00  0.00    +0.000 C 
ATOM     28  C   UNL     1      45.642   2.098   8.495  0.00  0.00    +0.000 C 
ATOM     29  N   UNL     1      44.528   1.853   9.412  0.00  0.00    +0.000 NA
ATOM     30  C   UNL     1      44.479   2.844  10.488  0.00  0.00    +0.000 C 
ATOM     31  H   UNL     1      44.616   0.922   9.817  0.00  0.00    +0.000 HD
ENDBRANCH  24  25
ENDBRANCH  21  24
ENDBRANCH  17  18
ENDBRANCH   1  17
TORSDOF 6
ENDMDL
MODEL 5
REMARK VINA RESULT:    -6.586      3.755      8.723
REMARK INTER + INTRA:         -10.219
REMARK INTER:                  -9.169
REMARK INTRA:                  -1.050
REMARK UNBOUND:                -1.323
REMARK  Name = 
REMARK  7 active torsions:
REMARK  status: ('A' for Active; 'I' for Inactive)
REMARK    1  A    between atoms: C_1  and  C_2
REMARK    2  A    between atoms: C_2  and  N_3
REMARK    3  A    between atoms: N_3  and  C_4
REMARK    4  A    between atoms: C_4  and  C_5
REMARK    5  A    between atoms: C_8  and  C_9
REMARK    6  A    between atoms: C_9  and  C_10
REMARK    7  A    between atoms: C_18  and  C_20
REMARK                            x       y       z     vdW  Elec       q    Type
REMARK                         _______ _______ _______ _____ _____    ______ ____
ROOT
ATOM      1  N   UNL     1      48.728   5.911  18.079  0.00  0.00    +0.000 N 
ATOM      2  C   UNL     1      49.491   5.195  19.022  0.00  0.00    +0.000 C 
ATOM      3  O   UNL     1      49.075   4.977  20.158  0.00  0.00    +0.000 OA
ENDROOT
BRANCH   2   4
ATOM      4  C   UNL     1      50.840   4.738  18.659  0.00  0.00    +0.000 A 
ATOM      5  C   UNL     1      52.007   5.428  18.947  0.00  0.00    +0.000 A 
ATOM      6  S   UNL     1      53.423   4.584  18.495  0.00  0.00    +0.000 S 
ATOM      7  C   UNL     1      52.522   3.220  18.023  0.00  0.00    +0.000 A 
ATOM      8  N   UNL     1      53.136   2.071  17.632  0.00  0.00    +0.000 NA
ATOM      9  C   UNL     1      52.322   1.101  17.372  0.00  0.00    +0.000 A 
ATOM     10  N   UNL     1      50.953   1.191  17.424  0.00  0.00    +0.000 N 
ATOM     11  C   UNL     1      50.289   2.371  17.686  0.00  0.00    +0.000 A 
ATOM     12  O   UNL     1      49.082   2.481  17.499  0.00  0.00    +0.000 OA
ATOM     13  C   UNL     1      51.163   3.447  18.111  0.00  0.00    +0.000 A 
ATOM     14  H   UNL     1      50.375   0.415  17.139  0.00  0.00    +0.000 HD
ENDBRANCH   2   4
BRANCH   1  16
ATOM     15  C   UNL     1      47.611   7.960  18.913  0.00  0.00    +0.000 C 
ATOM     16  C   UNL     1      47.467   6.488  18.554  0.00  0.00    +0.000 C 
ENDBRANCH   1  16
BRANCH   1  17
ATOM     17  C   UNL     1      49.198   6.173  16.721  0.00  0.00    +0.000 C 
BRANCH  17  18
ATOM     18  C   UNL     1      48.354   5.770  15.548  0.00  0.00    +0.000 A 
ATOM     19  C   UNL     1      48.236   6.552  14.401  0.00  0.00    +0.000 A 
ATOM     20  C   UNL     1      47.253   6.251  13.450  0.00  0.00    +0.000 A 
ATOM     21  C   UNL     1      46.430   5.151  13.650  0.00  0.00    +0.000 A 
ATOM     22  N   UNL     1      46.596   4.336  14.724  0.00  0.00    +0.000 NA
ATOM     23  C   UNL     1      47.535   4.654  15.635  0.00  0.00    +0.000 A 
BRANCH  21  24
ATOM     24  C   UNL     1      45.226   4.787  12.820  0.00  0.00    +0.000 C 
BRANCH  24  25
ATOM     25  C   UNL     1      45.287   4.361  11.346  0.00  0.00    +0.000 C 
ATOM     26  C   UNL     1      44.303   3.252  10.950  0.00  0.00    +0.000 C 
ATOM     27  C   UNL     1      44.564   2.835   9.501  0.00  0.00    +0.000 C 
ATOM     28  C   UNL     1      44.587   4.039   8.561  0.00  0.00    +0.000 C 
ATOM     29  N   UNL     1      45.529   5.066   9.007  0.00  0.00    +0.000 NA
ATOM     30  C   UNL     1      45.226   5.533  10.360  0.00  0.00    +0.000 C 
ATOM     31  H   UNL     1      45.502   5.858   8.365  0.00  0.00    +0.000 HD
ENDBRANCH  24  25
ENDBRANCH  21  24
ENDBRANCH  17  18
ENDBRANCH   1  17
TORSDOF 6
ENDMDL
MODEL 6
REMARK VINA RESULT:    -6.559      3.227      7.900
REMARK INTER + INTRA:         -10.183
REMARK INTER:                  -9.038
REMARK INTRA:                  -1.145
REMARK UNBOUND:                -1.323
REMARK  Name = 
REMARK  7 active torsions:
REMARK  status: ('A' for Active; 'I' for Inactive)
REMARK    1  A    between atoms: C_1  and  C_2
REMARK    2  A    between atoms: C_2  and  N_3
REMARK    3  A    between atoms: N_3  and  C_4
REMARK    4  A    between atoms: C_4  and  C_5
REMARK    5  A    between atoms: C_8  and  C_9
REMARK    6  A    between atoms: C_9  and  C_10
REMARK    7  A    between atoms: C_18  and  C_20
REMARK                            x       y       z     vdW  Elec       q    Type
REMARK                         _______ _______ _______ _____ _____    ______ ____
ROOT
ATOM      1  N   UNL     1      48.755   7.527  16.682  0.00  0.00    +0.000 N 
ATOM      2  C   UNL     1      48.373   6.814  17.835  0.00  0.00    +0.000 C 
ATOM      3  O   UNL     1      48.088   7.388  18.884  0.00  0.00    +0.000 OA
ENDROOT
BRANCH   2   4
ATOM      4  C   UNL     1      48.360   5.344  17.801  0.00  0.00    +0.000 A 
ATOM      5  C   UNL     1      47.226   4.574  17.607  0.00  0.00    +0.000 A 
ATOM      6  S   UNL     1      47.552   2.899  17.505  0.00  0.00    +0.000 S 
ATOM      7  C   UNL     1      49.230   3.168  17.586  0.00  0.00    +0.000 A 
ATOM      8  N   UNL     1      50.116   2.147  17.439  0.00  0.00    +0.000 NA
ATOM      9  C   UNL     1      51.354   2.516  17.454  0.00  0.00    +0.000 A 
ATOM     10  N   UNL     1      51.785   3.806  17.646  0.00  0.00    +0.000 N 
ATOM     11  C   UNL     1      50.927   4.848  17.930  0.00  0.00    +0.000 A 
ATOM     12  O   UNL     1      51.346   5.931  18.325  0.00  0.00    +0.000 OA
ATOM     13  C   UNL     1      49.526   4.501  17.792  0.00  0.00    +0.000 A 
ATOM     14  H   UNL     1      52.769   4.014  17.718  0.00  0.00    +0.000 HD
ENDBRANCH   2   4
BRANCH   1  16
ATOM     15  C   UNL     1      49.909   9.546  15.824  0.00  0.00    +0.000 C 
ATOM     16  C   UNL     1      48.916   8.977  16.827  0.00  0.00    +0.000 C 
ENDBRANCH   1  16
BRANCH   1  17
ATOM     17  C   UNL     1      49.089   6.867  15.422  0.00  0.00    +0.000 C 
BRANCH  17  18
ATOM     18  C   UNL     1      48.018   6.628  14.398  0.00  0.00    +0.000 A 
ATOM     19  C   UNL     1      47.470   7.654  13.629  0.00  0.00    +0.000 A 
ATOM     20  C   UNL     1      46.315   7.417  12.874  0.00  0.00    +0.000 A 
ATOM     21  C   UNL     1      45.751   6.148  12.875  0.00  0.00    +0.000 A 
ATOM     22  N   UNL     1      46.329   5.124  13.555  0.00  0.00    +0.000 NA
ATOM     23  C   UNL     1      47.429   5.378  14.290  0.00  0.00    +0.000 A 
BRANCH  21  24
ATOM     24  C   UNL     1      44.430   5.769  12.258  0.00  0.00    +0.000 C 
BRANCH  24  25
ATOM     25  C   UNL     1      44.265   4.743  11.127  0.00  0.00    +0.000 C 
ATOM     26  C   UNL     1      45.219   4.927   9.940  0.00  0.00    +0.000 C 
ATOM     27  C   UNL     1      44.854   3.930   8.837  0.00  0.00    +0.000 C 
ATOM     28  C   UNL     1      44.764   2.502   9.373  0.00  0.00    +0.000 C 
ATOM     29  N   UNL     1      43.855   2.401  10.516  0.00  0.00    +0.000 NA
ATOM     30  C   UNL     1      44.254   3.288  11.609  0.00  0.00    +0.000 C 
ATOM     31  H   UNL     1      43.835   1.440  10.854  0.00  0.00    +0.000 HD
ENDBRANCH  24  25
ENDBRANCH  21  24
ENDBRANCH  17  18
ENDBRANCH   1  17
TORSDOF 6
ENDMDL
MODEL 7
REMARK VINA RESULT:    -6.530      3.261      8.243
REMARK INTER + INTRA:         -10.144
REMARK INTER:                  -9.368
REMARK INTRA:                  -0.776
REMARK UNBOUND:                -1.323
REMARK  Name = 
REMARK  7 active torsions:
REMARK  status: ('A' for Active; 'I' for Inactive)
REMARK    1  A    between atoms: C_1  and  C_2
REMARK    2  A    between atoms: C_2  and  N_3
REMARK    3  A    between atoms: N_3  and  C_4
REMARK    4  A    between atoms: C_4  and  C_5
REMARK    5  A    between atoms: C_8  and  C_9
REMARK    6  A    between atoms: C_9  and  C_10
REMARK    7  A    between atoms: C_18  and  C_20
REMARK                            x       y       z     vdW  Elec       q    Type
REMARK                         _______ _______ _______ _____ _____    ______ ____
ROOT
ATOM      1  N   UNL     1      47.871   7.004  13.605  0.00  0.00    +0.000 N 
ATOM      2  C   UNL     1      48.748   6.659  14.652  0.00  0.00    +0.000 C 
ATOM      3  O   UNL     1      49.951   6.902  14.593  0.00  0.00    +0.000 OA
ENDROOT
BRANCH   2   4
ATOM      4  C   UNL     1      48.223   5.945  15.824  0.00  0.00    +0.000 A 
ATOM      5  C   UNL     1      47.816   4.621  15.820  0.00  0.00    +0.000 A 
ATOM      6  S   UNL     1      47.360   4.044  17.363  0.00  0.00    +0.000 S 
ATOM      7  C   UNL     1      47.819   5.507  18.101  0.00  0.00    +0.000 A 
ATOM      8  N   UNL     1      47.792   5.654  19.453  0.00  0.00    +0.000 NA
ATOM      9  C   UNL     1      48.234   6.794  19.869  0.00  0.00    +0.000 A 
ATOM     10  N   UNL     1      48.658   7.815  19.054  0.00  0.00    +0.000 N 
ATOM     11  C   UNL     1      48.578   7.758  17.679  0.00  0.00    +0.000 A 
ATOM     12  O   UNL     1      48.741   8.758  16.987  0.00  0.00    +0.000 OA
ATOM     13  C   UNL     1      48.212   6.450  17.172  0.00  0.00    +0.000 A 
ATOM     14  H   UNL     1      48.925   8.707  19.443  0.00  0.00    +0.000 HD
ENDBRANCH   2   4
BRANCH   1  16
ATOM     15  C   UNL     1      47.965   8.954  12.078  0.00  0.00    +0.000 C 
ATOM     16  C   UNL     1      48.480   7.557  12.391  0.00  0.00    +0.000 C 
ENDBRANCH   1  16
BRANCH   1  17
ATOM     17  C   UNL     1      46.436   6.734  13.657  0.00  0.00    +0.000 C 
BRANCH  17  18
ATOM     18  C   UNL     1      45.836   5.712  12.738  0.00  0.00    +0.000 A 
ATOM     19  C   UNL     1      45.639   4.384  13.113  0.00  0.00    +0.000 A 
ATOM     20  C   UNL     1      45.307   3.429  12.145  0.00  0.00    +0.000 A 
ATOM     21  C   UNL     1      45.144   3.828  10.826  0.00  0.00    +0.000 A 
ATOM     22  N   UNL     1      45.250   5.134  10.468  0.00  0.00    +0.000 NA
ATOM     23  C   UNL     1      45.588   6.034  11.412  0.00  0.00    +0.000 A 
BRANCH  21  24
ATOM     24  C   UNL     1      44.953   2.912   9.644  0.00  0.00    +0.000 C 
BRANCH  24  25
ATOM     25  C   UNL     1      45.954   2.767   8.489  0.00  0.00    +0.000 C 
ATOM     26  C   UNL     1      46.248   1.323   8.063  0.00  0.00    +0.000 C 
ATOM     27  C   UNL     1      47.355   1.321   7.005  0.00  0.00    +0.000 C 
ATOM     28  C   UNL     1      47.041   2.279   5.856  0.00  0.00    +0.000 C 
ATOM     29  N   UNL     1      46.750   3.632   6.333  0.00  0.00    +0.000 NA
ATOM     30  C   UNL     1      45.632   3.648   7.277  0.00  0.00    +0.000 C 
ATOM     31  H   UNL     1      46.530   4.234   5.541  0.00  0.00    +0.000 HD
ENDBRANCH  24  25
ENDBRANCH  21  24
ENDBRANCH  17  18
ENDBRANCH   1  17
TORSDOF 6
ENDMDL
MODEL 8
REMARK VINA RESULT:    -5.619      4.302      9.205
REMARK INTER + INTRA:          -8.913
REMARK INTER:                  -7.800
REMARK INTRA:                  -1.113
REMARK UNBOUND:                -1.323
REMARK  Name = 
REMARK  7 active torsions:
REMARK  status: ('A' for Active; 'I' for Inactive)
REMARK    1  A    between atoms: C_1  and  C_2
REMARK    2  A    between atoms: C_2  and  N_3
REMARK    3  A    between atoms: N_3  and  C_4
REMARK    4  A    between atoms: C_4  and  C_5
REMARK    5  A    between atoms: C_8  and  C_9
REMARK    6  A    between atoms: C_9  and  C_10
REMARK    7  A    between atoms: C_18  and  C_20
REMARK                            x       y       z     vdW  Elec       q    Type
REMARK                         _______ _______ _______ _____ _____    ______ ____
ROOT
ATOM      1  N   UNL     1      49.788   4.445  17.404  0.00  0.00    +0.000 N 
ATOM      2  C   UNL     1      51.089   4.984  17.364  0.00  0.00    +0.000 C 
ATOM      3  O   UNL     1      52.082   4.290  17.569  0.00  0.00    +0.000 OA
ENDROOT
BRANCH   2   4
ATOM      4  C   UNL     1      51.265   6.423  17.119  0.00  0.00    +0.000 A 
ATOM      5  C   UNL     1      51.543   6.980  15.882  0.00  0.00    +0.000 A 
ATOM      6  S   UNL     1      51.577   8.689  15.900  0.00  0.00    +0.000 S 
ATOM      7  C   UNL     1      51.092   8.734  17.530  0.00  0.00    +0.000 A 
ATOM      8  N   UNL     1      50.819   9.912  18.152  0.00  0.00    +0.000 NA
ATOM      9  C   UNL     1      50.395   9.781  19.366  0.00  0.00    +0.000 A 
ATOM     10  N   UNL     1      50.262   8.584  20.025  0.00  0.00    +0.000 N 
ATOM     11  C   UNL     1      50.652   7.380  19.478  0.00  0.00    +0.000 A 
ATOM     12  O   UNL     1      50.742   6.366  20.162  0.00  0.00    +0.000 OA
ATOM     13  C   UNL     1      51.009   7.468  18.075  0.00  0.00    +0.000 A 
ATOM     14  H   UNL     1      49.993   8.559  20.997  0.00  0.00    +0.000 HD
ENDBRANCH   2   4
BRANCH   1  16
ATOM     15  C   UNL     1      49.820   2.084  16.653  0.00  0.00    +0.000 C 
ATOM     16  C   UNL     1      49.667   3.045  17.822  0.00  0.00    +0.000 C 
ENDBRANCH   1  16
BRANCH   1  17
ATOM     17  C   UNL     1      48.594   5.249  17.154  0.00  0.00    +0.000 C 
BRANCH  17  18
ATOM     18  C   UNL     1      47.901   5.163  15.826  0.00  0.00    +0.000 A 
ATOM     19  C   UNL     1      48.012   6.154  14.853  0.00  0.00    +0.000 A 
ATOM     20  C   UNL     1      47.159   6.141  13.743  0.00  0.00    +0.000 A 
ATOM     21  C   UNL     1      46.233   5.114  13.612  0.00  0.00    +0.000 A 
ATOM     22  N   UNL     1      46.177   4.100  14.514  0.00  0.00    +0.000 NA
ATOM     23  C   UNL     1      46.995   4.142  15.583  0.00  0.00    +0.000 A 
BRANCH  21  24
ATOM     24  C   UNL     1      45.139   5.039  12.579  0.00  0.00    +0.000 C 
BRANCH  24  25
ATOM     25  C   UNL     1      45.330   4.508  11.151  0.00  0.00    +0.000 C 
ATOM     26  C   UNL     1      44.489   3.274  10.799  0.00  0.00    +0.000 C 
ATOM     27  C   UNL     1      44.878   2.776   9.405  0.00  0.00    +0.000 C 
ATOM     28  C   UNL     1      44.834   3.900   8.370  0.00  0.00    +0.000 C 
ATOM     29  N   UNL     1      45.639   5.052   8.777  0.00  0.00    +0.000 NA
ATOM     30  C   UNL     1      45.210   5.587  10.069  0.00  0.00    +0.000 C 
ATOM     31  H   UNL     1      45.570   5.784   8.071  0.00  0.00    +0.000 HD
ENDBRANCH  24  25
ENDBRANCH  21  24
ENDBRANCH  17  18
ENDBRANCH   1  17
TORSDOF 6
ENDMDL
MODEL 9
REMARK VINA RESULT:    -5.606      2.611      3.102
REMARK INTER + INTRA:          -8.895
REMARK INTER:                  -7.953
REMARK INTRA:                  -0.942
REMARK UNBOUND:                -1.323
REMARK  Name = 
REMARK  7 active torsions:
REMARK  status: ('A' for Active; 'I' for Inactive)
REMARK    1  A    between atoms: C_1  and  C_2
REMARK    2  A    between atoms: C_2  and  N_3
REMARK    3  A    between atoms: N_3  and  C_4
REMARK    4  A    between atoms: C_4  and  C_5
REMARK    5  A    between atoms: C_8  and  C_9
REMARK    6  A    between atoms: C_9  and  C_10
REMARK    7  A    between atoms: C_18  and  C_20
REMARK                            x       y       z     vdW  Elec       q    Type
REMARK                         _______ _______ _______ _____ _____    ______ ____
ROOT
ATOM      1  N   UNL     1      45.355   7.013  12.274  0.00  0.00    +0.000 N 
ATOM      2  C   UNL     1      44.221   6.457  11.650  0.00  0.00    +0.000 C 
ATOM      3  O   UNL     1      43.264   7.150  11.313  0.00  0.00    +0.000 OA
ENDROOT
BRANCH   2   4
ATOM      4  C   UNL     1      44.157   5.004  11.437  0.00  0.00    +0.000 A 
ATOM      5  C   UNL     1      43.433   4.127  12.227  0.00  0.00    +0.000 A 
ATOM      6  S   UNL     1      43.465   2.515  11.658  0.00  0.00    +0.000 S 
ATOM      7  C   UNL     1      44.339   2.969  10.270  0.00  0.00    +0.000 A 
ATOM      8  N   UNL     1      44.611   2.072   9.284  0.00  0.00    +0.000 NA
ATOM      9  C   UNL     1      45.219   2.579   8.263  0.00  0.00    +0.000 A 
ATOM     10  N   UNL     1      45.617   3.890   8.159  0.00  0.00    +0.000 N 
ATOM     11  C   UNL     1      45.480   4.798   9.188  0.00  0.00    +0.000 A 
ATOM     12  O   UNL     1      46.046   5.885   9.160  0.00  0.00    +0.000 OA
ATOM     13  C   UNL     1      44.687   4.305  10.296  0.00  0.00    +0.000 A 
ATOM     14  H   UNL     1      46.151   4.203   7.363  0.00  0.00    +0.000 HD
ENDBRANCH   2   4
BRANCH   1  16
ATOM     15  C   UNL     1      45.582   9.327  11.416  0.00  0.00    +0.000 C 
ATOM     16  C   UNL     1      45.287   8.438  12.615  0.00  0.00    +0.000 C 
ENDBRANCH   1  16
BRANCH   1  17
ATOM     17  C   UNL     1      46.508   6.210  12.673  0.00  0.00    +0.000 C 
BRANCH  17  18
ATOM     18  C   UNL     1      47.776   6.887  13.102  0.00  0.00    +0.000 A 
ATOM     19  C   UNL     1      48.674   7.448  12.196  0.00  0.00    +0.000 A 
ATOM     20  C   UNL     1      49.945   7.844  12.628  0.00  0.00    +0.000 A 
ATOM     21  C   UNL     1      50.280   7.703  13.969  0.00  0.00    +0.000 A 
ATOM     22  N   UNL     1      49.381   7.236  14.872  0.00  0.00    +0.000 NA
ATOM     23  C   UNL     1      48.170   6.843  14.431  0.00  0.00    +0.000 A 
BRANCH  21  24
ATOM     24  C   UNL     1      51.647   7.921  14.564  0.00  0.00    +0.000 C 
BRANCH  24  25
ATOM     25  C   UNL     1      52.101   7.363  15.921  0.00  0.00    +0.000 C 
ATOM     26  C   UNL     1      53.447   6.628  15.902  0.00  0.00    +0.000 C 
ATOM     27  C   UNL     1      53.708   6.011  17.279  0.00  0.00    +0.000 C 
ATOM     28  C   UNL     1      53.553   7.040  18.398  0.00  0.00    +0.000 C 
ATOM     29  N   UNL     1      52.258   7.719  18.345  0.00  0.00    +0.000 NA
ATOM     30  C   UNL     1      52.044   8.386  17.061  0.00  0.00    +0.000 C 
ATOM     31  H   UNL     1      52.200   8.407  19.095  0.00  0.00    +0.000 HD
ENDBRANCH  24  25
ENDBRANCH  21  24
ENDBRANCH  17  18
ENDBRANCH   1  17
TORSDOF 6
ENDMDL
