MODEL 1
REMARK VINA RESULT:    -8.586      0.000      0.000
REMARK INTER + INTRA:         -12.943
REMARK INTER:                 -12.100
REMARK INTRA:                  -0.843
REMARK UNBOUND:                -0.843
REMARK  Name = 
REMARK  7 active torsions:
REMARK  status: ('A' for Active; 'I' for Inactive)
REMARK    1  A    between atoms: C_2  and  C_20
REMARK    2  A    between atoms: N_3  and  C_4
REMARK    3  A    between atoms: C_4  and  C_5
REMARK    4  A    between atoms: C_8  and  C_9
REMARK    5  A    between atoms: C_9  and  N_10
REMARK    6  A    between atoms: N_10  and  C_11
REMARK    7  A    between atoms: C_11  and  C_12
REMARK                            x       y       z     vdW  Elec       q    Type
REMARK                         _______ _______ _______ _____ _____    ______ ____
ROOT
ATOM      1  C   UNL     1      46.430   4.329  13.996  0.00  0.00    +0.000 C 
ENDROOT
BRANCH   1   2
ATOM      2  C   UNL     1      45.604   5.600  13.728  0.00  0.00    +0.000 C 
ATOM      3  C   UNL     1      46.357   6.657  12.900  0.00  0.00    +0.000 C 
ATOM      4  C   UNL     1      46.607   6.216  11.458  0.00  0.00    +0.000 C 
ATOM      5  C   UNL     1      45.312   5.807  10.737  0.00  0.00    +0.000 C 
ATOM      6  C   UNL     1      44.475   4.819  11.574  0.00  0.00    +0.000 C 
ATOM      7  C   UNL     1      44.285   5.260  13.024  0.00  0.00    +0.000 C 
BRANCH   5   8
ATOM      8  C   UNL     1      45.643   5.216   9.347  0.00  0.00    +0.000 C 
BRANCH   8   9
ATOM      9  N   UNL     1      44.923   3.963   9.144  0.00  0.00    +0.000 NA
ATOM     10  H   UNL     1      44.011   4.004   9.599  0.00  0.00    +0.000 HD
BRANCH   9  11
ATOM     11  C   UNL     1      44.746   3.634   7.734  0.00  0.00    +0.000 C 
BRANCH  11  12
ATOM     12  C   UNL     1      45.933   2.851   7.230  0.00  0.00    +0.000 A 
ATOM     13  C   UNL     1      46.597   3.215   6.055  0.00  0.00    +0.000 A 
ATOM     14  C   UNL     1      47.672   2.447   5.633  0.00  0.00    +0.000 A 
ATOM     15  N   UNL     1      48.125   1.356   6.290  0.00  0.00    +0.000 NA
ATOM     16  C   UNL     1      47.470   1.019   7.421  0.00  0.00    +0.000 A 
ATOM     17  C   UNL     1      46.390   1.724   7.925  0.00  0.00    +0.000 A 
ENDBRANCH  11  12
ENDBRANCH   9  11
ENDBRANCH   8   9
ENDBRANCH   5   8
ENDBRANCH   1   2
BRANCH   1  20
ATOM     18  O   UNL     1      46.498   3.470  16.714  0.00  0.00    +0.000 OA
ATOM     19  C   UNL     1      47.452   4.088  16.251  0.00  0.00    +0.000 C 
ATOM     20  N   UNL     1      47.482   4.541  14.957  0.00  0.00    +0.000 N 
ATOM     21  H   UNL     1      48.336   4.958  14.602  0.00  0.00    +0.000 HD
BRANCH  19  22
ATOM     22  C   UNL     1      48.627   4.421  17.069  0.00  0.00    +0.000 A 
ATOM     23  C   UNL     1      48.702   5.650  17.710  0.00  0.00    +0.000 A 
ATOM     24  S   UNL     1      50.147   5.875  18.589  0.00  0.00    +0.000 S 
ATOM     25  C   UNL     1      50.702   4.318  18.185  0.00  0.00    +0.000 A 
ATOM     26  N   UNL     1      51.894   3.857  18.652  0.00  0.00    +0.000 NA
ATOM     27  C   UNL     1      52.175   2.647  18.298  0.00  0.00    +0.000 A 
ATOM     28  N   UNL     1      51.379   1.861  17.508  0.00  0.00    +0.000 N 
ATOM     29  C   UNL     1      50.202   2.307  16.963  0.00  0.00    +0.000 A 
ATOM     30  O   UNL     1      49.579   1.616  16.164  0.00  0.00    +0.000 OA
ATOM     31  C   UNL     1      49.813   3.646  17.366  0.00  0.00    +0.000 A 
ATOM     32  H   UNL     1      51.669   0.932  17.240  0.00  0.00    +0.000 HD
ENDBRANCH  19  22
ENDBRANCH   1  20
TORSDOF 7
ENDMDL
MODEL 2
REMARK VINA RESULT:    -8.172      1.957      2.542
REMARK INTER + INTRA:         -12.358
REMARK INTER:                 -11.194
REMARK INTRA:                  -1.164
REMARK UNBOUND:                -0.843
REMARK  Name = 
REMARK  7 active torsions:
REMARK  status: ('A' for Active; 'I' for Inactive)
REMARK    1  A    between atoms: C_2  and  C_20
REMARK    2  A    between atoms: N_3  and  C_4
REMARK    3  A    between atoms: C_4  and  C_5
REMARK    4  A    between atoms: C_8  and  C_9
REMARK    5  A    between atoms: C_9  and  N_10
REMARK    6  A    between atoms: N_10  and  C_11
REMARK    7  A    between atoms: C_11  and  C_12
REMARK                            x       y       z     vdW  Elec       q    Type
REMARK                         _______ _______ _______ _____ _____    ______ ____
ROOT
ATOM      1  C   UNL     1      47.309   5.587  13.231  0.00  0.00    +0.000 C 
ENDROOT
BRANCH   1   2
ATOM      2  C   UNL     1      46.321   6.577  12.587  0.00  0.00    +0.000 C 
ATOM      3  C   UNL     1      46.240   6.455  11.056  0.00  0.00    +0.000 C 
ATOM      4  C   UNL     1      45.609   5.141  10.595  0.00  0.00    +0.000 C 
ATOM      5  C   UNL     1      44.221   4.909  11.216  0.00  0.00    +0.000 C 
ATOM      6  C   UNL     1      44.232   5.116  12.744  0.00  0.00    +0.000 C 
ATOM      7  C   UNL     1      44.915   6.411  13.178  0.00  0.00    +0.000 C 
BRANCH   5   8
ATOM      8  C   UNL     1      43.705   3.498  10.849  0.00  0.00    +0.000 C 
BRANCH   8   9
ATOM      9  N   UNL     1      44.815   2.643  10.440  0.00  0.00    +0.000 NA
ATOM     10  H   UNL     1      45.036   1.976  11.178  0.00  0.00    +0.000 HD
BRANCH   9  11
ATOM     11  C   UNL     1      44.547   1.923   9.201  0.00  0.00    +0.000 C 
BRANCH  11  12
ATOM     12  C   UNL     1      45.665   2.151   8.213  0.00  0.00    +0.000 A 
ATOM     13  C   UNL     1      46.586   1.144   7.913  0.00  0.00    +0.000 A 
ATOM     14  C   UNL     1      47.601   1.419   7.009  0.00  0.00    +0.000 A 
ATOM     15  N   UNL     1      47.763   2.610   6.394  0.00  0.00    +0.000 NA
ATOM     16  C   UNL     1      46.865   3.571   6.697  0.00  0.00    +0.000 A 
ATOM     17  C   UNL     1      45.815   3.393   7.583  0.00  0.00    +0.000 A 
ENDBRANCH  11  12
ENDBRANCH   9  11
ENDBRANCH   8   9
ENDBRANCH   5   8
ENDBRANCH   1   2
BRANCH   1  20
ATOM     18  O   UNL     1      49.608   6.841  14.360  0.00  0.00    +0.000 OA
ATOM     19  C   UNL     1      48.687   6.492  15.093  0.00  0.00    +0.000 C 
ATOM     20  N   UNL     1      47.558   5.874  14.621  0.00  0.00    +0.000 N 
ATOM     21  H   UNL     1      46.790   5.699  15.259  0.00  0.00    +0.000 HD
BRANCH  19  22
ATOM     22  C   UNL     1      48.745   6.683  16.550  0.00  0.00    +0.000 A 
ATOM     23  C   UNL     1      48.858   7.961  17.080  0.00  0.00    +0.000 A 
ATOM     24  S   UNL     1      48.939   7.988  18.784  0.00  0.00    +0.000 S 
ATOM     25  C   UNL     1      48.777   6.297  18.877  0.00  0.00    +0.000 A 
ATOM     26  N   UNL     1      48.742   5.662  20.079  0.00  0.00    +0.000 NA
ATOM     27  C   UNL     1      48.578   4.383  20.004  0.00  0.00    +0.000 A 
ATOM     28  N   UNL     1      48.460   3.679  18.835  0.00  0.00    +0.000 N 
ATOM     29  C   UNL     1      48.554   4.270  17.600  0.00  0.00    +0.000 A 
ATOM     30  O   UNL     1      48.565   3.590  16.579  0.00  0.00    +0.000 OA
ATOM     31  C   UNL     1      48.692   5.714  17.625  0.00  0.00    +0.000 A 
ATOM     32  H   UNL     1      48.365   2.674  18.840  0.00  0.00    +0.000 HD
ENDBRANCH  19  22
ENDBRANCH   1  20
TORSDOF 7
ENDMDL
MODEL 3
REMARK VINA RESULT:    -7.958      1.766      2.232
REMARK INTER + INTRA:         -12.057
REMARK INTER:                 -11.048
REMARK INTRA:                  -1.009
REMARK UNBOUND:                -0.843
REMARK  Name = 
REMARK  7 active torsions:
REMARK  status: ('A' for Active; 'I' for Inactive)
REMARK    1  A    between atoms: C_2  and  C_20
REMARK    2  A    between atoms: N_3  and  C_4
REMARK    3  A    between atoms: C_4  and  C_5
REMARK    4  A    between atoms: C_8  and  C_9
REMARK    5  A    between atoms: C_9  and  N_10
REMARK    6  A    between atoms: N_10  and  C_11
REMARK    7  A    between atoms: C_11  and  C_12
REMARK                            x       y       z     vdW  Elec       q    Type
REMARK                         _______ _______ _______ _____ _____    ______ ____
ROOT
ATOM      1  C   UNL     1      46.641   5.002  13.648  0.00  0.00    +0.000 C 
ENDROOT
BRANCH   1   2
ATOM      2  C   UNL     1      46.307   6.354  12.991  0.00  0.00    +0.000 C 
ATOM      3  C   UNL     1      46.708   6.432  11.508  0.00  0.00    +0.000 C 
ATOM      4  C   UNL     1      45.873   5.512  10.617  0.00  0.00    +0.000 C 
ATOM      5  C   UNL     1      44.363   5.761  10.768  0.00  0.00    +0.000 C 
ATOM      6  C   UNL     1      43.930   5.789  12.248  0.00  0.00    +0.000 C 
ATOM      7  C   UNL     1      44.814   6.674  13.124  0.00  0.00    +0.000 C 
BRANCH   5   8
ATOM      8  C   UNL     1      43.568   4.698   9.976  0.00  0.00    +0.000 C 
BRANCH   8   9
ATOM      9  N   UNL     1      44.328   4.261   8.809  0.00  0.00    +0.000 NA
ATOM     10  H   UNL     1      45.262   4.671   8.825  0.00  0.00    +0.000 HD
BRANCH   9  11
ATOM     11  C   UNL     1      44.439   2.810   8.717  0.00  0.00    +0.000 C 
BRANCH  11  12
ATOM     12  C   UNL     1      45.675   2.431   7.939  0.00  0.00    +0.000 A 
ATOM     13  C   UNL     1      46.248   3.309   7.014  0.00  0.00    +0.000 A 
ATOM     14  C   UNL     1      47.375   2.897   6.317  0.00  0.00    +0.000 A 
ATOM     15  N   UNL     1      47.961   1.691   6.474  0.00  0.00    +0.000 NA
ATOM     16  C   UNL     1      47.393   0.856   7.370  0.00  0.00    +0.000 A 
ATOM     17  C   UNL     1      46.270   1.176   8.117  0.00  0.00    +0.000 A 
ENDBRANCH  11  12
ENDBRANCH   9  11
ENDBRANCH   8   9
ENDBRANCH   5   8
ENDBRANCH   1   2
BRANCH   1  20
ATOM     18  O   UNL     1      47.758   2.951  15.283  0.00  0.00    +0.000 OA
ATOM     19  C   UNL     1      47.778   4.114  15.674  0.00  0.00    +0.000 C 
ATOM     20  N   UNL     1      47.249   5.149  14.946  0.00  0.00    +0.000 N 
ATOM     21  H   UNL     1      47.382   6.099  15.273  0.00  0.00    +0.000 HD
BRANCH  19  22
ATOM     22  C   UNL     1      48.344   4.481  16.981  0.00  0.00    +0.000 A 
ATOM     23  C   UNL     1      47.952   3.798  18.124  0.00  0.00    +0.000 A 
ATOM     24  S   UNL     1      48.688   4.376  19.551  0.00  0.00    +0.000 S 
ATOM     25  C   UNL     1      49.593   5.528  18.685  0.00  0.00    +0.000 A 
ATOM     26  N   UNL     1      50.469   6.351  19.321  0.00  0.00    +0.000 NA
ATOM     27  C   UNL     1      51.116   7.150  18.540  0.00  0.00    +0.000 A 
ATOM     28  N   UNL     1      50.958   7.210  17.181  0.00  0.00    +0.000 N 
ATOM     29  C   UNL     1      50.041   6.444  16.506  0.00  0.00    +0.000 A 
ATOM     30  O   UNL     1      49.844   6.613  15.307  0.00  0.00    +0.000 OA
ATOM     31  C   UNL     1      49.317   5.493  17.330  0.00  0.00    +0.000 A 
ATOM     32  H   UNL     1      51.471   7.879  16.626  0.00  0.00    +0.000 HD
ENDBRANCH  19  22
ENDBRANCH   1  20
TORSDOF 7
ENDMDL
MODEL 4
REMARK VINA RESULT:    -7.659      3.666      9.450
REMARK INTER + INTRA:         -11.636
REMARK INTER:                 -10.238
REMARK INTRA:                  -1.397
REMARK UNBOUND:                -0.843
REMARK  Name = 
REMARK  7 active torsions:
REMARK  status: ('A' for Active; 'I' for Inactive)
REMARK    1  A    between atoms: C_2  and  C_20
REMARK    2  A    between atoms: N_3  and  C_4
REMARK    3  A    between atoms: C_4  and  C_5
REMARK    4  A    between atoms: C_8  and  C_9
REMARK    5  A    between atoms: C_9  and  N_10
REMARK    6  A    between atoms: N_10  and  C_11
REMARK    7  A    between atoms: C_11  and  C_12
REMARK                            x       y       z     vdW  Elec       q    Type
REMARK                         _______ _______ _______ _____ _____    ______ ____
ROOT
ATOM      1  C   UNL     1      48.646   5.865  15.954  0.00  0.00    +0.000 C 
ENDROOT
BRANCH   1   2
ATOM      2  C   UNL     1      48.220   5.261  17.304  0.00  0.00    +0.000 C 
ATOM      3  C   UNL     1      47.565   3.875  17.177  0.00  0.00    +0.000 C 
ATOM      4  C   UNL     1      48.545   2.794  16.722  0.00  0.00    +0.000 C 
ATOM      5  C   UNL     1      49.786   2.709  17.626  0.00  0.00    +0.000 C 
ATOM      6  C   UNL     1      50.422   4.094  17.861  0.00  0.00    +0.000 C 
ATOM      7  C   UNL     1      49.412   5.167  18.264  0.00  0.00    +0.000 C 
BRANCH   5   8
ATOM      8  C   UNL     1      50.813   1.721  17.026  0.00  0.00    +0.000 C 
BRANCH   8   9
ATOM      9  N   UNL     1      51.570   1.068  18.090  0.00  0.00    +0.000 NA
ATOM     10  H   UNL     1      51.173   0.150  18.291  0.00  0.00    +0.000 HD
BRANCH   9  11
ATOM     11  C   UNL     1      52.985   0.924  17.771  0.00  0.00    +0.000 C 
BRANCH  11  12
ATOM     12  C   UNL     1      53.732   2.183  18.139  0.00  0.00    +0.000 A 
ATOM     13  C   UNL     1      53.500   2.836  19.352  0.00  0.00    +0.000 A 
ATOM     14  C   UNL     1      54.205   3.999  19.627  0.00  0.00    +0.000 A 
ATOM     15  N   UNL     1      55.110   4.549  18.789  0.00  0.00    +0.000 NA
ATOM     16  C   UNL     1      55.319   3.905  17.621  0.00  0.00    +0.000 A 
ATOM     17  C   UNL     1      54.668   2.738  17.257  0.00  0.00    +0.000 A 
ENDBRANCH  11  12
ENDBRANCH   9  11
ENDBRANCH   8   9
ENDBRANCH   5   8
ENDBRANCH   1   2
BRANCH   1  20
ATOM     18  O   UNL     1      48.849   6.339  13.149  0.00  0.00    +0.000 OA
ATOM     19  C   UNL     1      47.751   6.103  13.645  0.00  0.00    +0.000 C 
ATOM     20  N   UNL     1      47.578   5.877  14.987  0.00  0.00    +0.000 N 
ATOM     21  H   UNL     1      46.666   5.589  15.323  0.00  0.00    +0.000 HD
BRANCH  19  22
ATOM     22  C   UNL     1      46.525   6.079  12.834  0.00  0.00    +0.000 A 
ATOM     23  C   UNL     1      46.062   7.246  12.241  0.00  0.00    +0.000 A 
ATOM     24  S   UNL     1      44.614   7.036  11.362  0.00  0.00    +0.000 S 
ATOM     25  C   UNL     1      44.581   5.370  11.701  0.00  0.00    +0.000 A 
ATOM     26  N   UNL     1      43.594   4.575  11.209  0.00  0.00    +0.000 NA
ATOM     27  C   UNL     1      43.712   3.325  11.513  0.00  0.00    +0.000 A 
ATOM     28  N   UNL     1      44.721   2.800  12.276  0.00  0.00    +0.000 N 
ATOM     29  C   UNL     1      45.700   3.573  12.846  0.00  0.00    +0.000 A 
ATOM     30  O   UNL     1      46.515   3.083  13.622  0.00  0.00    +0.000 OA
ATOM     31  C   UNL     1      45.643   4.982  12.499  0.00  0.00    +0.000 A 
ATOM     32  H   UNL     1      44.741   1.817  12.506  0.00  0.00    +0.000 HD
ENDBRANCH  19  22
ENDBRANCH   1  20
TORSDOF 7
ENDMDL
MODEL 5
REMARK VINA RESULT:    -7.486      3.838      8.837
REMARK INTER + INTRA:         -11.392
REMARK INTER:                  -9.411
REMARK INTRA:                  -1.980
REMARK UNBOUND:                -0.843
REMARK  Name = 
REMARK  7 active torsions:
REMARK  status: ('A' for Active; 'I' for Inactive)
REMARK    1  A    between atoms: C_2  and  C_20
REMARK    2  A    between atoms: N_3  and  C_4
REMARK    3  A    between atoms: C_4  and  C_5
REMARK    4  A    between atoms: C_8  and  C_9
REMARK    5  A    between atoms: C_9  and  N_10
REMARK    6  A    between atoms: N_10  and  C_11
REMARK    7  A    between atoms: C_11  and  C_12
REMARK                            x       y       z     vdW  Elec       q    Type
REMARK                         _______ _______ _______ _____ _____    ______ ____
ROOT
ATOM      1  C   UNL     1      49.072   6.851  15.654  0.00  0.00    +0.000 C 
ENDROOT
BRANCH   1   2
ATOM      2  C   UNL     1      49.405   8.335  15.889  0.00  0.00    +0.000 C 
ATOM      3  C   UNL     1      48.255   9.127  16.535  0.00  0.00    +0.000 C 
ATOM      4  C   UNL     1      47.977   8.705  17.977  0.00  0.00    +0.000 C 
ATOM      5  C   UNL     1      49.232   8.783  18.863  0.00  0.00    +0.000 C 
ATOM      6  C   UNL     1      50.441   8.083  18.210  0.00  0.00    +0.000 C 
ATOM      7  C   UNL     1      50.663   8.484  16.753  0.00  0.00    +0.000 C 
BRANCH   5   8
ATOM      8  C   UNL     1      48.934   8.190  20.259  0.00  0.00    +0.000 C 
BRANCH   8   9
ATOM      9  N   UNL     1      49.302   6.778  20.300  0.00  0.00    +0.000 NA
ATOM     10  H   UNL     1      49.792   6.568  21.169  0.00  0.00    +0.000 HD
BRANCH   9  11
ATOM     11  C   UNL     1      48.153   5.890  20.166  0.00  0.00    +0.000 C 
BRANCH  11  12
ATOM     12  C   UNL     1      48.316   5.010  18.950  0.00  0.00    +0.000 A 
ATOM     13  C   UNL     1      47.234   4.719  18.115  0.00  0.00    +0.000 A 
ATOM     14  C   UNL     1      47.442   3.891  17.022  0.00  0.00    +0.000 A 
ATOM     15  N   UNL     1      48.635   3.340  16.707  0.00  0.00    +0.000 NA
ATOM     16  C   UNL     1      49.668   3.632  17.526  0.00  0.00    +0.000 A 
ATOM     17  C   UNL     1      49.561   4.450  18.639  0.00  0.00    +0.000 A 
ENDBRANCH  11  12
ENDBRANCH   9  11
ENDBRANCH   8   9
ENDBRANCH   5   8
ENDBRANCH   1   2
BRANCH   1  20
ATOM     18  O   UNL     1      49.014   6.201  12.878  0.00  0.00    +0.000 OA
ATOM     19  C   UNL     1      47.958   6.342  13.488  0.00  0.00    +0.000 C 
ATOM     20  N   UNL     1      47.911   6.666  14.821  0.00  0.00    +0.000 N 
ATOM     21  H   UNL     1      47.014   6.673  15.293  0.00  0.00    +0.000 HD
BRANCH  19  22
ATOM     22  C   UNL     1      46.655   6.209  12.820  0.00  0.00    +0.000 A 
ATOM     23  C   UNL     1      46.041   7.324  12.266  0.00  0.00    +0.000 A 
ATOM     24  S   UNL     1      44.525   6.987  11.559  0.00  0.00    +0.000 S 
ATOM     25  C   UNL     1      44.658   5.331  11.924  0.00  0.00    +0.000 A 
ATOM     26  N   UNL     1      43.686   4.453  11.558  0.00  0.00    +0.000 NA
ATOM     27  C   UNL     1      43.933   3.223  11.865  0.00  0.00    +0.000 A 
ATOM     28  N   UNL     1      45.057   2.792  12.517  0.00  0.00    +0.000 N 
ATOM     29  C   UNL     1      46.031   3.649  12.962  0.00  0.00    +0.000 A 
ATOM     30  O   UNL     1      46.962   3.239  13.648  0.00  0.00    +0.000 OA
ATOM     31  C   UNL     1      45.828   5.041  12.603  0.00  0.00    +0.000 A 
ATOM     32  H   UNL     1      45.179   1.819  12.758  0.00  0.00    +0.000 HD
ENDBRANCH  19  22
ENDBRANCH   1  20
TORSDOF 7
ENDMDL
MODEL 6
REMARK VINA RESULT:    -7.463      3.499      8.640
REMARK INTER + INTRA:         -11.360
REMARK INTER:                 -10.107
REMARK INTRA:                  -1.253
REMARK UNBOUND:                -0.843
REMARK  Name = 
REMARK  7 active torsions:
REMARK  status: ('A' for Active; 'I' for Inactive)
REMARK    1  A    between atoms: C_2  and  C_20
REMARK    2  A    between atoms: N_3  and  C_4
REMARK    3  A    between atoms: C_4  and  C_5
REMARK    4  A    between atoms: C_8  and  C_9
REMARK    5  A    between atoms: C_9  and  N_10
REMARK    6  A    between atoms: N_10  and  C_11
REMARK    7  A    between atoms: C_11  and  C_12
REMARK                            x       y       z     vdW  Elec       q    Type
REMARK                         _______ _______ _______ _____ _____    ______ ____
ROOT
ATOM      1  C   UNL     1      46.686   8.212  12.979  0.00  0.00    +0.000 C 
ENDROOT
BRANCH   1   2
ATOM      2  C   UNL     1      48.221   8.192  12.858  0.00  0.00    +0.000 C 
ATOM      3  C   UNL     1      48.917   9.272  13.703  0.00  0.00    +0.000 C 
ATOM      4  C   UNL     1      48.785   9.029  15.207  0.00  0.00    +0.000 C 
ATOM      5  C   UNL     1      49.284   7.634  15.621  0.00  0.00    +0.000 C 
ATOM      6  C   UNL     1      48.685   6.523  14.735  0.00  0.00    +0.000 C 
ATOM      7  C   UNL     1      48.784   6.817  13.239  0.00  0.00    +0.000 C 
BRANCH   5   8
ATOM      8  C   UNL     1      48.974   7.382  17.114  0.00  0.00    +0.000 C 
BRANCH   8   9
ATOM      9  N   UNL     1      47.905   6.397  17.252  0.00  0.00    +0.000 NA
ATOM     10  H   UNL     1      47.719   5.953  16.353  0.00  0.00    +0.000 HD
BRANCH   9  11
ATOM     11  C   UNL     1      48.203   5.373  18.246  0.00  0.00    +0.000 C 
BRANCH  11  12
ATOM     12  C   UNL     1      48.671   4.109  17.566  0.00  0.00    +0.000 A 
ATOM     13  C   UNL     1      49.978   3.642  17.725  0.00  0.00    +0.000 A 
ATOM     14  C   UNL     1      50.354   2.483  17.062  0.00  0.00    +0.000 A 
ATOM     15  N   UNL     1      49.532   1.768  16.264  0.00  0.00    +0.000 NA
ATOM     16  C   UNL     1      48.274   2.236  16.122  0.00  0.00    +0.000 A 
ATOM     17  C   UNL     1      47.802   3.381  16.744  0.00  0.00    +0.000 A 
ENDBRANCH  11  12
ENDBRANCH   9  11
ENDBRANCH   8   9
ENDBRANCH   5   8
ENDBRANCH   1   2
BRANCH   1  20
ATOM     18  O   UNL     1      44.633   7.716  11.064  0.00  0.00    +0.000 OA
ATOM     19  C   UNL     1      45.105   6.779  11.701  0.00  0.00    +0.000 C 
ATOM     20  N   UNL     1      46.085   6.945  12.645  0.00  0.00    +0.000 N 
ATOM     21  H   UNL     1      46.505   6.125  13.067  0.00  0.00    +0.000 HD
BRANCH  19  22
ATOM     22  C   UNL     1      44.623   5.401  11.521  0.00  0.00    +0.000 A 
ATOM     23  C   UNL     1      43.859   4.797  12.511  0.00  0.00    +0.000 A 
ATOM     24  S   UNL     1      43.414   3.192  12.144  0.00  0.00    +0.000 S 
ATOM     25  C   UNL     1      44.183   3.263  10.628  0.00  0.00    +0.000 A 
ATOM     26  N   UNL     1      44.152   2.203   9.777  0.00  0.00    +0.000 NA
ATOM     27  C   UNL     1      44.744   2.406   8.647  0.00  0.00    +0.000 A 
ATOM     28  N   UNL     1      45.375   3.570   8.296  0.00  0.00    +0.000 N 
ATOM     29  C   UNL     1      45.485   4.641   9.146  0.00  0.00    +0.000 A 
ATOM     30  O   UNL     1      46.162   5.617   8.841  0.00  0.00    +0.000 OA
ATOM     31  C   UNL     1      44.798   4.484  10.415  0.00  0.00    +0.000 A 
ATOM     32  H   UNL     1      45.847   3.658   7.408  0.00  0.00    +0.000 HD
ENDBRANCH  19  22
ENDBRANCH   1  20
TORSDOF 7
ENDMDL
MODEL 7
REMARK VINA RESULT:    -7.428      2.517      3.480
REMARK INTER + INTRA:         -11.310
REMARK INTER:                 -10.325
REMARK INTRA:                  -0.985
REMARK UNBOUND:                -0.843
REMARK  Name = 
REMARK  7 active torsions:
REMARK  status: ('A' for Active; 'I' for Inactive)
REMARK    1  A    between atoms: C_2  and  C_20
REMARK    2  A    between atoms: N_3  and  C_4
REMARK    3  A    between atoms: C_4  and  C_5
REMARK    4  A    between atoms: C_8  and  C_9
REMARK    5  A    between atoms: C_9  and  N_10
REMARK    6  A    between atoms: N_10  and  C_11
REMARK    7  A    between atoms: C_11  and  C_12
REMARK                            x       y       z     vdW  Elec       q    Type
REMARK                         _______ _______ _______ _____ _____    ______ ____
ROOT
ATOM      1  C   UNL     1      47.197   5.353  13.438  0.00  0.00    +0.000 C 
ENDROOT
BRANCH   1   2
ATOM      2  C   UNL     1      46.427   6.552  12.855  0.00  0.00    +0.000 C 
ATOM      3  C   UNL     1      46.561   6.683  11.328  0.00  0.00    +0.000 C 
ATOM      4  C   UNL     1      45.867   5.551  10.571  0.00  0.00    +0.000 C 
ATOM      5  C   UNL     1      44.386   5.408  10.959  0.00  0.00    +0.000 C 
ATOM      6  C   UNL     1      44.193   5.370  12.488  0.00  0.00    +0.000 C 
ATOM      7  C   UNL     1      44.941   6.480  13.223  0.00  0.00    +0.000 C 
BRANCH   5   8
ATOM      8  C   UNL     1      43.781   4.151  10.291  0.00  0.00    +0.000 C 
BRANCH   8   9
ATOM      9  N   UNL     1      44.741   3.052  10.317  0.00  0.00    +0.000 NA
ATOM     10  H   UNL     1      44.672   2.545  11.199  0.00  0.00    +0.000 HD
BRANCH   9  11
ATOM     11  C   UNL     1      44.564   2.120   9.209  0.00  0.00    +0.000 C 
BRANCH  11  12
ATOM     12  C   UNL     1      45.703   2.255   8.228  0.00  0.00    +0.000 A 
ATOM     13  C   UNL     1      45.952   3.461   7.566  0.00  0.00    +0.000 A 
ATOM     14  C   UNL     1      47.004   3.520   6.664  0.00  0.00    +0.000 A 
ATOM     15  N   UNL     1      47.813   2.477   6.379  0.00  0.00    +0.000 NA
ATOM     16  C   UNL     1      47.557   1.320   7.027  0.00  0.00    +0.000 A 
ATOM     17  C   UNL     1      46.533   1.163   7.948  0.00  0.00    +0.000 A 
ENDBRANCH  11  12
ENDBRANCH   9  11
ENDBRANCH   8   9
ENDBRANCH   5   8
ENDBRANCH   1   2
BRANCH   1  20
ATOM     18  O   UNL     1      49.419   6.619  14.700  0.00  0.00    +0.000 OA
ATOM     19  C   UNL     1      48.536   6.120  15.390  0.00  0.00    +0.000 C 
ATOM     20  N   UNL     1      47.445   5.485  14.851  0.00  0.00    +0.000 N 
ATOM     21  H   UNL     1      46.700   5.181  15.468  0.00  0.00    +0.000 HD
BRANCH  19  22
ATOM     22  C   UNL     1      48.601   6.135  16.859  0.00  0.00    +0.000 A 
ATOM     23  C   UNL     1      48.808   4.953  17.558  0.00  0.00    +0.000 A 
ATOM     24  S   UNL     1      48.827   5.156  19.252  0.00  0.00    +0.000 S 
ATOM     25  C   UNL     1      48.607   6.837  19.110  0.00  0.00    +0.000 A 
ATOM     26  N   UNL     1      48.563   7.632  20.213  0.00  0.00    +0.000 NA
ATOM     27  C   UNL     1      48.429   8.892  19.960  0.00  0.00    +0.000 A 
ATOM     28  N   UNL     1      48.323   9.427  18.704  0.00  0.00    +0.000 N 
ATOM     29  C   UNL     1      48.298   8.658  17.569  0.00  0.00    +0.000 A 
ATOM     30  O   UNL     1      48.079   9.164  16.473  0.00  0.00    +0.000 OA
ATOM     31  C   UNL     1      48.491   7.237  17.791  0.00  0.00    +0.000 A 
ATOM     32  H   UNL     1      48.188  10.419  18.571  0.00  0.00    +0.000 HD
ENDBRANCH  19  22
ENDBRANCH   1  20
TORSDOF 7
ENDMDL
MODEL 8
REMARK VINA RESULT:    -7.165      3.940      9.161
REMARK INTER + INTRA:         -10.940
REMARK INTER:                  -8.796
REMARK INTRA:                  -2.144
REMARK UNBOUND:                -0.843
REMARK  Name = 
REMARK  7 active torsions:
REMARK  status: ('A' for Active; 'I' for Inactive)
REMARK    1  A    between atoms: C_2  and  C_20
REMARK    2  A    between atoms: N_3  and  C_4
REMARK    3  A    between atoms: C_4  and  C_5
REMARK    4  A    between atoms: C_8  and  C_9
REMARK    5  A    between atoms: C_9  and  N_10
REMARK    6  A    between atoms: N_10  and  C_11
REMARK    7  A    between atoms: C_11  and  C_12
REMARK                            x       y       z     vdW  Elec       q    Type
REMARK                         _______ _______ _______ _____ _____    ______ ____
ROOT
ATOM      1  C   UNL     1      48.704   5.748  16.208  0.00  0.00    +0.000 C 
ENDROOT
BRANCH   1   2
ATOM      2  C   UNL     1      48.552   4.552  17.165  0.00  0.00    +0.000 C 
ATOM      3  C   UNL     1      49.665   4.468  18.224  0.00  0.00    +0.000 C 
ATOM      4  C   UNL     1      49.606   5.608  19.241  0.00  0.00    +0.000 C 
ATOM      5  C   UNL     1      48.233   5.711  19.927  0.00  0.00    +0.000 C 
ATOM      6  C   UNL     1      47.078   5.701  18.906  0.00  0.00    +0.000 C 
ATOM      7  C   UNL     1      47.191   4.584  17.871  0.00  0.00    +0.000 C 
BRANCH   5   8
ATOM      8  C   UNL     1      48.179   6.975  20.817  0.00  0.00    +0.000 C 
BRANCH   8   9
ATOM      9  N   UNL     1      47.566   8.082  20.089  0.00  0.00    +0.000 NA
ATOM     10  H   UNL     1      46.772   8.449  20.611  0.00  0.00    +0.000 HD
BRANCH   9  11
ATOM     11  C   UNL     1      48.504   9.163  19.810  0.00  0.00    +0.000 C 
BRANCH  11  12
ATOM     12  C   UNL     1      48.878   9.162  18.347  0.00  0.00    +0.000 A 
ATOM     13  C   UNL     1      50.206   9.011  17.938  0.00  0.00    +0.000 A 
ATOM     14  C   UNL     1      50.489   9.035  16.580  0.00  0.00    +0.000 A 
ATOM     15  N   UNL     1      49.557   9.198  15.617  0.00  0.00    +0.000 NA
ATOM     16  C   UNL     1      48.281   9.343  16.031  0.00  0.00    +0.000 A 
ATOM     17  C   UNL     1      47.897   9.329  17.362  0.00  0.00    +0.000 A 
ENDBRANCH  11  12
ENDBRANCH   9  11
ENDBRANCH   8   9
ENDBRANCH   5   8
ENDBRANCH   1   2
BRANCH   1  20
ATOM     18  O   UNL     1      48.973   6.540  13.482  0.00  0.00    +0.000 OA
ATOM     19  C   UNL     1      47.879   6.173  13.900  0.00  0.00    +0.000 C 
ATOM     20  N   UNL     1      47.675   5.790  15.201  0.00  0.00    +0.000 N 
ATOM     21  H   UNL     1      46.775   5.402  15.464  0.00  0.00    +0.000 HD
BRANCH  19  22
ATOM     22  C   UNL     1      46.689   6.151  13.037  0.00  0.00    +0.000 A 
ATOM     23  C   UNL     1      46.236   7.324  12.448  0.00  0.00    +0.000 A 
ATOM     24  S   UNL     1      44.830   7.115  11.505  0.00  0.00    +0.000 S 
ATOM     25  C   UNL     1      44.805   5.441  11.808  0.00  0.00    +0.000 A 
ATOM     26  N   UNL     1      43.850   4.644  11.258  0.00  0.00    +0.000 NA
ATOM     27  C   UNL     1      43.972   3.390  11.542  0.00  0.00    +0.000 A 
ATOM     28  N   UNL     1      44.954   2.862  12.336  0.00  0.00    +0.000 N 
ATOM     29  C   UNL     1      45.898   3.635  12.963  0.00  0.00    +0.000 A 
ATOM     30  O   UNL     1      46.685   3.139  13.762  0.00  0.00    +0.000 OA
ATOM     31  C   UNL     1      45.837   5.050  12.642  0.00  0.00    +0.000 A 
ATOM     32  H   UNL     1      44.978   1.875  12.547  0.00  0.00    +0.000 HD
ENDBRANCH  19  22
ENDBRANCH   1  20
TORSDOF 7
ENDMDL
MODEL 9
REMARK VINA RESULT:    -7.158      3.750      8.663
REMARK INTER + INTRA:         -10.930
REMARK INTER:                  -9.575
REMARK INTRA:                  -1.356
REMARK UNBOUND:                -0.843
REMARK  Name = 
REMARK  7 active torsions:
REMARK  status: ('A' for Active; 'I' for Inactive)
REMARK    1  A    between atoms: C_2  and  C_20
REMARK    2  A    between atoms: N_3  and  C_4
REMARK    3  A    between atoms: C_4  and  C_5
REMARK    4  A    between atoms: C_8  and  C_9
REMARK    5  A    between atoms: C_9  and  N_10
REMARK    6  A    between atoms: N_10  and  C_11
REMARK    7  A    between atoms: C_11  and  C_12
REMARK                            x       y       z     vdW  Elec       q    Type
REMARK                         _______ _______ _______ _____ _____    ______ ____
ROOT
ATOM      1  C   UNL     1      46.852   8.330  13.449  0.00  0.00    +0.000 C 
ENDROOT
BRANCH   1   2
ATOM      2  C   UNL     1      48.381   8.482  13.548  0.00  0.00    +0.000 C 
ATOM      3  C   UNL     1      48.827   9.563  14.547  0.00  0.00    +0.000 C 
ATOM      4  C   UNL     1      48.522   9.194  15.999  0.00  0.00    +0.000 C 
ATOM      5  C   UNL     1      49.117   7.832  16.395  0.00  0.00    +0.000 C 
ATOM      6  C   UNL     1      48.776   6.735  15.368  0.00  0.00    +0.000 C 
ATOM      7  C   UNL     1      49.041   7.150  13.922  0.00  0.00    +0.000 C 
BRANCH   5   8
ATOM      8  C   UNL     1      48.639   7.437  17.811  0.00  0.00    +0.000 C 
BRANCH   8   9
ATOM      9  N   UNL     1      49.435   6.325  18.323  0.00  0.00    +0.000 NA
ATOM     10  H   UNL     1      49.996   6.631  19.118  0.00  0.00    +0.000 HD
BRANCH   9  11
ATOM     11  C   UNL     1      48.621   5.181  18.717  0.00  0.00    +0.000 C 
BRANCH  11  12
ATOM     12  C   UNL     1      48.940   3.991  17.844  0.00  0.00    +0.000 A 
ATOM     13  C   UNL     1      47.979   3.437  16.994  0.00  0.00    +0.000 A 
ATOM     14  C   UNL     1      48.326   2.334  16.228  0.00  0.00    +0.000 A 
ATOM     15  N   UNL     1      49.545   1.753  16.250  0.00  0.00    +0.000 NA
ATOM     16  C   UNL     1      50.459   2.301  17.078  0.00  0.00    +0.000 A 
ATOM     17  C   UNL     1      50.210   3.404  17.879  0.00  0.00    +0.000 A 
ENDBRANCH  11  12
ENDBRANCH   9  11
ENDBRANCH   8   9
ENDBRANCH   5   8
ENDBRANCH   1   2
BRANCH   1  20
ATOM     18  O   UNL     1      44.934   8.281  11.340  0.00  0.00    +0.000 OA
ATOM     19  C   UNL     1      45.529   7.251  11.640  0.00  0.00    +0.000 C 
ATOM     20  N   UNL     1      46.456   7.198  12.651  0.00  0.00    +0.000 N 
ATOM     21  H   UNL     1      46.986   6.345  12.787  0.00  0.00    +0.000 HD
BRANCH  19  22
ATOM     22  C   UNL     1      45.265   5.977  10.954  0.00  0.00    +0.000 A 
ATOM     23  C   UNL     1      45.754   5.763   9.673  0.00  0.00    +0.000 A 
ATOM     24  S   UNL     1      45.326   4.243   9.024  0.00  0.00    +0.000 S 
ATOM     25  C   UNL     1      44.514   3.798  10.452  0.00  0.00    +0.000 A 
ATOM     26  N   UNL     1      43.931   2.576  10.572  0.00  0.00    +0.000 NA
ATOM     27  C   UNL     1      43.382   2.356  11.721  0.00  0.00    +0.000 A 
ATOM     28  N   UNL     1      43.352   3.253  12.755  0.00  0.00    +0.000 N 
ATOM     29  C   UNL     1      43.870   4.519  12.655  0.00  0.00    +0.000 A 
ATOM     30  O   UNL     1      43.716   5.334  13.559  0.00  0.00    +0.000 OA
ATOM     31  C   UNL     1      44.542   4.805  11.400  0.00  0.00    +0.000 A 
ATOM     32  H   UNL     1      42.879   3.035  13.620  0.00  0.00    +0.000 HD
ENDBRANCH  19  22
ENDBRANCH   1  20
TORSDOF 7
ENDMDL
