MODEL 1
REMARK VINA RESULT:    -8.615      0.000      0.000
REMARK INTER + INTRA:         -12.870
REMARK INTER:                 -12.141
REMARK INTRA:                  -0.730
REMARK UNBOUND:                -0.730
REMARK  Name = 
REMARK  8 active torsions:
REMARK  status: ('A' for Active; 'I' for Inactive)
REMARK    1  A    between atoms: C_1  and  C_2
REMARK    2  A    between atoms: C_2  and  N_3
REMARK    3  A    between atoms: C_2  and  C_25
REMARK    4  A    between atoms: N_3  and  C_4
REMARK    5  A    between atoms: C_4  and  C_5
REMARK    6  A    between atoms: C_8  and  C_9
REMARK    7  A    between atoms: C_9  and  N_10
REMARK    8  A    between atoms: C_11  and  C_13
REMARK                            x       y       z     vdW  Elec       q    Type
REMARK                         _______ _______ _______ _____ _____    ______ ____
ROOT
ATOM      1  C   UNL     1      45.416   4.383  12.358  0.00  0.00    +0.000 A 
ATOM      2  N   UNL     1      45.755   5.497  11.675  0.00  0.00    +0.000 NA
ATOM      3  C   UNL     1      46.697   6.283  12.226  0.00  0.00    +0.000 A 
ATOM      4  C   UNL     1      47.314   6.015  13.428  0.00  0.00    +0.000 A 
ATOM      5  C   UNL     1      46.867   4.876  14.066  0.00  0.00    +0.000 A 
ATOM      6  N   UNL     1      45.935   4.042  13.556  0.00  0.00    +0.000 NA
ENDROOT
BRANCH   1   7
ATOM      7  C   UNL     1      44.378   3.457  11.733  0.00  0.00    +0.000 C 
BRANCH   7   8
ATOM      8  N   UNL     1      44.950   2.542  10.731  0.00  0.00    +0.000 NA
ATOM      9  H   UNL     1      44.672   1.591  10.975  0.00  0.00    +0.000 HD
BRANCH   8  11
ATOM     10  C   UNL     1      44.136   4.276   9.110  0.00  0.00    +0.000 C 
ATOM     11  C   UNL     1      44.510   2.807   9.351  0.00  0.00    +0.000 C 
BRANCH  11  12
ATOM     12  C   UNL     1      45.604   2.389   8.359  0.00  0.00    +0.000 A 
ATOM     13  C   UNL     1      46.147   3.324   7.474  0.00  0.00    +0.000 A 
ATOM     14  C   UNL     1      47.149   2.922   6.597  0.00  0.00    +0.000 A 
ATOM     15  C   UNL     1      47.583   1.605   6.624  0.00  0.00    +0.000 A 
ATOM     16  C   UNL     1      47.003   0.746   7.539  0.00  0.00    +0.000 A 
ATOM     17  N   UNL     1      46.024   1.105   8.402  0.00  0.00    +0.000 NA
ENDBRANCH  11  12
ENDBRANCH   8  11
ENDBRANCH   7   8
ENDBRANCH   1   7
BRANCH   4  18
ATOM     18  C   UNL     1      48.371   6.904  13.987  0.00  0.00    +0.000 C 
BRANCH  18  19
ATOM     19  N   UNL     1      48.258   7.060  15.414  0.00  0.00    +0.000 N 
ATOM     20  C   UNL     1      49.320   6.775  16.236  0.00  0.00    +0.000 C 
ATOM     21  O   UNL     1      50.383   6.358  15.783  0.00  0.00    +0.000 OA
ATOM     22  H   UNL     1      47.488   7.621  15.772  0.00  0.00    +0.000 HD
BRANCH  20  23
ATOM     23  C   UNL     1      49.108   6.921  17.683  0.00  0.00    +0.000 A 
ATOM     24  C   UNL     1      49.215   8.173  18.276  0.00  0.00    +0.000 A 
ATOM     25  S   UNL     1      49.191   8.122  19.981  0.00  0.00    +0.000 S 
ATOM     26  C   UNL     1      48.986   6.434  19.980  0.00  0.00    +0.000 A 
ATOM     27  N   UNL     1      48.980   5.721  21.138  0.00  0.00    +0.000 NA
ATOM     28  C   UNL     1      48.776   4.454  20.983  0.00  0.00    +0.000 A 
ATOM     29  N   UNL     1      48.538   3.843  19.780  0.00  0.00    +0.000 N 
ATOM     30  C   UNL     1      48.497   4.531  18.592  0.00  0.00    +0.000 A 
ATOM     31  O   UNL     1      48.167   3.983  17.543  0.00  0.00    +0.000 OA
ATOM     32  C   UNL     1      48.831   5.935  18.699  0.00  0.00    +0.000 A 
ATOM     33  H   UNL     1      48.313   2.859  19.736  0.00  0.00    +0.000 HD
ENDBRANCH  20  23
ENDBRANCH  18  19
ENDBRANCH   4  18
TORSDOF 7
ENDMDL
MODEL 2
REMARK VINA RESULT:    -8.585      2.080      2.356
REMARK INTER + INTRA:         -12.828
REMARK INTER:                 -11.892
REMARK INTRA:                  -0.936
REMARK UNBOUND:                -0.730
REMARK  Name = 
REMARK  8 active torsions:
REMARK  status: ('A' for Active; 'I' for Inactive)
REMARK    1  A    between atoms: C_1  and  C_2
REMARK    2  A    between atoms: C_2  and  N_3
REMARK    3  A    between atoms: C_2  and  C_25
REMARK    4  A    between atoms: N_3  and  C_4
REMARK    5  A    between atoms: C_4  and  C_5
REMARK    6  A    between atoms: C_8  and  C_9
REMARK    7  A    between atoms: C_9  and  N_10
REMARK    8  A    between atoms: C_11  and  C_13
REMARK                            x       y       z     vdW  Elec       q    Type
REMARK                         _______ _______ _______ _____ _____    ______ ____
ROOT
ATOM      1  C   UNL     1      45.342   4.235  12.613  0.00  0.00    +0.000 A 
ATOM      2  N   UNL     1      45.451   5.533  12.262  0.00  0.00    +0.000 NA
ATOM      3  C   UNL     1      46.336   6.275  12.952  0.00  0.00    +0.000 A 
ATOM      4  C   UNL     1      47.114   5.785  13.979  0.00  0.00    +0.000 A 
ATOM      5  C   UNL     1      46.896   4.457  14.286  0.00  0.00    +0.000 A 
ATOM      6  N   UNL     1      46.032   3.661  13.620  0.00  0.00    +0.000 NA
ENDROOT
BRANCH   1   7
ATOM      7  C   UNL     1      44.372   3.366  11.818  0.00  0.00    +0.000 C 
BRANCH   7   8
ATOM      8  N   UNL     1      45.033   2.582  10.762  0.00  0.00    +0.000 NA
ATOM      9  H   UNL     1      44.875   1.592  10.955  0.00  0.00    +0.000 HD
BRANCH   8  11
ATOM     10  C   UNL     1      44.166   4.340   9.195  0.00  0.00    +0.000 C 
ATOM     11  C   UNL     1      44.542   2.867   9.403  0.00  0.00    +0.000 C 
BRANCH  11  12
ATOM     12  C   UNL     1      45.595   2.457   8.364  0.00  0.00    +0.000 A 
ATOM     13  C   UNL     1      46.061   3.385   7.430  0.00  0.00    +0.000 A 
ATOM     14  C   UNL     1      47.028   2.990   6.510  0.00  0.00    +0.000 A 
ATOM     15  C   UNL     1      47.504   1.688   6.547  0.00  0.00    +0.000 A 
ATOM     16  C   UNL     1      47.000   0.836   7.511  0.00  0.00    +0.000 A 
ATOM     17  N   UNL     1      46.056   1.187   8.416  0.00  0.00    +0.000 NA
ENDBRANCH  11  12
ENDBRANCH   8  11
ENDBRANCH   7   8
ENDBRANCH   1   7
BRANCH   4  18
ATOM     18  C   UNL     1      48.100   6.639  14.698  0.00  0.00    +0.000 C 
BRANCH  18  19
ATOM     19  N   UNL     1      49.051   5.864  15.451  0.00  0.00    +0.000 N 
ATOM     20  C   UNL     1      49.227   6.084  16.794  0.00  0.00    +0.000 C 
ATOM     21  O   UNL     1      48.600   6.961  17.384  0.00  0.00    +0.000 OA
ATOM     22  H   UNL     1      49.389   4.996  15.040  0.00  0.00    +0.000 HD
BRANCH  20  23
ATOM     23  C   UNL     1      50.247   5.278  17.479  0.00  0.00    +0.000 A 
ATOM     24  C   UNL     1      51.210   5.901  18.265  0.00  0.00    +0.000 A 
ATOM     25  S   UNL     1      52.455   4.851  18.774  0.00  0.00    +0.000 S 
ATOM     26  C   UNL     1      51.722   3.524  18.003  0.00  0.00    +0.000 A 
ATOM     27  N   UNL     1      52.326   2.306  17.968  0.00  0.00    +0.000 NA
ATOM     28  C   UNL     1      51.633   1.385  17.382  0.00  0.00    +0.000 A 
ATOM     29  N   UNL     1      50.376   1.563  16.865  0.00  0.00    +0.000 N 
ATOM     30  C   UNL     1      49.716   2.766  16.916  0.00  0.00    +0.000 A 
ATOM     31  O   UNL     1      48.548   2.873  16.551  0.00  0.00    +0.000 OA
ATOM     32  C   UNL     1      50.494   3.857  17.461  0.00  0.00    +0.000 A 
ATOM     33  H   UNL     1      49.859   0.783  16.485  0.00  0.00    +0.000 HD
ENDBRANCH  20  23
ENDBRANCH  18  19
ENDBRANCH   4  18
TORSDOF 7
ENDMDL
MODEL 3
REMARK VINA RESULT:    -7.971      1.621      2.486
REMARK INTER + INTRA:         -11.962
REMARK INTER:                 -11.023
REMARK INTRA:                  -0.939
REMARK UNBOUND:                -0.730
REMARK  Name = 
REMARK  8 active torsions:
REMARK  status: ('A' for Active; 'I' for Inactive)
REMARK    1  A    between atoms: C_1  and  C_2
REMARK    2  A    between atoms: C_2  and  N_3
REMARK    3  A    between atoms: C_2  and  C_25
REMARK    4  A    between atoms: N_3  and  C_4
REMARK    5  A    between atoms: C_4  and  C_5
REMARK    6  A    between atoms: C_8  and  C_9
REMARK    7  A    between atoms: C_9  and  N_10
REMARK    8  A    between atoms: C_11  and  C_13
REMARK                            x       y       z     vdW  Elec       q    Type
REMARK                         _______ _______ _______ _____ _____    ______ ____
ROOT
ATOM      1  C   UNL     1      45.583   4.412  12.489  0.00  0.00    +0.000 A 
ATOM      2  N   UNL     1      46.067   4.010  13.683  0.00  0.00    +0.000 NA
ATOM      3  C   UNL     1      46.994   4.797  14.257  0.00  0.00    +0.000 A 
ATOM      4  C   UNL     1      47.466   5.964  13.696  0.00  0.00    +0.000 A 
ATOM      5  C   UNL     1      46.939   6.264  12.457  0.00  0.00    +0.000 A 
ATOM      6  N   UNL     1      45.997   5.519  11.837  0.00  0.00    +0.000 NA
ENDROOT
BRANCH   1   7
ATOM      7  C   UNL     1      44.503   3.555  11.837  0.00  0.00    +0.000 C 
BRANCH   7   8
ATOM      8  N   UNL     1      45.030   2.658  10.795  0.00  0.00    +0.000 NA
ATOM      9  H   UNL     1      44.780   1.700  11.044  0.00  0.00    +0.000 HD
BRANCH   8  11
ATOM     10  C   UNL     1      43.940   4.348   9.294  0.00  0.00    +0.000 C 
ATOM     11  C   UNL     1      44.510   2.930   9.445  0.00  0.00    +0.000 C 
BRANCH  11  12
ATOM     12  C   UNL     1      45.611   2.709   8.399  0.00  0.00    +0.000 A 
ATOM     13  C   UNL     1      46.188   1.447   8.241  0.00  0.00    +0.000 A 
ATOM     14  C   UNL     1      47.173   1.270   7.274  0.00  0.00    +0.000 A 
ATOM     15  C   UNL     1      47.554   2.351   6.493  0.00  0.00    +0.000 A 
ATOM     16  C   UNL     1      46.925   3.564   6.704  0.00  0.00    +0.000 A 
ATOM     17  N   UNL     1      45.968   3.769   7.639  0.00  0.00    +0.000 NA
ENDBRANCH  11  12
ENDBRANCH   8  11
ENDBRANCH   7   8
ENDBRANCH   1   7
BRANCH   4  18
ATOM     18  C   UNL     1      48.476   6.817  14.383  0.00  0.00    +0.000 C 
BRANCH  18  19
ATOM     19  N   UNL     1      48.269   6.872  15.807  0.00  0.00    +0.000 N 
ATOM     20  C   UNL     1      49.195   6.340  16.670  0.00  0.00    +0.000 C 
ATOM     21  O   UNL     1      50.208   5.783  16.254  0.00  0.00    +0.000 OA
ATOM     22  H   UNL     1      47.577   7.527  16.162  0.00  0.00    +0.000 HD
BRANCH  20  23
ATOM     23  C   UNL     1      48.887   6.401  18.106  0.00  0.00    +0.000 A 
ATOM     24  C   UNL     1      48.955   5.248  18.878  0.00  0.00    +0.000 A 
ATOM     25  S   UNL     1      48.327   5.446  20.452  0.00  0.00    +0.000 S 
ATOM     26  C   UNL     1      47.990   7.089  20.167  0.00  0.00    +0.000 A 
ATOM     27  N   UNL     1      47.345   7.849  21.093  0.00  0.00    +0.000 NA
ATOM     28  C   UNL     1      47.194   9.087  20.753  0.00  0.00    +0.000 A 
ATOM     29  N   UNL     1      47.663   9.640  19.590  0.00  0.00    +0.000 N 
ATOM     30  C   UNL     1      48.352   8.917  18.648  0.00  0.00    +0.000 A 
ATOM     31  O   UNL     1      48.863   9.458  17.671  0.00  0.00    +0.000 OA
ATOM     32  C   UNL     1      48.450   7.501  18.930  0.00  0.00    +0.000 A 
ATOM     33  H   UNL     1      47.575  10.632  19.418  0.00  0.00    +0.000 HD
ENDBRANCH  20  23
ENDBRANCH  18  19
ENDBRANCH   4  18
TORSDOF 7
ENDMDL
MODEL 4
REMARK VINA RESULT:    -7.899      3.190      3.926
REMARK INTER + INTRA:         -11.861
REMARK INTER:                 -10.729
REMARK INTRA:                  -1.133
REMARK UNBOUND:                -0.730
REMARK  Name = 
REMARK  8 active torsions:
REMARK  status: ('A' for Active; 'I' for Inactive)
REMARK    1  A    between atoms: C_1  and  C_2
REMARK    2  A    between atoms: C_2  and  N_3
REMARK    3  A    between atoms: C_2  and  C_25
REMARK    4  A    between atoms: N_3  and  C_4
REMARK    5  A    between atoms: C_4  and  C_5
REMARK    6  A    between atoms: C_8  and  C_9
REMARK    7  A    between atoms: C_9  and  N_10
REMARK    8  A    between atoms: C_11  and  C_13
REMARK                            x       y       z     vdW  Elec       q    Type
REMARK                         _______ _______ _______ _____ _____    ______ ____
ROOT
ATOM      1  C   UNL     1      46.825   4.568  14.174  0.00  0.00    +0.000 A 
ATOM      2  N   UNL     1      46.828   4.016  15.405  0.00  0.00    +0.000 NA
ATOM      3  C   UNL     1      47.593   4.613  16.335  0.00  0.00    +0.000 A 
ATOM      4  C   UNL     1      48.361   5.732  16.096  0.00  0.00    +0.000 A 
ATOM      5  C   UNL     1      48.320   6.194  14.796  0.00  0.00    +0.000 A 
ATOM      6  N   UNL     1      47.561   5.644  13.824  0.00  0.00    +0.000 NA
ENDROOT
BRANCH   1   7
ATOM      7  C   UNL     1      45.934   3.930  13.113  0.00  0.00    +0.000 C 
BRANCH   7   8
ATOM      8  N   UNL     1      45.006   4.887  12.488  0.00  0.00    +0.000 NA
ATOM      9  H   UNL     1      45.546   5.497  11.872  0.00  0.00    +0.000 HD
BRANCH   8  11
ATOM     10  C   UNL     1      42.748   5.194  11.436  0.00  0.00    +0.000 C 
ATOM     11  C   UNL     1      43.940   4.260  11.689  0.00  0.00    +0.000 C 
BRANCH  11  12
ATOM     12  C   UNL     1      44.503   3.776  10.345  0.00  0.00    +0.000 A 
ATOM     13  C   UNL     1      45.163   4.666   9.496  0.00  0.00    +0.000 A 
ATOM     14  C   UNL     1      45.677   4.196   8.292  0.00  0.00    +0.000 A 
ATOM     15  C   UNL     1      45.522   2.857   7.967  0.00  0.00    +0.000 A 
ATOM     16  C   UNL     1      44.867   2.039   8.868  0.00  0.00    +0.000 A 
ATOM     17  N   UNL     1      44.351   2.466  10.045  0.00  0.00    +0.000 NA
ENDBRANCH  11  12
ENDBRANCH   8  11
ENDBRANCH   7   8
ENDBRANCH   1   7
BRANCH   4  18
ATOM     18  C   UNL     1      49.174   6.374  17.167  0.00  0.00    +0.000 C 
BRANCH  18  19
ATOM     19  N   UNL     1      50.059   5.442  17.816  0.00  0.00    +0.000 N 
ATOM     20  C   UNL     1      51.385   5.376  17.465  0.00  0.00    +0.000 C 
ATOM     21  O   UNL     1      51.846   6.089  16.576  0.00  0.00    +0.000 OA
ATOM     22  H   UNL     1      49.756   5.031  18.695  0.00  0.00    +0.000 HD
BRANCH  20  23
ATOM     23  C   UNL     1      52.211   4.369  18.145  0.00  0.00    +0.000 A 
ATOM     24  C   UNL     1      53.199   4.770  19.036  0.00  0.00    +0.000 A 
ATOM     25  S   UNL     1      54.220   3.499  19.536  0.00  0.00    +0.000 S 
ATOM     26  C   UNL     1      53.345   2.365  18.619  0.00  0.00    +0.000 A 
ATOM     27  N   UNL     1      53.749   1.070  18.524  0.00  0.00    +0.000 NA
ATOM     28  C   UNL     1      52.963   0.317  17.826  0.00  0.00    +0.000 A 
ATOM     29  N   UNL     1      51.793   0.734  17.248  0.00  0.00    +0.000 N 
ATOM     30  C   UNL     1      51.330   2.022  17.352  0.00  0.00    +0.000 A 
ATOM     31  O   UNL     1      50.224   2.344  16.926  0.00  0.00    +0.000 OA
ATOM     32  C   UNL     1      52.230   2.931  18.030  0.00  0.00    +0.000 A 
ATOM     33  H   UNL     1      51.188   0.076  16.776  0.00  0.00    +0.000 HD
ENDBRANCH  20  23
ENDBRANCH  18  19
ENDBRANCH   4  18
TORSDOF 7
ENDMDL
MODEL 5
REMARK VINA RESULT:    -7.590      3.293      9.072
REMARK INTER + INTRA:         -11.425
REMARK INTER:                 -10.066
REMARK INTRA:                  -1.360
REMARK UNBOUND:                -0.730
REMARK  Name = 
REMARK  8 active torsions:
REMARK  status: ('A' for Active; 'I' for Inactive)
REMARK    1  A    between atoms: C_1  and  C_2
REMARK    2  A    between atoms: C_2  and  N_3
REMARK    3  A    between atoms: C_2  and  C_25
REMARK    4  A    between atoms: N_3  and  C_4
REMARK    5  A    between atoms: C_4  and  C_5
REMARK    6  A    between atoms: C_8  and  C_9
REMARK    7  A    between atoms: C_9  and  N_10
REMARK    8  A    between atoms: C_11  and  C_13
REMARK                            x       y       z     vdW  Elec       q    Type
REMARK                         _______ _______ _______ _____ _____    ______ ____
ROOT
ATOM      1  C   UNL     1      48.772   7.860  15.980  0.00  0.00    +0.000 A 
ATOM      2  N   UNL     1      48.122   8.910  15.435  0.00  0.00    +0.000 NA
ATOM      3  C   UNL     1      47.813   8.819  14.129  0.00  0.00    +0.000 A 
ATOM      4  C   UNL     1      48.126   7.735  13.339  0.00  0.00    +0.000 A 
ATOM      5  C   UNL     1      48.826   6.734  13.982  0.00  0.00    +0.000 A 
ATOM      6  N   UNL     1      49.152   6.764  15.292  0.00  0.00    +0.000 NA
ENDROOT
BRANCH   1   7
ATOM      7  C   UNL     1      49.098   7.925  17.469  0.00  0.00    +0.000 C 
BRANCH   7   8
ATOM      8  N   UNL     1      47.989   7.467  18.322  0.00  0.00    +0.000 NA
ATOM      9  H   UNL     1      47.223   7.171  17.715  0.00  0.00    +0.000 HD
BRANCH   8  11
ATOM     10  C   UNL     1      47.363   6.184  20.387  0.00  0.00    +0.000 C 
ATOM     11  C   UNL     1      48.333   6.341  19.206  0.00  0.00    +0.000 C 
BRANCH  11  12
ATOM     12  C   UNL     1      48.375   5.033  18.404  0.00  0.00    +0.000 A 
ATOM     13  C   UNL     1      49.521   4.235  18.418  0.00  0.00    +0.000 A 
ATOM     14  C   UNL     1      49.527   3.047  17.695  0.00  0.00    +0.000 A 
ATOM     15  C   UNL     1      48.394   2.685  16.981  0.00  0.00    +0.000 A 
ATOM     16  C   UNL     1      47.297   3.525  17.028  0.00  0.00    +0.000 A 
ATOM     17  N   UNL     1      47.262   4.689  17.718  0.00  0.00    +0.000 NA
ENDBRANCH  11  12
ENDBRANCH   8  11
ENDBRANCH   7   8
ENDBRANCH   1   7
BRANCH   4  18
ATOM     18  C   UNL     1      47.740   7.669  11.901  0.00  0.00    +0.000 C 
BRANCH  18  19
ATOM     19  N   UNL     1      46.953   6.502  11.598  0.00  0.00    +0.000 N 
ATOM     20  C   UNL     1      45.582   6.567  11.584  0.00  0.00    +0.000 C 
ATOM     21  O   UNL     1      44.990   7.610  11.852  0.00  0.00    +0.000 OA
ATOM     22  H   UNL     1      47.419   5.718  11.147  0.00  0.00    +0.000 HD
BRANCH  20  23
ATOM     23  C   UNL     1      44.853   5.321  11.306  0.00  0.00    +0.000 A 
ATOM     24  C   UNL     1      43.913   4.851  12.215  0.00  0.00    +0.000 A 
ATOM     25  S   UNL     1      43.353   3.278  11.862  0.00  0.00    +0.000 S 
ATOM     26  C   UNL     1      44.311   3.196  10.458  0.00  0.00    +0.000 A 
ATOM     27  N   UNL     1      44.378   2.060   9.714  0.00  0.00    +0.000 NA
ATOM     28  C   UNL     1      45.113   2.160   8.655  0.00  0.00    +0.000 A 
ATOM     29  N   UNL     1      45.755   3.303   8.255  0.00  0.00    +0.000 N 
ATOM     30  C   UNL     1      45.681   4.481   8.956  0.00  0.00    +0.000 A 
ATOM     31  O   UNL     1      46.167   5.520   8.518  0.00  0.00    +0.000 OA
ATOM     32  C   UNL     1      44.961   4.391  10.208  0.00  0.00    +0.000 A 
ATOM     33  H   UNL     1      46.255   3.333   7.378  0.00  0.00    +0.000 HD
ENDBRANCH  20  23
ENDBRANCH  18  19
ENDBRANCH   4  18
TORSDOF 7
ENDMDL
MODEL 6
REMARK VINA RESULT:    -7.228      3.537      8.698
REMARK INTER + INTRA:         -10.915
REMARK INTER:                  -9.659
REMARK INTRA:                  -1.255
REMARK UNBOUND:                -0.730
REMARK  Name = 
REMARK  8 active torsions:
REMARK  status: ('A' for Active; 'I' for Inactive)
REMARK    1  A    between atoms: C_1  and  C_2
REMARK    2  A    between atoms: C_2  and  N_3
REMARK    3  A    between atoms: C_2  and  C_25
REMARK    4  A    between atoms: N_3  and  C_4
REMARK    5  A    between atoms: C_4  and  C_5
REMARK    6  A    between atoms: C_8  and  C_9
REMARK    7  A    between atoms: C_9  and  N_10
REMARK    8  A    between atoms: C_11  and  C_13
REMARK                            x       y       z     vdW  Elec       q    Type
REMARK                         _______ _______ _______ _____ _____    ______ ____
ROOT
ATOM      1  C   UNL     1      50.083   7.213  15.753  0.00  0.00    +0.000 A 
ATOM      2  N   UNL     1      50.638   8.108  14.910  0.00  0.00    +0.000 NA
ATOM      3  C   UNL     1      49.968   8.367  13.773  0.00  0.00    +0.000 A 
ATOM      4  C   UNL     1      48.772   7.771  13.433  0.00  0.00    +0.000 A 
ATOM      5  C   UNL     1      48.311   6.841  14.343  0.00  0.00    +0.000 A 
ATOM      6  N   UNL     1      48.934   6.550  15.505  0.00  0.00    +0.000 NA
ENDROOT
BRANCH   1   7
ATOM      7  C   UNL     1      50.807   6.933  17.066  0.00  0.00    +0.000 C 
BRANCH   7   8
ATOM      8  N   UNL     1      49.891   6.603  18.170  0.00  0.00    +0.000 NA
ATOM      9  H   UNL     1      48.955   6.480  17.780  0.00  0.00    +0.000 HD
BRANCH   8  11
ATOM     10  C   UNL     1      49.624   5.311  20.305  0.00  0.00    +0.000 C 
ATOM     11  C   UNL     1      50.245   5.376  18.902  0.00  0.00    +0.000 C 
BRANCH  11  12
ATOM     12  C   UNL     1      49.820   4.139  18.098  0.00  0.00    +0.000 A 
ATOM     13  C   UNL     1      48.482   3.954  17.747  0.00  0.00    +0.000 A 
ATOM     14  C   UNL     1      48.127   2.832  17.003  0.00  0.00    +0.000 A 
ATOM     15  C   UNL     1      49.112   1.930  16.630  0.00  0.00    +0.000 A 
ATOM     16  C   UNL     1      50.416   2.193  17.007  0.00  0.00    +0.000 A 
ATOM     17  N   UNL     1      50.792   3.272  17.734  0.00  0.00    +0.000 NA
ENDBRANCH  11  12
ENDBRANCH   8  11
ENDBRANCH   7   8
ENDBRANCH   1   7
BRANCH   4  18
ATOM     18  C   UNL     1      48.053   8.109  12.173  0.00  0.00    +0.000 C 
BRANCH  18  19
ATOM     19  N   UNL     1      47.492   6.946  11.534  0.00  0.00    +0.000 N 
ATOM     20  C   UNL     1      46.132   6.808  11.403  0.00  0.00    +0.000 C 
ATOM     21  O   UNL     1      45.359   7.655  11.846  0.00  0.00    +0.000 OA
ATOM     22  H   UNL     1      48.107   6.373  10.963  0.00  0.00    +0.000 HD
BRANCH  20  23
ATOM     23  C   UNL     1      45.640   5.573  10.777  0.00  0.00    +0.000 A 
ATOM     24  C   UNL     1      45.737   5.408   9.401  0.00  0.00    +0.000 A 
ATOM     25  S   UNL     1      44.896   4.042   8.819  0.00  0.00    +0.000 S 
ATOM     26  C   UNL     1      44.417   3.603  10.390  0.00  0.00    +0.000 A 
ATOM     27  N   UNL     1      43.579   2.553  10.606  0.00  0.00    +0.000 NA
ATOM     28  C   UNL     1      43.335   2.314  11.853  0.00  0.00    +0.000 A 
ATOM     29  N   UNL     1      43.883   3.005  12.902  0.00  0.00    +0.000 N 
ATOM     30  C   UNL     1      44.763   4.045  12.728  0.00  0.00    +0.000 A 
ATOM     31  O   UNL     1      45.330   4.573  13.682  0.00  0.00    +0.000 OA
ATOM     32  C   UNL     1      44.981   4.424  11.349  0.00  0.00    +0.000 A 
ATOM     33  H   UNL     1      43.708   2.720  13.855  0.00  0.00    +0.000 HD
ENDBRANCH  20  23
ENDBRANCH  18  19
ENDBRANCH   4  18
TORSDOF 7
ENDMDL
MODEL 7
REMARK VINA RESULT:    -7.136      3.704      5.364
REMARK INTER + INTRA:         -10.786
REMARK INTER:                  -9.926
REMARK INTRA:                  -0.860
REMARK UNBOUND:                -0.730
REMARK  Name = 
REMARK  8 active torsions:
REMARK  status: ('A' for Active; 'I' for Inactive)
REMARK    1  A    between atoms: C_1  and  C_2
REMARK    2  A    between atoms: C_2  and  N_3
REMARK    3  A    between atoms: C_2  and  C_25
REMARK    4  A    between atoms: N_3  and  C_4
REMARK    5  A    between atoms: C_4  and  C_5
REMARK    6  A    between atoms: C_8  and  C_9
REMARK    7  A    between atoms: C_9  and  N_10
REMARK    8  A    between atoms: C_11  and  C_13
REMARK                            x       y       z     vdW  Elec       q    Type
REMARK                         _______ _______ _______ _____ _____    ______ ____
ROOT
ATOM      1  C   UNL     1      45.626   4.460  12.752  0.00  0.00    +0.000 A 
ATOM      2  N   UNL     1      46.199   3.983  13.876  0.00  0.00    +0.000 NA
ATOM      3  C   UNL     1      47.130   4.759  14.458  0.00  0.00    +0.000 A 
ATOM      4  C   UNL     1      47.521   5.987  13.970  0.00  0.00    +0.000 A 
ATOM      5  C   UNL     1      46.905   6.364  12.794  0.00  0.00    +0.000 A 
ATOM      6  N   UNL     1      45.955   5.633  12.172  0.00  0.00    +0.000 NA
ENDROOT
BRANCH   1   7
ATOM      7  C   UNL     1      44.540   3.614  12.096  0.00  0.00    +0.000 C 
BRANCH   7   8
ATOM      8  N   UNL     1      45.050   2.766  11.006  0.00  0.00    +0.000 NA
ATOM      9  H   UNL     1      44.862   1.791  11.247  0.00  0.00    +0.000 HD
BRANCH   8  11
ATOM     10  C   UNL     1      43.873   4.459   9.576  0.00  0.00    +0.000 C 
ATOM     11  C   UNL     1      44.439   3.037   9.694  0.00  0.00    +0.000 C 
BRANCH  11  12
ATOM     12  C   UNL     1      45.463   2.800   8.575  0.00  0.00    +0.000 A 
ATOM     13  C   UNL     1      46.019   1.533   8.387  0.00  0.00    +0.000 A 
ATOM     14  C   UNL     1      46.933   1.343   7.355  0.00  0.00    +0.000 A 
ATOM     15  C   UNL     1      47.265   2.416   6.540  0.00  0.00    +0.000 A 
ATOM     16  C   UNL     1      46.660   3.634   6.786  0.00  0.00    +0.000 A 
ATOM     17  N   UNL     1      45.772   3.852   7.784  0.00  0.00    +0.000 NA
ENDBRANCH  11  12
ENDBRANCH   8  11
ENDBRANCH   7   8
ENDBRANCH   1   7
BRANCH   4  18
ATOM     18  C   UNL     1      48.540   6.823  14.665  0.00  0.00    +0.000 C 
BRANCH  18  19
ATOM     19  N   UNL     1      49.689   7.088  13.837  0.00  0.00    +0.000 N 
ATOM     20  C   UNL     1      49.995   8.370  13.455  0.00  0.00    +0.000 C 
ATOM     21  O   UNL     1      49.289   9.321  13.785  0.00  0.00    +0.000 OA
ATOM     22  H   UNL     1      50.398   6.363  13.762  0.00  0.00    +0.000 HD
BRANCH  20  23
ATOM     23  C   UNL     1      51.160   8.549  12.576  0.00  0.00    +0.000 A 
ATOM     24  C   UNL     1      50.975   8.739  11.212  0.00  0.00    +0.000 A 
ATOM     25  S   UNL     1      52.425   8.674  10.314  0.00  0.00    +0.000 S 
ATOM     26  C   UNL     1      53.348   8.440  11.723  0.00  0.00    +0.000 A 
ATOM     27  N   UNL     1      54.687   8.212  11.661  0.00  0.00    +0.000 NA
ATOM     28  C   UNL     1      55.261   8.092  12.813  0.00  0.00    +0.000 A 
ATOM     29  N   UNL     1      54.624   8.219  14.020  0.00  0.00    +0.000 N 
ATOM     30  C   UNL     1      53.282   8.487  14.127  0.00  0.00    +0.000 A 
ATOM     31  O   UNL     1      52.756   8.711  15.214  0.00  0.00    +0.000 OA
ATOM     32  C   UNL     1      52.572   8.519  12.866  0.00  0.00    +0.000 A 
ATOM     33  H   UNL     1      55.145   8.186  14.885  0.00  0.00    +0.000 HD
ENDBRANCH  20  23
ENDBRANCH  18  19
ENDBRANCH   4  18
TORSDOF 7
ENDMDL
MODEL 8
REMARK VINA RESULT:    -6.933      3.725      5.640
REMARK INTER + INTRA:         -10.499
REMARK INTER:                  -9.330
REMARK INTRA:                  -1.169
REMARK UNBOUND:                -0.730
REMARK  Name = 
REMARK  8 active torsions:
REMARK  status: ('A' for Active; 'I' for Inactive)
REMARK    1  A    between atoms: C_1  and  C_2
REMARK    2  A    between atoms: C_2  and  N_3
REMARK    3  A    between atoms: C_2  and  C_25
REMARK    4  A    between atoms: N_3  and  C_4
REMARK    5  A    between atoms: C_4  and  C_5
REMARK    6  A    between atoms: C_8  and  C_9
REMARK    7  A    between atoms: C_9  and  N_10
REMARK    8  A    between atoms: C_11  and  C_13
REMARK                            x       y       z     vdW  Elec       q    Type
REMARK                         _______ _______ _______ _____ _____    ______ ____
ROOT
ATOM      1  C   UNL     1      48.013   6.197  14.939  0.00  0.00    +0.000 A 
ATOM      2  N   UNL     1      47.397   5.020  14.707  0.00  0.00    +0.000 NA
ATOM      3  C   UNL     1      47.565   4.055  15.629  0.00  0.00    +0.000 A 
ATOM      4  C   UNL     1      48.323   4.207  16.770  0.00  0.00    +0.000 A 
ATOM      5  C   UNL     1      48.944   5.433  16.892  0.00  0.00    +0.000 A 
ATOM      6  N   UNL     1      48.802   6.442  16.006  0.00  0.00    +0.000 NA
ENDROOT
BRANCH   1   7
ATOM      7  C   UNL     1      47.805   7.318  13.925  0.00  0.00    +0.000 C 
BRANCH   7   8
ATOM      8  N   UNL     1      46.396   7.485  13.532  0.00  0.00    +0.000 NA
ATOM      9  H   UNL     1      46.127   8.453  13.719  0.00  0.00    +0.000 HD
BRANCH   8  11
ATOM     10  C   UNL     1      47.401   6.910  11.306  0.00  0.00    +0.000 C 
ATOM     11  C   UNL     1      46.128   7.203  12.113  0.00  0.00    +0.000 C 
BRANCH  11  12
ATOM     12  C   UNL     1      45.159   6.019  11.984  0.00  0.00    +0.000 A 
ATOM     13  C   UNL     1      45.233   5.166  10.881  0.00  0.00    +0.000 A 
ATOM     14  C   UNL     1      44.352   4.091  10.797  0.00  0.00    +0.000 A 
ATOM     15  C   UNL     1      43.427   3.895  11.812  0.00  0.00    +0.000 A 
ATOM     16  C   UNL     1      43.428   4.778  12.875  0.00  0.00    +0.000 A 
ATOM     17  N   UNL     1      44.267   5.835  12.983  0.00  0.00    +0.000 NA
ENDBRANCH  11  12
ENDBRANCH   8  11
ENDBRANCH   7   8
ENDBRANCH   1   7
BRANCH   4  18
ATOM     18  C   UNL     1      48.459   3.117  17.777  0.00  0.00    +0.000 C 
BRANCH  18  19
ATOM     19  N   UNL     1      49.834   2.842  18.104  0.00  0.00    +0.000 N 
ATOM     20  C   UNL     1      50.628   2.125  17.243  0.00  0.00    +0.000 C 
ATOM     21  O   UNL     1      50.184   1.680  16.187  0.00  0.00    +0.000 OA
ATOM     22  H   UNL     1      50.269   3.397  18.837  0.00  0.00    +0.000 HD
BRANCH  20  23
ATOM     23  C   UNL     1      52.007   1.853  17.671  0.00  0.00    +0.000 A 
ATOM     24  C   UNL     1      52.582   0.616  17.408  0.00  0.00    +0.000 A 
ATOM     25  S   UNL     1      54.081   0.383  18.190  0.00  0.00    +0.000 S 
ATOM     26  C   UNL     1      54.032   1.944  18.863  0.00  0.00    +0.000 A 
ATOM     27  N   UNL     1      54.986   2.369  19.734  0.00  0.00    +0.000 NA
ATOM     28  C   UNL     1      54.839   3.590  20.131  0.00  0.00    +0.000 A 
ATOM     29  N   UNL     1      53.847   4.435  19.707  0.00  0.00    +0.000 N 
ATOM     30  C   UNL     1      52.888   4.058  18.799  0.00  0.00    +0.000 A 
ATOM     31  O   UNL     1      52.081   4.866  18.346  0.00  0.00    +0.000 OA
ATOM     32  C   UNL     1      52.943   2.666  18.409  0.00  0.00    +0.000 A 
ATOM     33  H   UNL     1      53.831   5.402  20.001  0.00  0.00    +0.000 HD
ENDBRANCH  20  23
ENDBRANCH  18  19
ENDBRANCH   4  18
TORSDOF 7
ENDMDL
MODEL 9
REMARK VINA RESULT:    -6.900      5.513      7.966
REMARK INTER + INTRA:         -10.453
REMARK INTER:                  -9.418
REMARK INTRA:                  -1.034
REMARK UNBOUND:                -0.730
REMARK  Name = 
REMARK  8 active torsions:
REMARK  status: ('A' for Active; 'I' for Inactive)
REMARK    1  A    between atoms: C_1  and  C_2
REMARK    2  A    between atoms: C_2  and  N_3
REMARK    3  A    between atoms: C_2  and  C_25
REMARK    4  A    between atoms: N_3  and  C_4
REMARK    5  A    between atoms: C_4  and  C_5
REMARK    6  A    between atoms: C_8  and  C_9
REMARK    7  A    between atoms: C_9  and  N_10
REMARK    8  A    between atoms: C_11  and  C_13
REMARK                            x       y       z     vdW  Elec       q    Type
REMARK                         _______ _______ _______ _____ _____    ______ ____
ROOT
ATOM      1  C   UNL     1      46.738   7.750  12.189  0.00  0.00    +0.000 A 
ATOM      2  N   UNL     1      47.267   8.968  11.948  0.00  0.00    +0.000 NA
ATOM      3  C   UNL     1      48.609   9.051  11.918  0.00  0.00    +0.000 A 
ATOM      4  C   UNL     1      49.450   7.978  12.123  0.00  0.00    +0.000 A 
ATOM      5  C   UNL     1      48.810   6.788  12.403  0.00  0.00    +0.000 A 
ATOM      6  N   UNL     1      47.468   6.642  12.433  0.00  0.00    +0.000 NA
ENDROOT
BRANCH   1   7
ATOM      7  C   UNL     1      45.218   7.625  12.189  0.00  0.00    +0.000 C 
BRANCH   7   8
ATOM      8  N   UNL     1      44.701   6.876  11.032  0.00  0.00    +0.000 NA
ATOM      9  H   UNL     1      45.461   6.770  10.358  0.00  0.00    +0.000 HD
BRANCH   8  11
ATOM     10  C   UNL     1      42.667   5.501  11.549  0.00  0.00    +0.000 C 
ATOM     11  C   UNL     1      44.190   5.535  11.360  0.00  0.00    +0.000 C 
BRANCH  11  12
ATOM     12  C   UNL     1      44.591   4.535  10.267  0.00  0.00    +0.000 A 
ATOM     13  C   UNL     1      45.444   4.927   9.233  0.00  0.00    +0.000 A 
ATOM     14  C   UNL     1      45.804   3.995   8.264  0.00  0.00    +0.000 A 
ATOM     15  C   UNL     1      45.309   2.702   8.353  0.00  0.00    +0.000 A 
ATOM     16  C   UNL     1      44.481   2.392   9.415  0.00  0.00    +0.000 A 
ATOM     17  N   UNL     1      44.108   3.276  10.370  0.00  0.00    +0.000 NA
ENDBRANCH  11  12
ENDBRANCH   8  11
ENDBRANCH   7   8
ENDBRANCH   1   7
BRANCH   4  18
ATOM     18  C   UNL     1      50.932   8.114  12.056  0.00  0.00    +0.000 C 
BRANCH  18  19
ATOM     19  N   UNL     1      51.454   7.775  10.757  0.00  0.00    +0.000 N 
ATOM     20  C   UNL     1      52.403   8.566  10.156  0.00  0.00    +0.000 C 
ATOM     21  O   UNL     1      52.812   9.592  10.695  0.00  0.00    +0.000 OA
ATOM     22  H   UNL     1      51.310   6.827  10.418  0.00  0.00    +0.000 HD
BRANCH  20  23
ATOM     23  C   UNL     1      52.852   8.172   8.814  0.00  0.00    +0.000 A 
ATOM     24  C   UNL     1      52.830   9.097   7.777  0.00  0.00    +0.000 A 
ATOM     25  S   UNL     1      53.140   8.410   6.246  0.00  0.00    +0.000 S 
ATOM     26  C   UNL     1      53.362   6.867   6.926  0.00  0.00    +0.000 A 
ATOM     27  N   UNL     1      53.571   5.774   6.144  0.00  0.00    +0.000 NA
ATOM     28  C   UNL     1      53.762   4.678   6.802  0.00  0.00    +0.000 A 
ATOM     29  N   UNL     1      53.802   4.584   8.168  0.00  0.00    +0.000 N 
ATOM     30  C   UNL     1      53.636   5.669   8.993  0.00  0.00    +0.000 A 
ATOM     31  O   UNL     1      53.791   5.582  10.208  0.00  0.00    +0.000 OA
ATOM     32  C   UNL     1      53.308   6.901   8.307  0.00  0.00    +0.000 A 
ATOM     33  H   UNL     1      54.028   3.708   8.619  0.00  0.00    +0.000 HD
ENDBRANCH  20  23
ENDBRANCH  18  19
ENDBRANCH   4  18
TORSDOF 7
ENDMDL
