MODEL 1
REMARK VINA RESULT:    -8.155      0.000      0.000
REMARK INTER + INTRA:         -11.578
REMARK INTER:                 -11.016
REMARK INTRA:                  -0.562
REMARK UNBOUND:                -0.562
REMARK  Name = 
REMARK  7 active torsions:
REMARK  status: ('A' for Active; 'I' for Inactive)
REMARK    1  A    between atoms: C_1  and  C_2
REMARK    2  A    between atoms: C_2  and  C_3
REMARK    3  A    between atoms: C_2  and  C_17
REMARK    4  A    between atoms: C_3  and  N_4
REMARK    5  A    between atoms: N_4  and  C_5
REMARK    6  A    between atoms: C_8  and  C_9
REMARK    7  A    between atoms: C_13  and  N_14
REMARK                            x       y       z     vdW  Elec       q    Type
REMARK                         _______ _______ _______ _____ _____    ______ ____
ROOT
ATOM      1  C   UNL     1      44.771   5.201  11.082  0.00  0.00    +0.000 A 
ATOM      2  N   UNL     1      45.799   5.915  10.556  0.00  0.00    +0.000 NA
ATOM      3  C   UNL     1      46.735   6.451  11.373  0.00  0.00    +0.000 A 
ATOM      4  C   UNL     1      46.729   6.315  12.746  0.00  0.00    +0.000 A 
ATOM      5  C   UNL     1      45.677   5.588  13.305  0.00  0.00    +0.000 A 
ATOM      6  C   UNL     1      44.685   5.035  12.472  0.00  0.00    +0.000 A 
ENDROOT
BRANCH   4   7
ATOM      7  C   UNL     1      47.773   6.887  13.627  0.00  0.00    +0.000 C 
ATOM      8  N   UNL     1      47.494   8.013  14.344  0.00  0.00    +0.000 N 
ATOM      9  O   UNL     1      48.878   6.364  13.711  0.00  0.00    +0.000 OA
ATOM     10  H   UNL     1      46.627   8.528  14.354  0.00  0.00    +0.000 HD
ATOM     11  H   UNL     1      48.243   8.366  14.928  0.00  0.00    +0.000 HD
ENDBRANCH   4   7
BRANCH   6  12
ATOM     12  N   UNL     1      43.625   4.238  13.091  0.00  0.00    +0.000 N 
ATOM     13  O   UNL     1      42.661   4.822  13.605  0.00  0.00    +0.000 OA
ATOM     14  O   UNL     1      43.728   3.003  13.030  0.00  0.00    +0.000 OA
ENDBRANCH   6  12
BRANCH   1  15
ATOM     15  N   UNL     1      43.785   4.786  10.184  0.00  0.00    +0.000 N 
ATOM     16  H   UNL     1      43.256   3.991  10.552  0.00  0.00    +0.000 HD
BRANCH  15  17
ATOM     17  C   UNL     1      44.271   4.517   8.833  0.00  0.00    +0.000 C 
BRANCH  17  19
ATOM     18  C   UNL     1      44.268   2.194   9.919  0.00  0.00    +0.000 C 
ATOM     19  C   UNL     1      44.672   3.073   8.780  0.00  0.00    +0.000 C 
BRANCH  19  20
ATOM     20  C   UNL     1      45.783   2.687   7.898  0.00  0.00    +0.000 A 
ATOM     21  C   UNL     1      46.399   1.434   8.024  0.00  0.00    +0.000 A 
ATOM     22  C   UNL     1      47.381   1.033   7.116  0.00  0.00    +0.000 A 
ATOM     23  C   UNL     1      47.755   1.878   6.074  0.00  0.00    +0.000 A 
ATOM     24  C   UNL     1      47.171   3.138   5.958  0.00  0.00    +0.000 A 
ATOM     25  C   UNL     1      46.199   3.544   6.872  0.00  0.00    +0.000 A 
ENDBRANCH  19  20
ENDBRANCH  17  19
ENDBRANCH  15  17
ENDBRANCH   1  15
TORSDOF 6
ENDMDL
MODEL 2
REMARK VINA RESULT:    -8.047      1.231      1.856
REMARK INTER + INTRA:         -11.431
REMARK INTER:                 -10.561
REMARK INTRA:                  -0.870
REMARK UNBOUND:                -0.562
REMARK  Name = 
REMARK  7 active torsions:
REMARK  status: ('A' for Active; 'I' for Inactive)
REMARK    1  A    between atoms: C_1  and  C_2
REMARK    2  A    between atoms: C_2  and  C_3
REMARK    3  A    between atoms: C_2  and  C_17
REMARK    4  A    between atoms: C_3  and  N_4
REMARK    5  A    between atoms: N_4  and  C_5
REMARK    6  A    between atoms: C_8  and  C_9
REMARK    7  A    between atoms: C_13  and  N_14
REMARK                            x       y       z     vdW  Elec       q    Type
REMARK                         _______ _______ _______ _____ _____    ______ ____
ROOT
ATOM      1  C   UNL     1      46.016   5.968  11.711  0.00  0.00    +0.000 A 
ATOM      2  N   UNL     1      46.756   7.100  11.587  0.00  0.00    +0.000 NA
ATOM      3  C   UNL     1      47.589   7.474  12.585  0.00  0.00    +0.000 A 
ATOM      4  C   UNL     1      47.757   6.763  13.756  0.00  0.00    +0.000 A 
ATOM      5  C   UNL     1      47.001   5.599  13.904  0.00  0.00    +0.000 A 
ATOM      6  C   UNL     1      46.117   5.202  12.882  0.00  0.00    +0.000 A 
ENDROOT
BRANCH   4   7
ATOM      7  C   UNL     1      48.691   7.171  14.831  0.00  0.00    +0.000 C 
ATOM      8  N   UNL     1      48.297   8.118  15.729  0.00  0.00    +0.000 N 
ATOM      9  O   UNL     1      49.807   6.672  14.914  0.00  0.00    +0.000 OA
ATOM     10  H   UNL     1      47.409   8.596  15.760  0.00  0.00    +0.000 HD
ATOM     11  H   UNL     1      48.973   8.365  16.442  0.00  0.00    +0.000 HD
ENDBRANCH   4   7
BRANCH   6  12
ATOM     12  N   UNL     1      45.377   3.950  13.053  0.00  0.00    +0.000 N 
ATOM     13  O   UNL     1      45.995   2.878  12.984  0.00  0.00    +0.000 OA
ATOM     14  O   UNL     1      44.165   4.032  13.302  0.00  0.00    +0.000 OA
ENDBRANCH   6  12
BRANCH   1  15
ATOM     15  N   UNL     1      45.094   5.719  10.693  0.00  0.00    +0.000 N 
ATOM     16  H   UNL     1      44.372   5.059  10.997  0.00  0.00    +0.000 HD
BRANCH  15  17
ATOM     17  C   UNL     1      45.690   5.302   9.426  0.00  0.00    +0.000 C 
BRANCH  17  19
ATOM     18  C   UNL     1      43.965   3.468   9.911  0.00  0.00    +0.000 C 
ATOM     19  C   UNL     1      45.053   4.001   9.036  0.00  0.00    +0.000 C 
BRANCH  19  20
ATOM     20  C   UNL     1      45.787   3.107   8.129  0.00  0.00    +0.000 A 
ATOM     21  C   UNL     1      46.392   3.602   6.965  0.00  0.00    +0.000 A 
ATOM     22  C   UNL     1      47.176   2.768   6.165  0.00  0.00    +0.000 A 
ATOM     23  C   UNL     1      47.364   1.434   6.520  0.00  0.00    +0.000 A 
ATOM     24  C   UNL     1      46.742   0.925   7.659  0.00  0.00    +0.000 A 
ATOM     25  C   UNL     1      45.949   1.755   8.452  0.00  0.00    +0.000 A 
ENDBRANCH  19  20
ENDBRANCH  17  19
ENDBRANCH  15  17
ENDBRANCH   1  15
TORSDOF 6
ENDMDL
MODEL 3
REMARK VINA RESULT:    -8.013      1.545      2.263
REMARK INTER + INTRA:         -11.386
REMARK INTER:                 -10.538
REMARK INTRA:                  -0.847
REMARK UNBOUND:                -0.562
REMARK  Name = 
REMARK  7 active torsions:
REMARK  status: ('A' for Active; 'I' for Inactive)
REMARK    1  A    between atoms: C_1  and  C_2
REMARK    2  A    between atoms: C_2  and  C_3
REMARK    3  A    between atoms: C_2  and  C_17
REMARK    4  A    between atoms: C_3  and  N_4
REMARK    5  A    between atoms: N_4  and  C_5
REMARK    6  A    between atoms: C_8  and  C_9
REMARK    7  A    between atoms: C_13  and  N_14
REMARK                            x       y       z     vdW  Elec       q    Type
REMARK                         _______ _______ _______ _____ _____    ______ ____
ROOT
ATOM      1  C   UNL     1      44.645   3.693  12.079  0.00  0.00    +0.000 A 
ATOM      2  N   UNL     1      45.640   2.924  12.590  0.00  0.00    +0.000 NA
ATOM      3  C   UNL     1      46.567   3.477  13.405  0.00  0.00    +0.000 A 
ATOM      4  C   UNL     1      46.573   4.806  13.777  0.00  0.00    +0.000 A 
ATOM      5  C   UNL     1      45.560   5.612  13.257  0.00  0.00    +0.000 A 
ATOM      6  C   UNL     1      44.595   5.059  12.395  0.00  0.00    +0.000 A 
ENDROOT
BRANCH   4   7
ATOM      7  C   UNL     1      47.581   5.393  14.690  0.00  0.00    +0.000 C 
ATOM      8  N   UNL     1      47.493   5.141  16.027  0.00  0.00    +0.000 N 
ATOM      9  O   UNL     1      48.481   6.102  14.257  0.00  0.00    +0.000 OA
ATOM     10  H   UNL     1      46.799   4.577  16.496  0.00  0.00    +0.000 HD
ATOM     11  H   UNL     1      48.203   5.569  16.609  0.00  0.00    +0.000 HD
ENDBRANCH   4   7
BRANCH   6  12
ATOM     12  N   UNL     1      43.519   5.926  11.909  0.00  0.00    +0.000 N 
ATOM     13  O   UNL     1      43.815   7.014  11.396  0.00  0.00    +0.000 OA
ATOM     14  O   UNL     1      42.357   5.501  12.000  0.00  0.00    +0.000 OA
ENDBRANCH   6  12
BRANCH   1  15
ATOM     15  N   UNL     1      43.802   3.075  11.151  0.00  0.00    +0.000 N 
ATOM     16  H   UNL     1      43.078   2.522  11.617  0.00  0.00    +0.000 HD
BRANCH  15  17
ATOM     17  C   UNL     1      44.496   2.288  10.135  0.00  0.00    +0.000 C 
BRANCH  17  19
ATOM     18  C   UNL     1      44.095   4.453   8.820  0.00  0.00    +0.000 C 
ATOM     19  C   UNL     1      44.925   3.232   9.051  0.00  0.00    +0.000 C 
BRANCH  19  20
ATOM     20  C   UNL     1      45.821   2.729   8.000  0.00  0.00    +0.000 A 
ATOM     21  C   UNL     1      46.209   3.551   6.933  0.00  0.00    +0.000 A 
ATOM     22  C   UNL     1      47.143   3.102   5.996  0.00  0.00    +0.000 A 
ATOM     23  C   UNL     1      47.697   1.830   6.117  0.00  0.00    +0.000 A 
ATOM     24  C   UNL     1      47.295   0.994   7.157  0.00  0.00    +0.000 A 
ATOM     25  C   UNL     1      46.354   1.437   8.086  0.00  0.00    +0.000 A 
ENDBRANCH  19  20
ENDBRANCH  17  19
ENDBRANCH  15  17
ENDBRANCH   1  15
TORSDOF 6
ENDMDL
MODEL 4
REMARK VINA RESULT:    -7.544      2.029      2.923
REMARK INTER + INTRA:         -10.752
REMARK INTER:                 -10.064
REMARK INTRA:                  -0.688
REMARK UNBOUND:                -0.562
REMARK  Name = 
REMARK  7 active torsions:
REMARK  status: ('A' for Active; 'I' for Inactive)
REMARK    1  A    between atoms: C_1  and  C_2
REMARK    2  A    between atoms: C_2  and  C_3
REMARK    3  A    between atoms: C_2  and  C_17
REMARK    4  A    between atoms: C_3  and  N_4
REMARK    5  A    between atoms: N_4  and  C_5
REMARK    6  A    between atoms: C_8  and  C_9
REMARK    7  A    between atoms: C_13  and  N_14
REMARK                            x       y       z     vdW  Elec       q    Type
REMARK                         _______ _______ _______ _____ _____    ______ ____
ROOT
ATOM      1  C   UNL     1      45.655   5.508  11.701  0.00  0.00    +0.000 A 
ATOM      2  N   UNL     1      45.392   4.242  12.114  0.00  0.00    +0.000 NA
ATOM      3  C   UNL     1      45.950   3.777  13.256  0.00  0.00    +0.000 A 
ATOM      4  C   UNL     1      46.787   4.519  14.064  0.00  0.00    +0.000 A 
ATOM      5  C   UNL     1      47.072   5.822  13.652  0.00  0.00    +0.000 A 
ATOM      6  C   UNL     1      46.513   6.319  12.459  0.00  0.00    +0.000 A 
ENDROOT
BRANCH   4   7
ATOM      7  C   UNL     1      47.371   4.005  15.324  0.00  0.00    +0.000 C 
ATOM      8  N   UNL     1      47.319   4.780  16.445  0.00  0.00    +0.000 N 
ATOM      9  O   UNL     1      47.902   2.902  15.364  0.00  0.00    +0.000 OA
ATOM     10  H   UNL     1      46.912   5.699  16.531  0.00  0.00    +0.000 HD
ATOM     11  H   UNL     1      47.736   4.385  17.279  0.00  0.00    +0.000 HD
ENDBRANCH   4   7
BRANCH   6  12
ATOM     12  N   UNL     1      46.796   7.706  12.085  0.00  0.00    +0.000 N 
ATOM     13  O   UNL     1      47.977   8.074  12.005  0.00  0.00    +0.000 OA
ATOM     14  O   UNL     1      45.828   8.437  11.824  0.00  0.00    +0.000 OA
ENDBRANCH   6  12
BRANCH   1  15
ATOM     15  N   UNL     1      45.140   5.869  10.453  0.00  0.00    +0.000 N 
ATOM     16  H   UNL     1      44.162   5.583  10.357  0.00  0.00    +0.000 HD
BRANCH  15  17
ATOM     17  C   UNL     1      45.937   5.416   9.316  0.00  0.00    +0.000 C 
BRANCH  17  19
ATOM     18  C   UNL     1      43.809   3.995   9.145  0.00  0.00    +0.000 C 
ATOM     19  C   UNL     1      45.201   4.275   8.678  0.00  0.00    +0.000 C 
BRANCH  19  20
ATOM     20  C   UNL     1      45.981   3.236   7.991  0.00  0.00    +0.000 A 
ATOM     21  C   UNL     1      45.978   1.912   8.452  0.00  0.00    +0.000 A 
ATOM     22  C   UNL     1      46.634   0.910   7.735  0.00  0.00    +0.000 A 
ATOM     23  C   UNL     1      47.298   1.221   6.550  0.00  0.00    +0.000 A 
ATOM     24  C   UNL     1      47.333   2.539   6.100  0.00  0.00    +0.000 A 
ATOM     25  C   UNL     1      46.688   3.542   6.822  0.00  0.00    +0.000 A 
ENDBRANCH  19  20
ENDBRANCH  17  19
ENDBRANCH  15  17
ENDBRANCH   1  15
TORSDOF 6
ENDMDL
MODEL 5
REMARK VINA RESULT:    -7.395      2.352      6.028
REMARK INTER + INTRA:         -10.550
REMARK INTER:                  -9.818
REMARK INTRA:                  -0.732
REMARK UNBOUND:                -0.562
REMARK  Name = 
REMARK  7 active torsions:
REMARK  status: ('A' for Active; 'I' for Inactive)
REMARK    1  A    between atoms: C_1  and  C_2
REMARK    2  A    between atoms: C_2  and  C_3
REMARK    3  A    between atoms: C_2  and  C_17
REMARK    4  A    between atoms: C_3  and  N_4
REMARK    5  A    between atoms: N_4  and  C_5
REMARK    6  A    between atoms: C_8  and  C_9
REMARK    7  A    between atoms: C_13  and  N_14
REMARK                            x       y       z     vdW  Elec       q    Type
REMARK                         _______ _______ _______ _____ _____    ______ ____
ROOT
ATOM      1  C   UNL     1      44.798   4.497   9.795  0.00  0.00    +0.000 A 
ATOM      2  N   UNL     1      45.459   4.779   8.643  0.00  0.00    +0.000 NA
ATOM      3  C   UNL     1      46.039   3.782   7.937  0.00  0.00    +0.000 A 
ATOM      4  C   UNL     1      46.001   2.452   8.306  0.00  0.00    +0.000 A 
ATOM      5  C   UNL     1      45.330   2.144   9.490  0.00  0.00    +0.000 A 
ATOM      6  C   UNL     1      44.733   3.170  10.247  0.00  0.00    +0.000 A 
ENDROOT
BRANCH   4   7
ATOM      7  C   UNL     1      46.619   1.367   7.510  0.00  0.00    +0.000 C 
ATOM      8  N   UNL     1      47.181   1.664   6.305  0.00  0.00    +0.000 N 
ATOM      9  O   UNL     1      46.624   0.213   7.922  0.00  0.00    +0.000 OA
ATOM     10  H   UNL     1      47.236   2.571   5.866  0.00  0.00    +0.000 HD
ATOM     11  H   UNL     1      47.587   0.887   5.798  0.00  0.00    +0.000 HD
ENDBRANCH   4   7
BRANCH   6  12
ATOM     12  N   UNL     1      43.997   2.802  11.457  0.00  0.00    +0.000 N 
ATOM     13  O   UNL     1      42.841   2.369  11.345  0.00  0.00    +0.000 OA
ATOM     14  O   UNL     1      44.591   2.903  12.542  0.00  0.00    +0.000 OA
ENDBRANCH   6  12
BRANCH   1  15
ATOM     15  N   UNL     1      44.335   5.594  10.525  0.00  0.00    +0.000 N 
ATOM     16  H   UNL     1      43.509   6.010  10.088  0.00  0.00    +0.000 HD
BRANCH  15  17
ATOM     17  C   UNL     1      45.350   6.606  10.806  0.00  0.00    +0.000 C 
BRANCH  17  19
ATOM     18  C   UNL     1      45.017   5.858  13.236  0.00  0.00    +0.000 C 
ATOM     19  C   UNL     1      45.945   6.286  12.146  0.00  0.00    +0.000 C 
BRANCH  19  20
ATOM     20  C   UNL     1      47.276   6.821  12.466  0.00  0.00    +0.000 A 
ATOM     21  C   UNL     1      47.793   6.730  13.766  0.00  0.00    +0.000 A 
ATOM     22  C   UNL     1      49.099   7.143  14.039  0.00  0.00    +0.000 A 
ATOM     23  C   UNL     1      49.900   7.648  13.017  0.00  0.00    +0.000 A 
ATOM     24  C   UNL     1      49.384   7.770  11.728  0.00  0.00    +0.000 A 
ATOM     25  C   UNL     1      48.076   7.369  11.457  0.00  0.00    +0.000 A 
ENDBRANCH  19  20
ENDBRANCH  17  19
ENDBRANCH  15  17
ENDBRANCH   1  15
TORSDOF 6
ENDMDL
MODEL 6
REMARK VINA RESULT:    -7.303      3.240      6.733
REMARK INTER + INTRA:         -10.427
REMARK INTER:                  -9.596
REMARK INTRA:                  -0.831
REMARK UNBOUND:                -0.562
REMARK  Name = 
REMARK  7 active torsions:
REMARK  status: ('A' for Active; 'I' for Inactive)
REMARK    1  A    between atoms: C_1  and  C_2
REMARK    2  A    between atoms: C_2  and  C_3
REMARK    3  A    between atoms: C_2  and  C_17
REMARK    4  A    between atoms: C_3  and  N_4
REMARK    5  A    between atoms: N_4  and  C_5
REMARK    6  A    between atoms: C_8  and  C_9
REMARK    7  A    between atoms: C_13  and  N_14
REMARK                            x       y       z     vdW  Elec       q    Type
REMARK                         _______ _______ _______ _____ _____    ______ ____
ROOT
ATOM      1  C   UNL     1      45.321   4.472   9.300  0.00  0.00    +0.000 A 
ATOM      2  N   UNL     1      45.998   4.646   8.136  0.00  0.00    +0.000 NA
ATOM      3  C   UNL     1      46.494   3.573   7.478  0.00  0.00    +0.000 A 
ATOM      4  C   UNL     1      46.352   2.270   7.910  0.00  0.00    +0.000 A 
ATOM      5  C   UNL     1      45.663   2.073   9.107  0.00  0.00    +0.000 A 
ATOM      6  C   UNL     1      45.152   3.178   9.814  0.00  0.00    +0.000 A 
ENDROOT
BRANCH   4   7
ATOM      7  C   UNL     1      46.880   1.102   7.167  0.00  0.00    +0.000 C 
ATOM      8  N   UNL     1      46.697  -0.148   7.679  0.00  0.00    +0.000 N 
ATOM      9  O   UNL     1      47.479   1.252   6.109  0.00  0.00    +0.000 OA
ATOM     10  H   UNL     1      46.224  -0.392   8.536  0.00  0.00    +0.000 HD
ATOM     11  H   UNL     1      47.080  -0.912   7.135  0.00  0.00    +0.000 HD
ENDBRANCH   4   7
BRANCH   6  12
ATOM     12  N   UNL     1      44.393   2.927  11.041  0.00  0.00    +0.000 N 
ATOM     13  O   UNL     1      44.943   3.123  12.134  0.00  0.00    +0.000 OA
ATOM     14  O   UNL     1      43.212   2.566  10.919  0.00  0.00    +0.000 OA
ENDBRANCH   6  12
BRANCH   1  15
ATOM     15  N   UNL     1      44.948   5.636   9.977  0.00  0.00    +0.000 N 
ATOM     16  H   UNL     1      44.547   6.327   9.338  0.00  0.00    +0.000 HD
BRANCH  15  17
ATOM     17  C   UNL     1      46.007   6.224  10.794  0.00  0.00    +0.000 C 
BRANCH  17  19
ATOM     18  C   UNL     1      44.305   6.416  12.702  0.00  0.00    +0.000 C 
ATOM     19  C   UNL     1      45.347   7.063  11.848  0.00  0.00    +0.000 C 
BRANCH  19  20
ATOM     20  C   UNL     1      45.399   8.525  11.713  0.00  0.00    +0.000 A 
ATOM     21  C   UNL     1      44.282   9.246  11.266  0.00  0.00    +0.000 A 
ATOM     22  C   UNL     1      44.304  10.642  11.242  0.00  0.00    +0.000 A 
ATOM     23  C   UNL     1      45.438  11.331  11.665  0.00  0.00    +0.000 A 
ATOM     24  C   UNL     1      46.564  10.623  12.082  0.00  0.00    +0.000 A 
ATOM     25  C   UNL     1      46.547   9.228  12.095  0.00  0.00    +0.000 A 
ENDBRANCH  19  20
ENDBRANCH  17  19
ENDBRANCH  15  17
ENDBRANCH   1  15
TORSDOF 6
ENDMDL
MODEL 7
REMARK VINA RESULT:    -7.153      2.062      2.829
REMARK INTER + INTRA:         -10.224
REMARK INTER:                  -9.497
REMARK INTRA:                  -0.727
REMARK UNBOUND:                -0.562
REMARK  Name = 
REMARK  7 active torsions:
REMARK  status: ('A' for Active; 'I' for Inactive)
REMARK    1  A    between atoms: C_1  and  C_2
REMARK    2  A    between atoms: C_2  and  C_3
REMARK    3  A    between atoms: C_2  and  C_17
REMARK    4  A    between atoms: C_3  and  N_4
REMARK    5  A    between atoms: N_4  and  C_5
REMARK    6  A    between atoms: C_8  and  C_9
REMARK    7  A    between atoms: C_13  and  N_14
REMARK                            x       y       z     vdW  Elec       q    Type
REMARK                         _______ _______ _______ _____ _____    ______ ____
ROOT
ATOM      1  C   UNL     1      45.728   6.335  11.927  0.00  0.00    +0.000 A 
ATOM      2  N   UNL     1      46.391   5.318  12.533  0.00  0.00    +0.000 NA
ATOM      3  C   UNL     1      47.318   5.587  13.481  0.00  0.00    +0.000 A 
ATOM      4  C   UNL     1      47.645   6.861  13.899  0.00  0.00    +0.000 A 
ATOM      5  C   UNL     1      46.977   7.920  13.283  0.00  0.00    +0.000 A 
ATOM      6  C   UNL     1      46.020   7.660  12.284  0.00  0.00    +0.000 A 
ENDROOT
BRANCH   4   7
ATOM      7  C   UNL     1      48.645   7.142  14.955  0.00  0.00    +0.000 C 
ATOM      8  N   UNL     1      48.282   7.898  16.030  0.00  0.00    +0.000 N 
ATOM      9  O   UNL     1      49.788   6.708  14.867  0.00  0.00    +0.000 OA
ATOM     10  H   UNL     1      47.377   8.307  16.208  0.00  0.00    +0.000 HD
ATOM     11  H   UNL     1      49.003   8.064  16.722  0.00  0.00    +0.000 HD
ENDBRANCH   4   7
BRANCH   6  12
ATOM     12  N   UNL     1      45.304   8.794  11.696  0.00  0.00    +0.000 N 
ATOM     13  O   UNL     1      45.877   9.891  11.627  0.00  0.00    +0.000 OA
ATOM     14  O   UNL     1      44.164   8.585  11.254  0.00  0.00    +0.000 OA
ENDBRANCH   6  12
BRANCH   1  15
ATOM     15  N   UNL     1      44.878   5.979  10.877  0.00  0.00    +0.000 N 
ATOM     16  H   UNL     1      44.145   5.338  11.192  0.00  0.00    +0.000 HD
BRANCH  15  17
ATOM     17  C   UNL     1      45.563   5.459   9.696  0.00  0.00    +0.000 C 
BRANCH  17  19
ATOM     18  C   UNL     1      43.947   3.571  10.330  0.00  0.00    +0.000 C 
ATOM     19  C   UNL     1      44.958   4.124   9.378  0.00  0.00    +0.000 C 
BRANCH  19  20
ATOM     20  C   UNL     1      45.672   3.235   8.450  0.00  0.00    +0.000 A 
ATOM     21  C   UNL     1      46.397   3.757   7.370  0.00  0.00    +0.000 A 
ATOM     22  C   UNL     1      47.159   2.917   6.556  0.00  0.00    +0.000 A 
ATOM     23  C   UNL     1      47.204   1.548   6.813  0.00  0.00    +0.000 A 
ATOM     24  C   UNL     1      46.462   1.016   7.865  0.00  0.00    +0.000 A 
ATOM     25  C   UNL     1      45.692   1.853   8.671  0.00  0.00    +0.000 A 
ENDBRANCH  19  20
ENDBRANCH  17  19
ENDBRANCH  15  17
ENDBRANCH   1  15
TORSDOF 6
ENDMDL
MODEL 8
REMARK VINA RESULT:    -6.709      3.928      7.673
REMARK INTER + INTRA:          -9.624
REMARK INTER:                  -8.856
REMARK INTRA:                  -0.768
REMARK UNBOUND:                -0.562
REMARK  Name = 
REMARK  7 active torsions:
REMARK  status: ('A' for Active; 'I' for Inactive)
REMARK    1  A    between atoms: C_1  and  C_2
REMARK    2  A    between atoms: C_2  and  C_3
REMARK    3  A    between atoms: C_2  and  C_17
REMARK    4  A    between atoms: C_3  and  N_4
REMARK    5  A    between atoms: N_4  and  C_5
REMARK    6  A    between atoms: C_8  and  C_9
REMARK    7  A    between atoms: C_13  and  N_14
REMARK                            x       y       z     vdW  Elec       q    Type
REMARK                         _______ _______ _______ _____ _____    ______ ____
ROOT
ATOM      1  C   UNL     1      46.661   5.058  13.844  0.00  0.00    +0.000 A 
ATOM      2  N   UNL     1      46.362   3.751  13.633  0.00  0.00    +0.000 NA
ATOM      3  C   UNL     1      45.539   3.404  12.617  0.00  0.00    +0.000 A 
ATOM      4  C   UNL     1      44.968   4.308  11.743  0.00  0.00    +0.000 A 
ATOM      5  C   UNL     1      45.261   5.657  11.949  0.00  0.00    +0.000 A 
ATOM      6  C   UNL     1      46.103   6.039  13.010  0.00  0.00    +0.000 A 
ENDROOT
BRANCH   4   7
ATOM      7  C   UNL     1      44.088   3.912  10.620  0.00  0.00    +0.000 C 
ATOM      8  N   UNL     1      44.065   4.678   9.493  0.00  0.00    +0.000 N 
ATOM      9  O   UNL     1      43.382   2.913  10.699  0.00  0.00    +0.000 OA
ATOM     10  H   UNL     1      44.597   5.517   9.316  0.00  0.00    +0.000 HD
ATOM     11  H   UNL     1      43.443   4.367   8.755  0.00  0.00    +0.000 HD
ENDBRANCH   4   7
BRANCH   6  12
ATOM     12  N   UNL     1      46.426   7.459  13.164  0.00  0.00    +0.000 N 
ATOM     13  O   UNL     1      47.609   7.788  13.330  0.00  0.00    +0.000 OA
ATOM     14  O   UNL     1      45.491   8.270  13.076  0.00  0.00    +0.000 OA
ENDBRANCH   6  12
BRANCH   1  15
ATOM     15  N   UNL     1      47.417   5.342  14.985  0.00  0.00    +0.000 N 
ATOM     16  H   UNL     1      48.374   5.608  14.740  0.00  0.00    +0.000 HD
BRANCH  15  17
ATOM     17  C   UNL     1      47.403   4.288  15.996  0.00  0.00    +0.000 C 
BRANCH  17  19
ATOM     18  C   UNL     1      48.404   6.106  17.502  0.00  0.00    +0.000 C 
ATOM     19  C   UNL     1      48.382   4.677  17.064  0.00  0.00    +0.000 C 
BRANCH  19  20
ATOM     20  C   UNL     1      49.541   3.805  17.302  0.00  0.00    +0.000 A 
ATOM     21  C   UNL     1      49.491   2.441  16.986  0.00  0.00    +0.000 A 
ATOM     22  C   UNL     1      50.629   1.642  17.115  0.00  0.00    +0.000 A 
ATOM     23  C   UNL     1      51.827   2.198  17.560  0.00  0.00    +0.000 A 
ATOM     24  C   UNL     1      51.878   3.547  17.905  0.00  0.00    +0.000 A 
ATOM     25  C   UNL     1      50.739   4.343  17.788  0.00  0.00    +0.000 A 
ENDBRANCH  19  20
ENDBRANCH  17  19
ENDBRANCH  15  17
ENDBRANCH   1  15
TORSDOF 6
ENDMDL
MODEL 9
REMARK VINA RESULT:    -6.692      3.062      5.037
REMARK INTER + INTRA:          -9.601
REMARK INTER:                  -8.627
REMARK INTRA:                  -0.974
REMARK UNBOUND:                -0.562
REMARK  Name = 
REMARK  7 active torsions:
REMARK  status: ('A' for Active; 'I' for Inactive)
REMARK    1  A    between atoms: C_1  and  C_2
REMARK    2  A    between atoms: C_2  and  C_3
REMARK    3  A    between atoms: C_2  and  C_17
REMARK    4  A    between atoms: C_3  and  N_4
REMARK    5  A    between atoms: N_4  and  C_5
REMARK    6  A    between atoms: C_8  and  C_9
REMARK    7  A    between atoms: C_13  and  N_14
REMARK                            x       y       z     vdW  Elec       q    Type
REMARK                         _______ _______ _______ _____ _____    ______ ____
ROOT
ATOM      1  C   UNL     1      47.172   4.572  14.839  0.00  0.00    +0.000 A 
ATOM      2  N   UNL     1      46.843   3.660  15.789  0.00  0.00    +0.000 NA
ATOM      3  C   UNL     1      47.334   3.787  17.044  0.00  0.00    +0.000 A 
ATOM      4  C   UNL     1      48.163   4.814  17.447  0.00  0.00    +0.000 A 
ATOM      5  C   UNL     1      48.515   5.759  16.482  0.00  0.00    +0.000 A 
ATOM      6  C   UNL     1      48.027   5.635  15.167  0.00  0.00    +0.000 A 
ENDROOT
BRANCH   4   7
ATOM      7  C   UNL     1      48.673   4.955  18.831  0.00  0.00    +0.000 C 
ATOM      8  N   UNL     1      47.794   5.210  19.840  0.00  0.00    +0.000 N 
ATOM      9  O   UNL     1      49.870   4.852  19.070  0.00  0.00    +0.000 OA
ATOM     10  H   UNL     1      46.793   5.317  19.764  0.00  0.00    +0.000 HD
ATOM     11  H   UNL     1      48.193   5.302  20.767  0.00  0.00    +0.000 HD
ENDBRANCH   4   7
BRANCH   6  12
ATOM     12  N   UNL     1      48.379   6.672  14.196  0.00  0.00    +0.000 N 
ATOM     13  O   UNL     1      48.936   6.338  13.141  0.00  0.00    +0.000 OA
ATOM     14  O   UNL     1      48.059   7.840  14.465  0.00  0.00    +0.000 OA
ENDBRANCH   6  12
BRANCH   1  15
ATOM     15  N   UNL     1      46.725   4.302  13.544  0.00  0.00    +0.000 N 
ATOM     16  H   UNL     1      47.406   4.606  12.843  0.00  0.00    +0.000 HD
BRANCH  15  17
ATOM     17  C   UNL     1      45.392   4.821  13.243  0.00  0.00    +0.000 C 
BRANCH  17  19
ATOM     18  C   UNL     1      45.330   6.962  11.832  0.00  0.00    +0.000 C 
ATOM     19  C   UNL     1      45.458   5.474  11.895  0.00  0.00    +0.000 C 
BRANCH  19  20
ATOM     20  C   UNL     1      45.190   4.652  10.706  0.00  0.00    +0.000 A 
ATOM     21  C   UNL     1      45.613   5.066   9.435  0.00  0.00    +0.000 A 
ATOM     22  C   UNL     1      45.449   4.232   8.327  0.00  0.00    +0.000 A 
ATOM     23  C   UNL     1      44.864   2.977   8.478  0.00  0.00    +0.000 A 
ATOM     24  C   UNL     1      44.413   2.569   9.732  0.00  0.00    +0.000 A 
ATOM     25  C   UNL     1      44.565   3.406  10.837  0.00  0.00    +0.000 A 
ENDBRANCH  19  20
ENDBRANCH  17  19
ENDBRANCH  15  17
ENDBRANCH   1  15
TORSDOF 6
ENDMDL
