MODEL 1
REMARK VINA RESULT:    -8.022      0.000      0.000
REMARK INTER + INTRA:         -10.534
REMARK INTER:                 -10.132
REMARK INTRA:                  -0.402
REMARK UNBOUND:                -0.402
REMARK  Name = 
REMARK  5 active torsions:
REMARK  status: ('A' for Active; 'I' for Inactive)
REMARK    1  A    between atoms: C_2  and  C_3
REMARK    2  A    between atoms: N_8  and  C_9
REMARK    3  A    between atoms: C_9  and  C_10
REMARK    4  A    between atoms: C_14  and  C_15
REMARK    5  A    between atoms: C_15  and  N_16
REMARK                            x       y       z     vdW  Elec       q    Type
REMARK                         _______ _______ _______ _____ _____    ______ ____
ROOT
ATOM      1  C   UNL     1      46.970   5.708  13.401  0.00  0.00    +0.000 A 
ATOM      2  C   UNL     1      45.956   4.783  13.687  0.00  0.00    +0.000 A 
ATOM      3  C   UNL     1      45.061   4.380  12.670  0.00  0.00    +0.000 A 
ATOM      4  C   UNL     1      43.958   3.490  12.659  0.00  0.00    +0.000 A 
ATOM      5  C   UNL     1      43.466   3.449  11.379  0.00  0.00    +0.000 A 
ATOM      6  N   UNL     1      44.226   4.283  10.588  0.00  0.00    +0.000 N 
ATOM      7  C   UNL     1      45.189   4.908  11.374  0.00  0.00    +0.000 A 
ATOM      8  C   UNL     1      46.173   5.875  11.092  0.00  0.00    +0.000 A 
ATOM      9  C   UNL     1      47.059   6.239  12.118  0.00  0.00    +0.000 A 
ATOM     10  F   UNL     1      48.029   7.124  11.832  0.00  0.00    +0.000 F 
ENDROOT
BRANCH   1  12
ATOM     11  N   UNL     1      48.672   6.379  15.245  0.00  0.00    +0.000 NA
ATOM     12  C   UNL     1      47.901   6.094  14.418  0.00  0.00    +0.000 C 
ENDBRANCH   1  12
BRANCH   6  13
ATOM     13  C   UNL     1      44.074   4.320   9.129  0.00  0.00    +0.000 C 
BRANCH  13  14
ATOM     14  C   UNL     1      44.874   3.239   8.446  0.00  0.00    +0.000 A 
ATOM     15  C   UNL     1      44.941   1.954   8.998  0.00  0.00    +0.000 A 
ATOM     16  C   UNL     1      45.838   1.018   8.488  0.00  0.00    +0.000 A 
ATOM     17  C   UNL     1      46.656   1.346   7.406  0.00  0.00    +0.000 A 
ATOM     18  C   UNL     1      46.543   2.592   6.771  0.00  0.00    +0.000 A 
ATOM     19  C   UNL     1      45.641   3.529   7.301  0.00  0.00    +0.000 A 
BRANCH  18  20
ATOM     20  C   UNL     1      47.493   2.941   5.650  0.00  0.00    +0.000 C 
BRANCH  20  21
ATOM     21  N   UNL     1      48.490   1.908   5.380  0.00  0.00    +0.000 NA
ATOM     22  H   UNL     1      49.022   1.736   6.232  0.00  0.00    +0.000 HD
ATOM     23  H   UNL     1      49.157   2.270   4.700  0.00  0.00    +0.000 HD
ENDBRANCH  20  21
ENDBRANCH  18  20
ENDBRANCH  13  14
ENDBRANCH   6  13
TORSDOF 5
ENDMDL
MODEL 2
REMARK VINA RESULT:    -7.491      2.037      6.195
REMARK INTER + INTRA:          -9.863
REMARK INTER:                  -9.257
REMARK INTRA:                  -0.607
REMARK UNBOUND:                -0.402
REMARK  Name = 
REMARK  5 active torsions:
REMARK  status: ('A' for Active; 'I' for Inactive)
REMARK    1  A    between atoms: C_2  and  C_3
REMARK    2  A    between atoms: N_8  and  C_9
REMARK    3  A    between atoms: C_9  and  C_10
REMARK    4  A    between atoms: C_14  and  C_15
REMARK    5  A    between atoms: C_15  and  N_16
REMARK                            x       y       z     vdW  Elec       q    Type
REMARK                         _______ _______ _______ _____ _____    ______ ____
ROOT
ATOM      1  C   UNL     1      46.056   2.523   8.159  0.00  0.00    +0.000 A 
ATOM      2  C   UNL     1      45.227   1.973   9.145  0.00  0.00    +0.000 A 
ATOM      3  C   UNL     1      44.531   2.821  10.037  0.00  0.00    +0.000 A 
ATOM      4  C   UNL     1      43.648   2.564  11.116  0.00  0.00    +0.000 A 
ATOM      5  C   UNL     1      43.236   3.773  11.616  0.00  0.00    +0.000 A 
ATOM      6  N   UNL     1      43.829   4.778  10.884  0.00  0.00    +0.000 N 
ATOM      7  C   UNL     1      44.673   4.216   9.932  0.00  0.00    +0.000 A 
ATOM      8  C   UNL     1      45.544   4.774   8.978  0.00  0.00    +0.000 A 
ATOM      9  C   UNL     1      46.205   3.905   8.094  0.00  0.00    +0.000 A 
ATOM     10  F   UNL     1      46.995   4.444   7.150  0.00  0.00    +0.000 F 
ENDROOT
BRANCH   1  12
ATOM     11  N   UNL     1      47.316   0.998   6.475  0.00  0.00    +0.000 NA
ATOM     12  C   UNL     1      46.737   1.671   7.231  0.00  0.00    +0.000 C 
ENDBRANCH   1  12
BRANCH   6  13
ATOM     13  C   UNL     1      43.448   6.186  11.048  0.00  0.00    +0.000 C 
BRANCH  13  14
ATOM     14  C   UNL     1      44.522   6.988  11.740  0.00  0.00    +0.000 A 
ATOM     15  C   UNL     1      44.617   8.370  11.533  0.00  0.00    +0.000 A 
ATOM     16  C   UNL     1      45.724   9.075  12.001  0.00  0.00    +0.000 A 
ATOM     17  C   UNL     1      46.731   8.413  12.705  0.00  0.00    +0.000 A 
ATOM     18  C   UNL     1      46.617   7.049  13.012  0.00  0.00    +0.000 A 
ATOM     19  C   UNL     1      45.501   6.349  12.525  0.00  0.00    +0.000 A 
BRANCH  18  20
ATOM     20  C   UNL     1      47.759   6.350  13.711  0.00  0.00    +0.000 C 
BRANCH  20  21
ATOM     21  N   UNL     1      48.994   6.315  12.933  0.00  0.00    +0.000 NA
ATOM     22  H   UNL     1      49.730   5.904  13.505  0.00  0.00    +0.000 HD
ATOM     23  H   UNL     1      49.286   7.273  12.744  0.00  0.00    +0.000 HD
ENDBRANCH  20  21
ENDBRANCH  18  20
ENDBRANCH  13  14
ENDBRANCH   6  13
TORSDOF 5
ENDMDL
MODEL 3
REMARK VINA RESULT:    -7.090      1.603      2.168
REMARK INTER + INTRA:          -9.358
REMARK INTER:                  -8.610
REMARK INTRA:                  -0.748
REMARK UNBOUND:                -0.402
REMARK  Name = 
REMARK  5 active torsions:
REMARK  status: ('A' for Active; 'I' for Inactive)
REMARK    1  A    between atoms: C_2  and  C_3
REMARK    2  A    between atoms: N_8  and  C_9
REMARK    3  A    between atoms: C_9  and  C_10
REMARK    4  A    between atoms: C_14  and  C_15
REMARK    5  A    between atoms: C_15  and  N_16
REMARK                            x       y       z     vdW  Elec       q    Type
REMARK                         _______ _______ _______ _____ _____    ______ ____
ROOT
ATOM      1  C   UNL     1      47.229   5.201  14.286  0.00  0.00    +0.000 A 
ATOM      2  C   UNL     1      46.853   6.406  13.677  0.00  0.00    +0.000 A 
ATOM      3  C   UNL     1      46.003   6.389  12.547  0.00  0.00    +0.000 A 
ATOM      4  C   UNL     1      45.469   7.419  11.732  0.00  0.00    +0.000 A 
ATOM      5  C   UNL     1      44.668   6.831  10.786  0.00  0.00    +0.000 A 
ATOM      6  N   UNL     1      44.681   5.468  10.985  0.00  0.00    +0.000 N 
ATOM      7  C   UNL     1      45.537   5.165  12.038  0.00  0.00    +0.000 A 
ATOM      8  C   UNL     1      45.952   3.949  12.613  0.00  0.00    +0.000 A 
ATOM      9  C   UNL     1      46.781   4.000  13.746  0.00  0.00    +0.000 A 
ATOM     10  F   UNL     1      47.133   2.839  14.324  0.00  0.00    +0.000 F 
ENDROOT
BRANCH   1  12
ATOM     11  N   UNL     1      48.764   5.237  16.382  0.00  0.00    +0.000 NA
ATOM     12  C   UNL     1      48.063   5.212  15.451  0.00  0.00    +0.000 C 
ENDBRANCH   1  12
BRANCH   6  13
ATOM     13  C   UNL     1      43.778   4.569  10.255  0.00  0.00    +0.000 C 
BRANCH  13  14
ATOM     14  C   UNL     1      44.527   3.627   9.346  0.00  0.00    +0.000 A 
ATOM     15  C   UNL     1      44.397   2.242   9.503  0.00  0.00    +0.000 A 
ATOM     16  C   UNL     1      45.238   1.375   8.808  0.00  0.00    +0.000 A 
ATOM     17  C   UNL     1      46.196   1.882   7.930  0.00  0.00    +0.000 A 
ATOM     18  C   UNL     1      46.284   3.259   7.677  0.00  0.00    +0.000 A 
ATOM     19  C   UNL     1      45.437   4.121   8.392  0.00  0.00    +0.000 A 
BRANCH  18  20
ATOM     20  C   UNL     1      47.380   3.779   6.776  0.00  0.00    +0.000 C 
BRANCH  20  21
ATOM     21  N   UNL     1      48.412   2.791   6.474  0.00  0.00    +0.000 NA
ATOM     22  H   UNL     1      48.859   2.508   7.344  0.00  0.00    +0.000 HD
ATOM     23  H   UNL     1      49.138   3.240   5.917  0.00  0.00    +0.000 HD
ENDBRANCH  20  21
ENDBRANCH  18  20
ENDBRANCH  13  14
ENDBRANCH   6  13
TORSDOF 5
ENDMDL
MODEL 4
REMARK VINA RESULT:    -6.703      1.797      2.059
REMARK INTER + INTRA:          -8.868
REMARK INTER:                  -8.300
REMARK INTRA:                  -0.569
REMARK UNBOUND:                -0.402
REMARK  Name = 
REMARK  5 active torsions:
REMARK  status: ('A' for Active; 'I' for Inactive)
REMARK    1  A    between atoms: C_2  and  C_3
REMARK    2  A    between atoms: N_8  and  C_9
REMARK    3  A    between atoms: C_9  and  C_10
REMARK    4  A    between atoms: C_14  and  C_15
REMARK    5  A    between atoms: C_15  and  N_16
REMARK                            x       y       z     vdW  Elec       q    Type
REMARK                         _______ _______ _______ _____ _____    ______ ____
ROOT
ATOM      1  C   UNL     1      46.831   8.064  12.929  0.00  0.00    +0.000 A 
ATOM      2  C   UNL     1      46.993   6.779  13.461  0.00  0.00    +0.000 A 
ATOM      3  C   UNL     1      46.196   5.712  12.985  0.00  0.00    +0.000 A 
ATOM      4  C   UNL     1      46.126   4.338  13.327  0.00  0.00    +0.000 A 
ATOM      5  C   UNL     1      45.187   3.753  12.515  0.00  0.00    +0.000 A 
ATOM      6  N   UNL     1      44.670   4.714  11.676  0.00  0.00    +0.000 N 
ATOM      7  C   UNL     1      45.242   5.945  11.979  0.00  0.00    +0.000 A 
ATOM      8  C   UNL     1      45.038   7.244  11.477  0.00  0.00    +0.000 A 
ATOM      9  C   UNL     1      45.860   8.277  11.955  0.00  0.00    +0.000 A 
ATOM     10  F   UNL     1      45.699   9.506  11.436  0.00  0.00    +0.000 F 
ENDROOT
BRANCH   1  12
ATOM     11  N   UNL     1      48.329  10.034  13.722  0.00  0.00    +0.000 NA
ATOM     12  C   UNL     1      47.659   9.142  13.382  0.00  0.00    +0.000 C 
ENDBRANCH   1  12
BRANCH   6  13
ATOM     13  C   UNL     1      43.778   4.372  10.561  0.00  0.00    +0.000 C 
BRANCH  13  14
ATOM     14  C   UNL     1      44.465   3.515   9.527  0.00  0.00    +0.000 A 
ATOM     15  C   UNL     1      44.363   2.120   9.585  0.00  0.00    +0.000 A 
ATOM     16  C   UNL     1      45.158   1.324   8.762  0.00  0.00    +0.000 A 
ATOM     17  C   UNL     1      46.039   1.914   7.855  0.00  0.00    +0.000 A 
ATOM     18  C   UNL     1      46.092   3.308   7.706  0.00  0.00    +0.000 A 
ATOM     19  C   UNL     1      45.293   4.097   8.548  0.00  0.00    +0.000 A 
BRANCH  18  20
ATOM     20  C   UNL     1      47.109   3.914   6.767  0.00  0.00    +0.000 C 
BRANCH  20  21
ATOM     21  N   UNL     1      47.167   3.264   5.461  0.00  0.00    +0.000 NA
ATOM     22  H   UNL     1      46.235   2.929   5.222  0.00  0.00    +0.000 HD
ATOM     23  H   UNL     1      47.754   2.435   5.536  0.00  0.00    +0.000 HD
ENDBRANCH  20  21
ENDBRANCH  18  20
ENDBRANCH  13  14
ENDBRANCH   6  13
TORSDOF 5
ENDMDL
MODEL 5
REMARK VINA RESULT:    -5.822      3.387      5.404
REMARK INTER + INTRA:          -7.756
REMARK INTER:                  -7.109
REMARK INTRA:                  -0.647
REMARK UNBOUND:                -0.402
REMARK  Name = 
REMARK  5 active torsions:
REMARK  status: ('A' for Active; 'I' for Inactive)
REMARK    1  A    between atoms: C_2  and  C_3
REMARK    2  A    between atoms: N_8  and  C_9
REMARK    3  A    between atoms: C_9  and  C_10
REMARK    4  A    between atoms: C_14  and  C_15
REMARK    5  A    between atoms: C_15  and  N_16
REMARK                            x       y       z     vdW  Elec       q    Type
REMARK                         _______ _______ _______ _____ _____    ______ ____
ROOT
ATOM      1  C   UNL     1      50.329   9.479  11.202  0.00  0.00    +0.000 A 
ATOM      2  C   UNL     1      49.156  10.206  11.444  0.00  0.00    +0.000 A 
ATOM      3  C   UNL     1      47.995   9.539  11.900  0.00  0.00    +0.000 A 
ATOM      4  C   UNL     1      46.689   9.992  12.216  0.00  0.00    +0.000 A 
ATOM      5  C   UNL     1      45.964   8.910  12.647  0.00  0.00    +0.000 A 
ATOM      6  N   UNL     1      46.774   7.796  12.613  0.00  0.00    +0.000 N 
ATOM      7  C   UNL     1      48.021   8.150  12.109  0.00  0.00    +0.000 A 
ATOM      8  C   UNL     1      49.181   7.407  11.819  0.00  0.00    +0.000 A 
ATOM      9  C   UNL     1      50.323   8.100  11.387  0.00  0.00    +0.000 A 
ATOM     10  F   UNL     1      51.444   7.395  11.161  0.00  0.00    +0.000 F 
ENDROOT
BRANCH   1  12
ATOM     11  N   UNL     1      52.468  10.721  10.405  0.00  0.00    +0.000 NA
ATOM     12  C   UNL     1      51.518  10.153  10.773  0.00  0.00    +0.000 C 
ENDBRANCH   1  12
BRANCH   6  13
ATOM     13  C   UNL     1      46.352   6.513  13.189  0.00  0.00    +0.000 C 
BRANCH  13  14
ATOM     14  C   UNL     1      45.237   5.876  12.400  0.00  0.00    +0.000 A 
ATOM     15  C   UNL     1      44.011   5.590  13.012  0.00  0.00    +0.000 A 
ATOM     16  C   UNL     1      43.058   4.820  12.348  0.00  0.00    +0.000 A 
ATOM     17  C   UNL     1      43.308   4.353  11.058  0.00  0.00    +0.000 A 
ATOM     18  C   UNL     1      44.485   4.705  10.381  0.00  0.00    +0.000 A 
ATOM     19  C   UNL     1      45.441   5.473  11.066  0.00  0.00    +0.000 A 
BRANCH  18  20
ATOM     20  C   UNL     1      44.756   4.122   9.014  0.00  0.00    +0.000 C 
BRANCH  20  21
ATOM     21  N   UNL     1      45.731   4.880   8.233  0.00  0.00    +0.000 NA
ATOM     22  H   UNL     1      46.413   5.288   8.870  0.00  0.00    +0.000 HD
ATOM     23  H   UNL     1      45.253   5.663   7.790  0.00  0.00    +0.000 HD
ENDBRANCH  20  21
ENDBRANCH  18  20
ENDBRANCH  13  14
ENDBRANCH   6  13
TORSDOF 5
ENDMDL
MODEL 6
REMARK VINA RESULT:    -5.819      3.413      8.107
REMARK INTER + INTRA:          -7.752
REMARK INTER:                  -7.303
REMARK INTRA:                  -0.449
REMARK UNBOUND:                -0.402
REMARK  Name = 
REMARK  5 active torsions:
REMARK  status: ('A' for Active; 'I' for Inactive)
REMARK    1  A    between atoms: C_2  and  C_3
REMARK    2  A    between atoms: N_8  and  C_9
REMARK    3  A    between atoms: C_9  and  C_10
REMARK    4  A    between atoms: C_14  and  C_15
REMARK    5  A    between atoms: C_15  and  N_16
REMARK                            x       y       z     vdW  Elec       q    Type
REMARK                         _______ _______ _______ _____ _____    ______ ____
ROOT
ATOM      1  C   UNL     1      45.141   4.914  11.877  0.00  0.00    +0.000 A 
ATOM      2  C   UNL     1      45.188   6.313  11.836  0.00  0.00    +0.000 A 
ATOM      3  C   UNL     1      46.121   7.012  12.636  0.00  0.00    +0.000 A 
ATOM      4  C   UNL     1      46.393   8.392  12.811  0.00  0.00    +0.000 A 
ATOM      5  C   UNL     1      47.438   8.504  13.693  0.00  0.00    +0.000 A 
ATOM      6  N   UNL     1      47.830   7.239  14.073  0.00  0.00    +0.000 N 
ATOM      7  C   UNL     1      47.000   6.301  13.472  0.00  0.00    +0.000 A 
ATOM      8  C   UNL     1      46.924   4.898  13.556  0.00  0.00    +0.000 A 
ATOM      9  C   UNL     1      46.000   4.232  12.733  0.00  0.00    +0.000 A 
ATOM     10  F   UNL     1      45.966   2.890  12.778  0.00  0.00    +0.000 F 
ENDROOT
BRANCH   1  12
ATOM     11  N   UNL     1      43.448   3.632  10.380  0.00  0.00    +0.000 NA
ATOM     12  C   UNL     1      44.222   4.199  11.044  0.00  0.00    +0.000 C 
ENDBRANCH   1  12
BRANCH   6  13
ATOM     13  C   UNL     1      49.045   7.010  14.866  0.00  0.00    +0.000 C 
BRANCH  13  14
ATOM     14  C   UNL     1      48.729   6.594  16.281  0.00  0.00    +0.000 A 
ATOM     15  C   UNL     1      48.885   7.500  17.336  0.00  0.00    +0.000 A 
ATOM     16  C   UNL     1      48.794   7.063  18.656  0.00  0.00    +0.000 A 
ATOM     17  C   UNL     1      48.518   5.724  18.934  0.00  0.00    +0.000 A 
ATOM     18  C   UNL     1      48.260   4.813  17.899  0.00  0.00    +0.000 A 
ATOM     19  C   UNL     1      48.365   5.265  16.574  0.00  0.00    +0.000 A 
BRANCH  18  20
ATOM     20  C   UNL     1      48.036   3.356  18.233  0.00  0.00    +0.000 C 
BRANCH  20  21
ATOM     21  N   UNL     1      46.761   2.831  17.752  0.00  0.00    +0.000 NA
ATOM     22  H   UNL     1      46.043   3.541  17.887  0.00  0.00    +0.000 HD
ATOM     23  H   UNL     1      46.493   2.043  18.340  0.00  0.00    +0.000 HD
ENDBRANCH  20  21
ENDBRANCH  18  20
ENDBRANCH  13  14
ENDBRANCH   6  13
TORSDOF 5
ENDMDL
MODEL 7
REMARK VINA RESULT:    -5.699      3.574      6.551
REMARK INTER + INTRA:          -7.600
REMARK INTER:                  -7.027
REMARK INTRA:                  -0.573
REMARK UNBOUND:                -0.402
REMARK  Name = 
REMARK  5 active torsions:
REMARK  status: ('A' for Active; 'I' for Inactive)
REMARK    1  A    between atoms: C_2  and  C_3
REMARK    2  A    between atoms: N_8  and  C_9
REMARK    3  A    between atoms: C_9  and  C_10
REMARK    4  A    between atoms: C_14  and  C_15
REMARK    5  A    between atoms: C_15  and  N_16
REMARK                            x       y       z     vdW  Elec       q    Type
REMARK                         _______ _______ _______ _____ _____    ______ ____
ROOT
ATOM      1  C   UNL     1      44.869   4.178  11.942  0.00  0.00    +0.000 A 
ATOM      2  C   UNL     1      45.622   4.290  13.119  0.00  0.00    +0.000 A 
ATOM      3  C   UNL     1      46.582   5.320  13.248  0.00  0.00    +0.000 A 
ATOM      4  C   UNL     1      47.478   5.673  14.288  0.00  0.00    +0.000 A 
ATOM      5  C   UNL     1      48.163   6.792  13.888  0.00  0.00    +0.000 A 
ATOM      6  N   UNL     1      47.723   7.152  12.633  0.00  0.00    +0.000 N 
ATOM      7  C   UNL     1      46.780   6.229  12.195  0.00  0.00    +0.000 A 
ATOM      8  C   UNL     1      46.064   6.092  10.990  0.00  0.00    +0.000 A 
ATOM      9  C   UNL     1      45.103   5.072  10.901  0.00  0.00    +0.000 A 
ATOM     10  F   UNL     1      44.385   4.976   9.770  0.00  0.00    +0.000 F 
ENDROOT
BRANCH   1  12
ATOM     11  N   UNL     1      43.079   2.311  11.698  0.00  0.00    +0.000 NA
ATOM     12  C   UNL     1      43.872   3.158  11.818  0.00  0.00    +0.000 C 
ENDBRANCH   1  12
BRANCH   6  13
ATOM     13  C   UNL     1      48.125   8.416  12.003  0.00  0.00    +0.000 C 
BRANCH  13  14
ATOM     14  C   UNL     1      49.623   8.532  11.871  0.00  0.00    +0.000 A 
ATOM     15  C   UNL     1      50.306   9.595  12.475  0.00  0.00    +0.000 A 
ATOM     16  C   UNL     1      51.650   9.820  12.185  0.00  0.00    +0.000 A 
ATOM     17  C   UNL     1      52.332   8.970  11.314  0.00  0.00    +0.000 A 
ATOM     18  C   UNL     1      51.702   7.840  10.770  0.00  0.00    +0.000 A 
ATOM     19  C   UNL     1      50.344   7.632  11.063  0.00  0.00    +0.000 A 
BRANCH  18  20
ATOM     20  C   UNL     1      52.447   6.983   9.775  0.00  0.00    +0.000 C 
BRANCH  20  21
ATOM     21  N   UNL     1      53.234   5.916  10.388  0.00  0.00    +0.000 NA
ATOM     22  H   UNL     1      53.168   5.084   9.803  0.00  0.00    +0.000 HD
ATOM     23  H   UNL     1      52.806   5.669  11.279  0.00  0.00    +0.000 HD
ENDBRANCH  20  21
ENDBRANCH  18  20
ENDBRANCH  13  14
ENDBRANCH   6  13
TORSDOF 5
ENDMDL
MODEL 8
REMARK VINA RESULT:    -5.480      3.813      8.389
REMARK INTER + INTRA:          -7.324
REMARK INTER:                  -6.675
REMARK INTRA:                  -0.648
REMARK UNBOUND:                -0.402
REMARK  Name = 
REMARK  5 active torsions:
REMARK  status: ('A' for Active; 'I' for Inactive)
REMARK    1  A    between atoms: C_2  and  C_3
REMARK    2  A    between atoms: N_8  and  C_9
REMARK    3  A    between atoms: C_9  and  C_10
REMARK    4  A    between atoms: C_14  and  C_15
REMARK    5  A    between atoms: C_15  and  N_16
REMARK                            x       y       z     vdW  Elec       q    Type
REMARK                         _______ _______ _______ _____ _____    ______ ____
ROOT
ATOM      1  C   UNL     1      44.704   4.523  12.259  0.00  0.00    +0.000 A 
ATOM      2  C   UNL     1      44.394   5.882  12.116  0.00  0.00    +0.000 A 
ATOM      3  C   UNL     1      45.305   6.865  12.567  0.00  0.00    +0.000 A 
ATOM      4  C   UNL     1      45.266   8.282  12.567  0.00  0.00    +0.000 A 
ATOM      5  C   UNL     1      46.447   8.733  13.102  0.00  0.00    +0.000 A 
ATOM      6  N   UNL     1      47.223   7.644  13.433  0.00  0.00    +0.000 N 
ATOM      7  C   UNL     1      46.520   6.477  13.158  0.00  0.00    +0.000 A 
ATOM      8  C   UNL     1      46.815   5.114  13.350  0.00  0.00    +0.000 A 
ATOM      9  C   UNL     1      45.899   4.162  12.873  0.00  0.00    +0.000 A 
ATOM     10  F   UNL     1      46.208   2.862  13.012  0.00  0.00    +0.000 F 
ENDROOT
BRANCH   1  12
ATOM     11  N   UNL     1      43.066   2.724  11.349  0.00  0.00    +0.000 NA
ATOM     12  C   UNL     1      43.802   3.523  11.774  0.00  0.00    +0.000 C 
ENDBRANCH   1  12
BRANCH   6  13
ATOM     13  C   UNL     1      48.622   7.789  13.856  0.00  0.00    +0.000 C 
BRANCH  13  14
ATOM     14  C   UNL     1      48.766   7.774  15.357  0.00  0.00    +0.000 A 
ATOM     15  C   UNL     1      48.856   6.559  16.046  0.00  0.00    +0.000 A 
ATOM     16  C   UNL     1      48.782   6.534  17.437  0.00  0.00    +0.000 A 
ATOM     17  C   UNL     1      48.646   7.724  18.154  0.00  0.00    +0.000 A 
ATOM     18  C   UNL     1      48.652   8.964  17.498  0.00  0.00    +0.000 A 
ATOM     19  C   UNL     1      48.718   8.973  16.095  0.00  0.00    +0.000 A 
BRANCH  18  20
ATOM     20  C   UNL     1      48.430  10.226  18.297  0.00  0.00    +0.000 C 
BRANCH  20  21
ATOM     21  N   UNL     1      47.558  11.195  17.639  0.00  0.00    +0.000 NA
ATOM     22  H   UNL     1      48.070  12.067  17.520  0.00  0.00    +0.000 HD
ATOM     23  H   UNL     1      46.780  11.407  18.262  0.00  0.00    +0.000 HD
ENDBRANCH  20  21
ENDBRANCH  18  20
ENDBRANCH  13  14
ENDBRANCH   6  13
TORSDOF 5
ENDMDL
MODEL 9
REMARK VINA RESULT:    -5.344      3.808      7.913
REMARK INTER + INTRA:          -7.152
REMARK INTER:                  -6.537
REMARK INTRA:                  -0.615
REMARK UNBOUND:                -0.402
REMARK  Name = 
REMARK  5 active torsions:
REMARK  status: ('A' for Active; 'I' for Inactive)
REMARK    1  A    between atoms: C_2  and  C_3
REMARK    2  A    between atoms: N_8  and  C_9
REMARK    3  A    between atoms: C_9  and  C_10
REMARK    4  A    between atoms: C_14  and  C_15
REMARK    5  A    between atoms: C_15  and  N_16
REMARK                            x       y       z     vdW  Elec       q    Type
REMARK                         _______ _______ _______ _____ _____    ______ ____
ROOT
ATOM      1  C   UNL     1      44.519   4.317  12.039  0.00  0.00    +0.000 A 
ATOM      2  C   UNL     1      44.158   5.629  11.708  0.00  0.00    +0.000 A 
ATOM      3  C   UNL     1      45.017   6.703  12.040  0.00  0.00    +0.000 A 
ATOM      4  C   UNL     1      44.922   8.104  11.847  0.00  0.00    +0.000 A 
ATOM      5  C   UNL     1      46.070   8.672  12.338  0.00  0.00    +0.000 A 
ATOM      6  N   UNL     1      46.881   7.673  12.829  0.00  0.00    +0.000 N 
ATOM      7  C   UNL     1      46.231   6.450  12.701  0.00  0.00    +0.000 A 
ATOM      8  C   UNL     1      46.577   5.140  13.081  0.00  0.00    +0.000 A 
ATOM      9  C   UNL     1      45.712   4.094  12.720  0.00  0.00    +0.000 A 
ATOM     10  F   UNL     1      46.070   2.838  13.039  0.00  0.00    +0.000 F 
ENDROOT
BRANCH   1  12
ATOM     11  N   UNL     1      43.004   2.315  11.369  0.00  0.00    +0.000 NA
ATOM     12  C   UNL     1      43.670   3.222  11.677  0.00  0.00    +0.000 C 
ENDBRANCH   1  12
BRANCH   6  13
ATOM     13  C   UNL     1      48.262   7.934  13.255  0.00  0.00    +0.000 C 
BRANCH  13  14
ATOM     14  C   UNL     1      48.413   7.882  14.754  0.00  0.00    +0.000 A 
ATOM     15  C   UNL     1      48.277   9.046  15.520  0.00  0.00    +0.000 A 
ATOM     16  C   UNL     1      48.617   9.041  16.871  0.00  0.00    +0.000 A 
ATOM     17  C   UNL     1      49.068   7.867  17.476  0.00  0.00    +0.000 A 
ATOM     18  C   UNL     1      49.121   6.663  16.760  0.00  0.00    +0.000 A 
ATOM     19  C   UNL     1      48.785   6.685  15.397  0.00  0.00    +0.000 A 
BRANCH  18  20
ATOM     20  C   UNL     1      49.683   5.429  17.427  0.00  0.00    +0.000 C 
BRANCH  20  21
ATOM     21  N   UNL     1      50.123   5.650  18.802  0.00  0.00    +0.000 NA
ATOM     22  H   UNL     1      51.111   5.414  18.870  0.00  0.00    +0.000 HD
ATOM     23  H   UNL     1      49.633   4.995  19.409  0.00  0.00    +0.000 HD
ENDBRANCH  20  21
ENDBRANCH  18  20
ENDBRANCH  13  14
ENDBRANCH   6  13
TORSDOF 5
ENDMDL
