MODEL 1
REMARK VINA RESULT:    -9.202      0.000      0.000
REMARK INTER + INTRA:         -12.640
REMARK INTER:                 -11.892
REMARK INTRA:                  -0.748
REMARK UNBOUND:                -0.748
REMARK  Name = 
REMARK  5 active torsions:
REMARK  status: ('A' for Active; 'I' for Inactive)
REMARK    1  A    between atoms: C_2  and  C_4
REMARK    2  A    between atoms: C_7  and  C_8
REMARK    3  A    between atoms: C_8  and  C_9
REMARK    4  A    between atoms: C_9  and  C_10
REMARK    5  A    between atoms: C_14  and  C_15
REMARK                            x       y       z     vdW  Elec       q    Type
REMARK                         _______ _______ _______ _____ _____    ______ ____
ROOT
ATOM      1  C   UNL     1      43.939   4.732  11.524  0.00  0.00    +0.000 C 
ATOM      2  C   UNL     1      42.694   5.170  12.292  0.00  0.00    +0.000 C 
ATOM      3  C   UNL     1      43.075   5.894  11.041  0.00  0.00    +0.000 C 
ENDROOT
BRANCH   1   4
ATOM      4  C   UNL     1      45.278   5.065  12.183  0.00  0.00    +0.000 A 
ATOM      5  C   UNL     1      46.152   6.020  11.655  0.00  0.00    +0.000 A 
ATOM      6  C   UNL     1      47.304   6.345  12.349  0.00  0.00    +0.000 A 
ATOM      7  N   UNL     1      47.670   5.764  13.509  0.00  0.00    +0.000 NA
ATOM      8  C   UNL     1      46.854   4.803  14.020  0.00  0.00    +0.000 A 
ATOM      9  C   UNL     1      45.662   4.452  13.384  0.00  0.00    +0.000 A 
BRANCH   8  10
ATOM     10  C   UNL     1      47.293   4.153  15.278  0.00  0.00    +0.000 A 
ATOM     11  C   UNL     1      47.126   4.763  16.521  0.00  0.00    +0.000 A 
ATOM     12  C   UNL     1      47.568   4.112  17.672  0.00  0.00    +0.000 A 
ATOM     13  C   UNL     1      48.169   2.867  17.558  0.00  0.00    +0.000 A 
ATOM     14  C   UNL     1      48.300   2.322  16.295  0.00  0.00    +0.000 A 
ATOM     15  N   UNL     1      47.880   2.926  15.165  0.00  0.00    +0.000 NA
ENDBRANCH   8  10
ENDBRANCH   1   4
BRANCH   1  16
ATOM     16  C   UNL     1      43.815   3.355  10.884  0.00  0.00    +0.000 C 
BRANCH  16  20
ATOM     17  C   UNL     1      46.397   2.708   7.578  0.00  0.00    +0.000 A 
ATOM     18  C   UNL     1      45.938   4.000   7.791  0.00  0.00    +0.000 A 
ATOM     19  C   UNL     1      45.050   4.217   8.843  0.00  0.00    +0.000 A 
ATOM     20  C   UNL     1      44.659   3.146   9.654  0.00  0.00    +0.000 A 
ATOM     21  C   UNL     1      45.158   1.885   9.340  0.00  0.00    +0.000 A 
ATOM     22  N   UNL     1      46.015   1.634   8.324  0.00  0.00    +0.000 NA
BRANCH  17  24
ATOM     23  N   UNL     1      47.275   3.241   5.383  0.00  0.00    +0.000 N 
ATOM     24  C   UNL     1      47.391   2.439   6.488  0.00  0.00    +0.000 C 
ATOM     25  O   UNL     1      48.249   1.569   6.567  0.00  0.00    +0.000 OA
ATOM     26  H   UNL     1      47.913   3.126   4.611  0.00  0.00    +0.000 HD
ATOM     27  H   UNL     1      46.550   3.948   5.359  0.00  0.00    +0.000 HD
ENDBRANCH  17  24
ENDBRANCH  16  20
ENDBRANCH   1  16
TORSDOF 5
ENDMDL
MODEL 2
REMARK VINA RESULT:    -8.926      1.647      3.222
REMARK INTER + INTRA:         -12.283
REMARK INTER:                 -11.166
REMARK INTRA:                  -1.117
REMARK UNBOUND:                -0.748
REMARK  Name = 
REMARK  5 active torsions:
REMARK  status: ('A' for Active; 'I' for Inactive)
REMARK    1  A    between atoms: C_2  and  C_4
REMARK    2  A    between atoms: C_7  and  C_8
REMARK    3  A    between atoms: C_8  and  C_9
REMARK    4  A    between atoms: C_9  and  C_10
REMARK    5  A    between atoms: C_14  and  C_15
REMARK                            x       y       z     vdW  Elec       q    Type
REMARK                         _______ _______ _______ _____ _____    ______ ____
ROOT
ATOM      1  C   UNL     1      43.922   4.803  11.452  0.00  0.00    +0.000 C 
ATOM      2  C   UNL     1      42.715   5.410  12.165  0.00  0.00    +0.000 C 
ATOM      3  C   UNL     1      43.358   6.162  11.045  0.00  0.00    +0.000 C 
ENDROOT
BRANCH   1   4
ATOM      4  C   UNL     1      45.225   4.781  12.250  0.00  0.00    +0.000 A 
ATOM      5  C   UNL     1      45.585   3.701  13.061  0.00  0.00    +0.000 A 
ATOM      6  C   UNL     1      46.822   3.699  13.683  0.00  0.00    +0.000 A 
ATOM      7  N   UNL     1      47.710   4.708  13.588  0.00  0.00    +0.000 NA
ATOM      8  C   UNL     1      47.363   5.788  12.837  0.00  0.00    +0.000 A 
ATOM      9  C   UNL     1      46.143   5.837  12.160  0.00  0.00    +0.000 A 
BRANCH   8  10
ATOM     10  C   UNL     1      48.339   6.901  12.776  0.00  0.00    +0.000 A 
ATOM     11  C   UNL     1      48.255   7.904  11.809  0.00  0.00    +0.000 A 
ATOM     12  C   UNL     1      49.208   8.922  11.790  0.00  0.00    +0.000 A 
ATOM     13  C   UNL     1      50.225   8.918  12.733  0.00  0.00    +0.000 A 
ATOM     14  C   UNL     1      50.245   7.894  13.662  0.00  0.00    +0.000 A 
ATOM     15  N   UNL     1      49.336   6.898  13.708  0.00  0.00    +0.000 NA
ENDBRANCH   8  10
ENDBRANCH   1   4
BRANCH   1  16
ATOM     16  C   UNL     1      43.594   3.555  10.642  0.00  0.00    +0.000 C 
BRANCH  16  20
ATOM     17  C   UNL     1      46.446   2.685   7.620  0.00  0.00    +0.000 A 
ATOM     18  C   UNL     1      46.016   3.999   7.738  0.00  0.00    +0.000 A 
ATOM     19  C   UNL     1      45.042   4.289   8.693  0.00  0.00    +0.000 A 
ATOM     20  C   UNL     1      44.540   3.267   9.506  0.00  0.00    +0.000 A 
ATOM     21  C   UNL     1      45.020   1.978   9.289  0.00  0.00    +0.000 A 
ATOM     22  N   UNL     1      45.957   1.656   8.369  0.00  0.00    +0.000 NA
BRANCH  17  24
ATOM     23  N   UNL     1      47.592   3.147   5.536  0.00  0.00    +0.000 N 
ATOM     24  C   UNL     1      47.525   2.338   6.639  0.00  0.00    +0.000 C 
ATOM     25  O   UNL     1      48.298   1.402   6.800  0.00  0.00    +0.000 OA
ATOM     26  H   UNL     1      48.298   2.982   4.835  0.00  0.00    +0.000 HD
ATOM     27  H   UNL     1      46.932   3.910   5.442  0.00  0.00    +0.000 HD
ENDBRANCH  17  24
ENDBRANCH  16  20
ENDBRANCH   1  16
TORSDOF 5
ENDMDL
MODEL 3
REMARK VINA RESULT:    -8.169      2.823      7.424
REMARK INTER + INTRA:         -11.304
REMARK INTER:                 -10.709
REMARK INTRA:                  -0.595
REMARK UNBOUND:                -0.748
REMARK  Name = 
REMARK  5 active torsions:
REMARK  status: ('A' for Active; 'I' for Inactive)
REMARK    1  A    between atoms: C_2  and  C_4
REMARK    2  A    between atoms: C_7  and  C_8
REMARK    3  A    between atoms: C_8  and  C_9
REMARK    4  A    between atoms: C_9  and  C_10
REMARK    5  A    between atoms: C_14  and  C_15
REMARK                            x       y       z     vdW  Elec       q    Type
REMARK                         _______ _______ _______ _____ _____    ______ ____
ROOT
ATOM      1  C   UNL     1      46.081   7.401  12.189  0.00  0.00    +0.000 C 
ATOM      2  C   UNL     1      45.945   8.818  11.634  0.00  0.00    +0.000 C 
ATOM      3  C   UNL     1      45.334   8.488  12.957  0.00  0.00    +0.000 C 
ENDROOT
BRANCH   1   4
ATOM      4  C   UNL     1      45.252   6.327  11.485  0.00  0.00    +0.000 A 
ATOM      5  C   UNL     1      43.898   6.124  11.767  0.00  0.00    +0.000 A 
ATOM      6  C   UNL     1      43.179   5.202  11.028  0.00  0.00    +0.000 A 
ATOM      7  N   UNL     1      43.716   4.440  10.054  0.00  0.00    +0.000 NA
ATOM      8  C   UNL     1      45.042   4.592   9.789  0.00  0.00    +0.000 A 
ATOM      9  C   UNL     1      45.815   5.528  10.479  0.00  0.00    +0.000 A 
BRANCH   8  10
ATOM     10  C   UNL     1      45.618   3.720   8.740  0.00  0.00    +0.000 A 
ATOM     11  C   UNL     1      45.624   2.329   8.856  0.00  0.00    +0.000 A 
ATOM     12  C   UNL     1      46.191   1.557   7.843  0.00  0.00    +0.000 A 
ATOM     13  C   UNL     1      46.741   2.186   6.737  0.00  0.00    +0.000 A 
ATOM     14  C   UNL     1      46.698   3.567   6.688  0.00  0.00    +0.000 A 
ATOM     15  N   UNL     1      46.155   4.340   7.649  0.00  0.00    +0.000 NA
ENDBRANCH   8  10
ENDBRANCH   1   4
BRANCH   1  16
ATOM     16  C   UNL     1      47.508   7.024  12.571  0.00  0.00    +0.000 C 
BRANCH  16  20
ATOM     17  C   UNL     1      47.583   4.442  15.939  0.00  0.00    +0.000 A 
ATOM     18  C   UNL     1      48.320   5.615  16.013  0.00  0.00    +0.000 A 
ATOM     19  C   UNL     1      48.344   6.448  14.895  0.00  0.00    +0.000 A 
ATOM     20  C   UNL     1      47.626   6.093  13.749  0.00  0.00    +0.000 A 
ATOM     21  C   UNL     1      46.939   4.881  13.769  0.00  0.00    +0.000 A 
ATOM     22  N   UNL     1      46.899   4.044  14.829  0.00  0.00    +0.000 NA
BRANCH  17  24
ATOM     23  N   UNL     1      48.663   3.362  17.820  0.00  0.00    +0.000 N 
ATOM     24  C   UNL     1      47.492   3.541  17.134  0.00  0.00    +0.000 C 
ATOM     25  O   UNL     1      46.451   2.998  17.482  0.00  0.00    +0.000 OA
ATOM     26  H   UNL     1      48.679   2.776  18.641  0.00  0.00    +0.000 HD
ATOM     27  H   UNL     1      49.502   3.829  17.497  0.00  0.00    +0.000 HD
ENDBRANCH  17  24
ENDBRANCH  16  20
ENDBRANCH   1  16
TORSDOF 5
ENDMDL
MODEL 4
REMARK VINA RESULT:    -7.165      2.887      3.672
REMARK INTER + INTRA:         -10.007
REMARK INTER:                 -10.416
REMARK INTRA:                   0.408
REMARK UNBOUND:                -0.748
REMARK  Name = 
REMARK  5 active torsions:
REMARK  status: ('A' for Active; 'I' for Inactive)
REMARK    1  A    between atoms: C_2  and  C_4
REMARK    2  A    between atoms: C_7  and  C_8
REMARK    3  A    between atoms: C_8  and  C_9
REMARK    4  A    between atoms: C_9  and  C_10
REMARK    5  A    between atoms: C_14  and  C_15
REMARK                            x       y       z     vdW  Elec       q    Type
REMARK                         _______ _______ _______ _____ _____    ______ ____
ROOT
ATOM      1  C   UNL     1      44.391   4.957  11.576  0.00  0.00    +0.000 C 
ATOM      2  C   UNL     1      45.162   3.815  12.237  0.00  0.00    +0.000 C 
ATOM      3  C   UNL     1      43.911   4.323  12.879  0.00  0.00    +0.000 C 
ENDROOT
BRANCH   1   4
ATOM      4  C   UNL     1      45.048   6.335  11.652  0.00  0.00    +0.000 A 
ATOM      5  C   UNL     1      44.333   7.516  11.430  0.00  0.00    +0.000 A 
ATOM      6  C   UNL     1      44.962   8.736  11.608  0.00  0.00    +0.000 A 
ATOM      7  N   UNL     1      46.258   8.868  11.953  0.00  0.00    +0.000 NA
ATOM      8  C   UNL     1      46.984   7.731  12.135  0.00  0.00    +0.000 A 
ATOM      9  C   UNL     1      46.399   6.470  12.001  0.00  0.00    +0.000 A 
BRANCH   8  10
ATOM     10  C   UNL     1      48.415   7.900  12.479  0.00  0.00    +0.000 A 
ATOM     11  C   UNL     1      49.364   8.277  11.528  0.00  0.00    +0.000 A 
ATOM     12  C   UNL     1      50.700   8.409  11.904  0.00  0.00    +0.000 A 
ATOM     13  C   UNL     1      51.062   8.161  13.220  0.00  0.00    +0.000 A 
ATOM     14  C   UNL     1      50.069   7.793  14.108  0.00  0.00    +0.000 A 
ATOM     15  N   UNL     1      48.769   7.660  13.775  0.00  0.00    +0.000 NA
ENDBRANCH   8  10
ENDBRANCH   1   4
BRANCH   1  16
ATOM     16  C   UNL     1      43.748   4.577  10.247  0.00  0.00    +0.000 C 
BRANCH  16  20
ATOM     17  C   UNL     1      46.240   1.989   7.988  0.00  0.00    +0.000 A 
ATOM     18  C   UNL     1      46.336   3.350   7.739  0.00  0.00    +0.000 A 
ATOM     19  C   UNL     1      45.488   4.207   8.439  0.00  0.00    +0.000 A 
ATOM     20  C   UNL     1      44.584   3.684   9.369  0.00  0.00    +0.000 A 
ATOM     21  C   UNL     1      44.550   2.300   9.525  0.00  0.00    +0.000 A 
ATOM     22  N   UNL     1      45.351   1.436   8.860  0.00  0.00    +0.000 NA
BRANCH  17  24
ATOM     23  N   UNL     1      46.922  -0.291   7.528  0.00  0.00    +0.000 N 
ATOM     24  C   UNL     1      47.167   1.036   7.293  0.00  0.00    +0.000 C 
ATOM     25  O   UNL     1      48.080   1.405   6.565  0.00  0.00    +0.000 OA
ATOM     26  H   UNL     1      47.497  -0.992   7.088  0.00  0.00    +0.000 HD
ATOM     27  H   UNL     1      46.156  -0.552   8.138  0.00  0.00    +0.000 HD
ENDBRANCH  17  24
ENDBRANCH  16  20
ENDBRANCH   1  16
TORSDOF 5
ENDMDL
MODEL 5
REMARK VINA RESULT:    -7.046      2.976      4.542
REMARK INTER + INTRA:          -9.853
REMARK INTER:                  -8.988
REMARK INTRA:                  -0.865
REMARK UNBOUND:                -0.748
REMARK  Name = 
REMARK  5 active torsions:
REMARK  status: ('A' for Active; 'I' for Inactive)
REMARK    1  A    between atoms: C_2  and  C_4
REMARK    2  A    between atoms: C_7  and  C_8
REMARK    3  A    between atoms: C_8  and  C_9
REMARK    4  A    between atoms: C_9  and  C_10
REMARK    5  A    between atoms: C_14  and  C_15
REMARK                            x       y       z     vdW  Elec       q    Type
REMARK                         _______ _______ _______ _____ _____    ______ ____
ROOT
ATOM      1  C   UNL     1      47.841   8.054  12.524  0.00  0.00    +0.000 C 
ATOM      2  C   UNL     1      48.620   9.125  11.762  0.00  0.00    +0.000 C 
ATOM      3  C   UNL     1      48.904   7.682  11.494  0.00  0.00    +0.000 C 
ENDROOT
BRANCH   1   4
ATOM      4  C   UNL     1      48.195   7.901  14.003  0.00  0.00    +0.000 A 
ATOM      5  C   UNL     1      48.286   8.996  14.867  0.00  0.00    +0.000 A 
ATOM      6  C   UNL     1      48.516   8.783  16.215  0.00  0.00    +0.000 A 
ATOM      7  N   UNL     1      48.699   7.565  16.760  0.00  0.00    +0.000 NA
ATOM      8  C   UNL     1      48.655   6.487  15.932  0.00  0.00    +0.000 A 
ATOM      9  C   UNL     1      48.396   6.633  14.567  0.00  0.00    +0.000 A 
BRANCH   8  10
ATOM     10  C   UNL     1      48.894   5.160  16.547  0.00  0.00    +0.000 A 
ATOM     11  C   UNL     1      47.876   4.216  16.685  0.00  0.00    +0.000 A 
ATOM     12  C   UNL     1      48.153   2.988  17.283  0.00  0.00    +0.000 A 
ATOM     13  C   UNL     1      49.440   2.726  17.731  0.00  0.00    +0.000 A 
ATOM     14  C   UNL     1      50.399   3.707  17.560  0.00  0.00    +0.000 A 
ATOM     15  N   UNL     1      50.161   4.903  16.983  0.00  0.00    +0.000 NA
ENDBRANCH   8  10
ENDBRANCH   1   4
BRANCH   1  16
ATOM     16  C   UNL     1      46.361   7.997  12.165  0.00  0.00    +0.000 C 
BRANCH  16  20
ATOM     17  C   UNL     1      44.624   4.205  11.379  0.00  0.00    +0.000 A 
ATOM     18  C   UNL     1      44.637   4.644  12.695  0.00  0.00    +0.000 A 
ATOM     19  C   UNL     1      45.249   5.866  12.974  0.00  0.00    +0.000 A 
ATOM     20  C   UNL     1      45.815   6.613  11.935  0.00  0.00    +0.000 A 
ATOM     21  C   UNL     1      45.771   6.070  10.654  0.00  0.00    +0.000 A 
ATOM     22  N   UNL     1      45.194   4.886  10.345  0.00  0.00    +0.000 NA
BRANCH  17  24
ATOM     23  N   UNL     1      44.460   2.252   9.954  0.00  0.00    +0.000 N 
ATOM     24  C   UNL     1      43.935   2.920  11.028  0.00  0.00    +0.000 C 
ATOM     25  O   UNL     1      42.971   2.489  11.648  0.00  0.00    +0.000 OA
ATOM     26  H   UNL     1      44.056   1.375   9.663  0.00  0.00    +0.000 HD
ATOM     27  H   UNL     1      45.258   2.645   9.469  0.00  0.00    +0.000 HD
ENDBRANCH  17  24
ENDBRANCH  16  20
ENDBRANCH   1  16
TORSDOF 5
ENDMDL
MODEL 6
REMARK VINA RESULT:    -6.414      3.752      8.376
REMARK INTER + INTRA:          -9.037
REMARK INTER:                  -8.913
REMARK INTRA:                  -0.124
REMARK UNBOUND:                -0.748
REMARK  Name = 
REMARK  5 active torsions:
REMARK  status: ('A' for Active; 'I' for Inactive)
REMARK    1  A    between atoms: C_2  and  C_4
REMARK    2  A    between atoms: C_7  and  C_8
REMARK    3  A    between atoms: C_8  and  C_9
REMARK    4  A    between atoms: C_9  and  C_10
REMARK    5  A    between atoms: C_14  and  C_15
REMARK                            x       y       z     vdW  Elec       q    Type
REMARK                         _______ _______ _______ _____ _____    ______ ____
ROOT
ATOM      1  C   UNL     1      48.172   4.713  16.972  0.00  0.00    +0.000 C 
ATOM      2  C   UNL     1      47.072   4.812  18.028  0.00  0.00    +0.000 C 
ATOM      3  C   UNL     1      47.398   3.481  17.433  0.00  0.00    +0.000 C 
ENDROOT
BRANCH   1   4
ATOM      4  C   UNL     1      47.832   5.297  15.601  0.00  0.00    +0.000 A 
ATOM      5  C   UNL     1      48.500   6.409  15.077  0.00  0.00    +0.000 A 
ATOM      6  C   UNL     1      48.213   6.831  13.791  0.00  0.00    +0.000 A 
ATOM      7  N   UNL     1      47.286   6.253  13.001  0.00  0.00    +0.000 NA
ATOM      8  C   UNL     1      46.595   5.195  13.506  0.00  0.00    +0.000 A 
ATOM      9  C   UNL     1      46.860   4.702  14.785  0.00  0.00    +0.000 A 
BRANCH   8  10
ATOM     10  C   UNL     1      45.557   4.598  12.634  0.00  0.00    +0.000 A 
ATOM     11  C   UNL     1      45.435   4.942  11.288  0.00  0.00    +0.000 A 
ATOM     12  C   UNL     1      44.432   4.359  10.516  0.00  0.00    +0.000 A 
ATOM     13  C   UNL     1      43.569   3.444  11.103  0.00  0.00    +0.000 A 
ATOM     14  C   UNL     1      43.749   3.149  12.442  0.00  0.00    +0.000 A 
ATOM     15  N   UNL     1      44.712   3.695  13.212  0.00  0.00    +0.000 NA
ENDBRANCH   8  10
ENDBRANCH   1   4
BRANCH   1  16
ATOM     16  C   UNL     1      49.569   4.997  17.511  0.00  0.00    +0.000 C 
BRANCH  16  20
ATOM     17  C   UNL     1      52.239   1.704  17.705  0.00  0.00    +0.000 A 
ATOM     18  C   UNL     1      50.988   1.483  17.148  0.00  0.00    +0.000 A 
ATOM     19  C   UNL     1      50.084   2.544  17.123  0.00  0.00    +0.000 A 
ATOM     20  C   UNL     1      50.458   3.788  17.641  0.00  0.00    +0.000 A 
ATOM     21  C   UNL     1      51.728   3.897  18.201  0.00  0.00    +0.000 A 
ATOM     22  N   UNL     1      52.630   2.890  18.250  0.00  0.00    +0.000 NA
BRANCH  17  24
ATOM     23  N   UNL     1      52.936  -0.489  18.467  0.00  0.00    +0.000 N 
ATOM     24  C   UNL     1      53.259   0.604  17.708  0.00  0.00    +0.000 C 
ATOM     25  O   UNL     1      54.310   0.667  17.082  0.00  0.00    +0.000 OA
ATOM     26  H   UNL     1      53.568  -1.273  18.512  0.00  0.00    +0.000 HD
ATOM     27  H   UNL     1      52.056  -0.498  18.971  0.00  0.00    +0.000 HD
ENDBRANCH  17  24
ENDBRANCH  16  20
ENDBRANCH   1  16
TORSDOF 5
ENDMDL
MODEL 7
REMARK VINA RESULT:    -6.337      3.661      7.947
REMARK INTER + INTRA:          -8.937
REMARK INTER:                  -8.008
REMARK INTRA:                  -0.929
REMARK UNBOUND:                -0.748
REMARK  Name = 
REMARK  5 active torsions:
REMARK  status: ('A' for Active; 'I' for Inactive)
REMARK    1  A    between atoms: C_2  and  C_4
REMARK    2  A    between atoms: C_7  and  C_8
REMARK    3  A    between atoms: C_8  and  C_9
REMARK    4  A    between atoms: C_9  and  C_10
REMARK    5  A    between atoms: C_14  and  C_15
REMARK                            x       y       z     vdW  Elec       q    Type
REMARK                         _______ _______ _______ _____ _____    ______ ____
ROOT
ATOM      1  C   UNL     1      48.384   8.406  12.553  0.00  0.00    +0.000 C 
ATOM      2  C   UNL     1      49.006   9.490  11.675  0.00  0.00    +0.000 C 
ATOM      3  C   UNL     1      48.530   9.843  13.047  0.00  0.00    +0.000 C 
ENDROOT
BRANCH   1   4
ATOM      4  C   UNL     1      46.991   7.931  12.139  0.00  0.00    +0.000 A 
ATOM      5  C   UNL     1      45.837   8.668  12.421  0.00  0.00    +0.000 A 
ATOM      6  C   UNL     1      44.617   8.233  11.935  0.00  0.00    +0.000 A 
ATOM      7  N   UNL     1      44.454   7.101  11.222  0.00  0.00    +0.000 NA
ATOM      8  C   UNL     1      45.558   6.347  10.971  0.00  0.00    +0.000 A 
ATOM      9  C   UNL     1      46.822   6.748  11.407  0.00  0.00    +0.000 A 
BRANCH   8  10
ATOM     10  C   UNL     1      45.350   5.089  10.216  0.00  0.00    +0.000 A 
ATOM     11  C   UNL     1      44.816   3.948  10.815  0.00  0.00    +0.000 A 
ATOM     12  C   UNL     1      44.654   2.787  10.061  0.00  0.00    +0.000 A 
ATOM     13  C   UNL     1      45.029   2.787   8.726  0.00  0.00    +0.000 A 
ATOM     14  C   UNL     1      45.549   3.953   8.198  0.00  0.00    +0.000 A 
ATOM     15  N   UNL     1      45.715   5.092   8.901  0.00  0.00    +0.000 NA
ENDBRANCH   8  10
ENDBRANCH   1   4
BRANCH   1  16
ATOM     16  C   UNL     1      49.370   7.331  12.996  0.00  0.00    +0.000 C 
BRANCH  16  20
ATOM     17  C   UNL     1      48.539   5.967  16.928  0.00  0.00    +0.000 A 
ATOM     18  C   UNL     1      49.444   7.009  16.788  0.00  0.00    +0.000 A 
ATOM     19  C   UNL     1      49.764   7.433  15.499  0.00  0.00    +0.000 A 
ATOM     20  C   UNL     1      49.164   6.817  14.396  0.00  0.00    +0.000 A 
ATOM     21  C   UNL     1      48.288   5.763  14.645  0.00  0.00    +0.000 A 
ATOM     22  N   UNL     1      47.959   5.318  15.879  0.00  0.00    +0.000 NA
BRANCH  17  24
ATOM     23  N   UNL     1      46.794   5.256  18.452  0.00  0.00    +0.000 N 
ATOM     24  C   UNL     1      48.130   5.511  18.297  0.00  0.00    +0.000 C 
ATOM     25  O   UNL     1      48.925   5.372  19.218  0.00  0.00    +0.000 OA
ATOM     26  H   UNL     1      46.444   4.938  19.342  0.00  0.00    +0.000 HD
ATOM     27  H   UNL     1      46.171   5.386  17.663  0.00  0.00    +0.000 HD
ENDBRANCH  17  24
ENDBRANCH  16  20
ENDBRANCH   1  16
TORSDOF 5
ENDMDL
