MODEL 1
REMARK VINA RESULT:    -8.731      0.000      0.000
REMARK INTER + INTRA:         -10.778
REMARK INTER:                 -10.773
REMARK INTRA:                  -0.005
REMARK UNBOUND:                -0.005
REMARK  Name = 
REMARK  4 active torsions:
REMARK  status: ('A' for Active; 'I' for Inactive)
REMARK    1  A    between atoms: C_2  and  C_4
REMARK    2  A    between atoms: C_7  and  N_8
REMARK    3  A    between atoms: N_8  and  C_9
REMARK    4  A    between atoms: C_9  and  C_10
REMARK                            x       y       z     vdW  Elec       q    Type
REMARK                         _______ _______ _______ _____ _____    ______ ____
ROOT
ATOM      1  N   UNL     1      43.888   4.718  10.100  0.00  0.00    +0.000 N 
ATOM      2  H   UNL     1      42.946   4.865   9.750  0.00  0.00    +0.000 HD
ENDROOT
BRANCH   1   6
ATOM      3  C   UNL     1      46.383   2.305   7.814  0.00  0.00    +0.000 A 
ATOM      4  C   UNL     1      46.405   3.674   7.604  0.00  0.00    +0.000 A 
ATOM      5  C   UNL     1      45.549   4.468   8.366  0.00  0.00    +0.000 A 
ATOM      6  C   UNL     1      44.691   3.886   9.305  0.00  0.00    +0.000 A 
ATOM      7  C   UNL     1      44.741   2.501   9.427  0.00  0.00    +0.000 A 
ATOM      8  N   UNL     1      45.561   1.687   8.709  0.00  0.00    +0.000 NA
BRANCH   3  10
ATOM      9  N   UNL     1      48.425   2.058   6.535  0.00  0.00    +0.000 N 
ATOM     10  C   UNL     1      47.331   1.426   7.052  0.00  0.00    +0.000 C 
ATOM     11  O   UNL     1      47.131   0.227   6.893  0.00  0.00    +0.000 OA
ATOM     12  H   UNL     1      49.078   1.540   5.969  0.00  0.00    +0.000 HD
ATOM     13  H   UNL     1      48.534   3.056   6.674  0.00  0.00    +0.000 HD
ENDBRANCH   3  10
ENDBRANCH   1   6
BRANCH   1  14
ATOM     14  C   UNL     1      44.067   4.898  11.559  0.00  0.00    +0.000 C 
ATOM     15  C   UNL     1      42.864   5.146  12.458  0.00  0.00    +0.000 C 
ATOM     16  C   UNL     1      43.463   3.786  12.411  0.00  0.00    +0.000 C 
ATOM     17  F   UNL     1      42.713   2.809  11.775  0.00  0.00    +0.000 F 
BRANCH  14  18
ATOM     18  C   UNL     1      45.448   5.436  11.975  0.00  0.00    +0.000 A 
ATOM     19  C   UNL     1      46.064   6.525  11.325  0.00  0.00    +0.000 A 
ATOM     20  C   UNL     1      47.293   7.040  11.749  0.00  0.00    +0.000 A 
ATOM     21  C   UNL     1      47.951   6.445  12.813  0.00  0.00    +0.000 A 
ATOM     22  F   UNL     1      49.119   6.948  13.233  0.00  0.00    +0.000 F 
ATOM     23  C   UNL     1      47.412   5.336  13.445  0.00  0.00    +0.000 A 
ATOM     24  C   UNL     1      46.171   4.842  13.031  0.00  0.00    +0.000 A 
ENDBRANCH  14  18
ENDBRANCH   1  14
TORSDOF 4
ENDMDL
MODEL 2
REMARK VINA RESULT:    -7.866      3.775      6.178
REMARK INTER + INTRA:          -9.710
REMARK INTER:                  -9.285
REMARK INTRA:                  -0.425
REMARK UNBOUND:                -0.005
REMARK  Name = 
REMARK  4 active torsions:
REMARK  status: ('A' for Active; 'I' for Inactive)
REMARK    1  A    between atoms: C_2  and  C_4
REMARK    2  A    between atoms: C_7  and  N_8
REMARK    3  A    between atoms: N_8  and  C_9
REMARK    4  A    between atoms: C_9  and  C_10
REMARK                            x       y       z     vdW  Elec       q    Type
REMARK                         _______ _______ _______ _____ _____    ______ ____
ROOT
ATOM      1  N   UNL     1      45.624   5.398  11.514  0.00  0.00    +0.000 N 
ATOM      2  H   UNL     1      46.137   6.090  10.974  0.00  0.00    +0.000 HD
ENDROOT
BRANCH   1   6
ATOM      3  C   UNL     1      47.401   4.195  15.074  0.00  0.00    +0.000 A 
ATOM      4  C   UNL     1      47.280   5.551  14.814  0.00  0.00    +0.000 A 
ATOM      5  C   UNL     1      46.699   5.938  13.608  0.00  0.00    +0.000 A 
ATOM      6  C   UNL     1      46.263   4.976  12.691  0.00  0.00    +0.000 A 
ATOM      7  C   UNL     1      46.444   3.643  13.046  0.00  0.00    +0.000 A 
ATOM      8  N   UNL     1      47.002   3.219  14.211  0.00  0.00    +0.000 NA
BRANCH   3  10
ATOM      9  N   UNL     1      47.081   3.141  17.231  0.00  0.00    +0.000 N 
ATOM     10  C   UNL     1      47.970   3.742  16.386  0.00  0.00    +0.000 C 
ATOM     11  O   UNL     1      49.147   3.912  16.685  0.00  0.00    +0.000 OA
ATOM     12  H   UNL     1      47.382   2.857  18.150  0.00  0.00    +0.000 HD
ATOM     13  H   UNL     1      46.113   3.046  16.948  0.00  0.00    +0.000 HD
ENDBRANCH   3  10
ENDBRANCH   1   6
BRANCH   1  14
ATOM     14  C   UNL     1      44.656   4.577  10.753  0.00  0.00    +0.000 C 
ATOM     15  C   UNL     1      43.408   4.031  11.430  0.00  0.00    +0.000 C 
ATOM     16  C   UNL     1      43.290   5.228  10.557  0.00  0.00    +0.000 C 
ATOM     17  F   UNL     1      43.042   6.432  11.200  0.00  0.00    +0.000 F 
BRANCH  14  18
ATOM     18  C   UNL     1      45.258   3.824   9.552  0.00  0.00    +0.000 A 
ATOM     19  C   UNL     1      45.884   4.489   8.477  0.00  0.00    +0.000 A 
ATOM     20  C   UNL     1      46.476   3.792   7.420  0.00  0.00    +0.000 A 
ATOM     21  C   UNL     1      46.419   2.408   7.400  0.00  0.00    +0.000 A 
ATOM     22  F   UNL     1      47.003   1.737   6.398  0.00  0.00    +0.000 F 
ATOM     23  C   UNL     1      45.764   1.713   8.404  0.00  0.00    +0.000 A 
ATOM     24  C   UNL     1      45.194   2.417   9.470  0.00  0.00    +0.000 A 
ENDBRANCH  14  18
ENDBRANCH   1  14
TORSDOF 4
ENDMDL
MODEL 3
REMARK VINA RESULT:    -7.798      3.854      6.485
REMARK INTER + INTRA:          -9.626
REMARK INTER:                  -9.183
REMARK INTRA:                  -0.443
REMARK UNBOUND:                -0.005
REMARK  Name = 
REMARK  4 active torsions:
REMARK  status: ('A' for Active; 'I' for Inactive)
REMARK    1  A    between atoms: C_2  and  C_4
REMARK    2  A    between atoms: C_7  and  N_8
REMARK    3  A    between atoms: N_8  and  C_9
REMARK    4  A    between atoms: C_9  and  C_10
REMARK                            x       y       z     vdW  Elec       q    Type
REMARK                         _______ _______ _______ _____ _____    ______ ____
ROOT
ATOM      1  N   UNL     1      44.871   6.205  10.691  0.00  0.00    +0.000 N 
ATOM      2  H   UNL     1      44.920   6.630   9.769  0.00  0.00    +0.000 HD
ENDROOT
BRANCH   1   6
ATOM      3  C   UNL     1      47.271   8.118  13.494  0.00  0.00    +0.000 A 
ATOM      4  C   UNL     1      47.756   6.983  12.865  0.00  0.00    +0.000 A 
ATOM      5  C   UNL     1      46.932   6.343  11.941  0.00  0.00    +0.000 A 
ATOM      6  C   UNL     1      45.651   6.836  11.674  0.00  0.00    +0.000 A 
ATOM      7  C   UNL     1      45.258   7.974  12.371  0.00  0.00    +0.000 A 
ATOM      8  N   UNL     1      46.029   8.634  13.277  0.00  0.00    +0.000 NA
BRANCH   3  10
ATOM      9  N   UNL     1      47.591   9.137  15.667  0.00  0.00    +0.000 N 
ATOM     10  C   UNL     1      48.151   8.865  14.452  0.00  0.00    +0.000 C 
ATOM     11  O   UNL     1      49.288   9.218  14.161  0.00  0.00    +0.000 OA
ATOM     12  H   UNL     1      48.107   9.680  16.343  0.00  0.00    +0.000 HD
ATOM     13  H   UNL     1      46.639   8.845  15.853  0.00  0.00    +0.000 HD
ENDBRANCH   3  10
ENDBRANCH   1   6
BRANCH   1  14
ATOM     14  C   UNL     1      44.494   4.774  10.721  0.00  0.00    +0.000 C 
ATOM     15  C   UNL     1      44.108   4.105  12.033  0.00  0.00    +0.000 C 
ATOM     16  C   UNL     1      43.036   4.511  11.086  0.00  0.00    +0.000 C 
ATOM     17  F   UNL     1      42.255   5.590  11.473  0.00  0.00    +0.000 F 
BRANCH  14  18
ATOM     18  C   UNL     1      45.102   3.927   9.588  0.00  0.00    +0.000 A 
ATOM     19  C   UNL     1      45.701   4.503   8.449  0.00  0.00    +0.000 A 
ATOM     20  C   UNL     1      46.300   3.724   7.455  0.00  0.00    +0.000 A 
ATOM     21  C   UNL     1      46.275   2.343   7.563  0.00  0.00    +0.000 A 
ATOM     22  F   UNL     1      46.864   1.595   6.621  0.00  0.00    +0.000 F 
ATOM     23  C   UNL     1      45.646   1.730   8.635  0.00  0.00    +0.000 A 
ATOM     24  C   UNL     1      45.070   2.517   9.638  0.00  0.00    +0.000 A 
ENDBRANCH  14  18
ENDBRANCH   1  14
TORSDOF 4
ENDMDL
MODEL 4
REMARK VINA RESULT:    -7.069      1.914      2.306
REMARK INTER + INTRA:          -8.726
REMARK INTER:                  -9.002
REMARK INTRA:                   0.275
REMARK UNBOUND:                -0.005
REMARK  Name = 
REMARK  4 active torsions:
REMARK  status: ('A' for Active; 'I' for Inactive)
REMARK    1  A    between atoms: C_2  and  C_4
REMARK    2  A    between atoms: C_7  and  N_8
REMARK    3  A    between atoms: N_8  and  C_9
REMARK    4  A    between atoms: C_9  and  C_10
REMARK                            x       y       z     vdW  Elec       q    Type
REMARK                         _______ _______ _______ _____ _____    ______ ____
ROOT
ATOM      1  N   UNL     1      44.036   4.392  10.620  0.00  0.00    +0.000 N 
ATOM      2  H   UNL     1      43.126   3.939  10.609  0.00  0.00    +0.000 HD
ENDROOT
BRANCH   1   6
ATOM      3  C   UNL     1      46.490   3.184   7.490  0.00  0.00    +0.000 A 
ATOM      4  C   UNL     1      45.784   2.222   8.193  0.00  0.00    +0.000 A 
ATOM      5  C   UNL     1      44.980   2.641   9.251  0.00  0.00    +0.000 A 
ATOM      6  C   UNL     1      44.904   3.996   9.591  0.00  0.00    +0.000 A 
ATOM      7  C   UNL     1      45.664   4.877   8.827  0.00  0.00    +0.000 A 
ATOM      8  N   UNL     1      46.459   4.514   7.785  0.00  0.00    +0.000 NA
BRANCH   3  10
ATOM      9  N   UNL     1      48.521   2.200   6.614  0.00  0.00    +0.000 N 
ATOM     10  C   UNL     1      47.321   2.776   6.310  0.00  0.00    +0.000 C 
ATOM     11  O   UNL     1      46.956   2.958   5.154  0.00  0.00    +0.000 OA
ATOM     12  H   UNL     1      49.154   1.946   5.872  0.00  0.00    +0.000 HD
ATOM     13  H   UNL     1      48.790   2.092   7.585  0.00  0.00    +0.000 HD
ENDBRANCH   3  10
ENDBRANCH   1   6
BRANCH   1  14
ATOM     14  C   UNL     1      44.484   4.904  11.935  0.00  0.00    +0.000 C 
ATOM     15  C   UNL     1      43.926   4.315  13.222  0.00  0.00    +0.000 C 
ATOM     16  C   UNL     1      45.278   3.900  12.766  0.00  0.00    +0.000 C 
ATOM     17  F   UNL     1      45.393   2.603  12.290  0.00  0.00    +0.000 F 
BRANCH  14  18
ATOM     18  C   UNL     1      44.983   6.360  11.921  0.00  0.00    +0.000 A 
ATOM     19  C   UNL     1      44.221   7.417  11.380  0.00  0.00    +0.000 A 
ATOM     20  C   UNL     1      44.660   8.743  11.425  0.00  0.00    +0.000 A 
ATOM     21  C   UNL     1      45.896   9.034  11.979  0.00  0.00    +0.000 A 
ATOM     22  F   UNL     1      46.311  10.306  12.040  0.00  0.00    +0.000 F 
ATOM     23  C   UNL     1      46.705   8.022  12.470  0.00  0.00    +0.000 A 
ATOM     24  C   UNL     1      46.249   6.700  12.444  0.00  0.00    +0.000 A 
ENDBRANCH  14  18
ENDBRANCH   1  14
TORSDOF 4
ENDMDL
MODEL 5
REMARK VINA RESULT:    -6.500      2.920      4.693
REMARK INTER + INTRA:          -8.025
REMARK INTER:                  -7.850
REMARK INTRA:                  -0.175
REMARK UNBOUND:                -0.005
REMARK  Name = 
REMARK  4 active torsions:
REMARK  status: ('A' for Active; 'I' for Inactive)
REMARK    1  A    between atoms: C_2  and  C_4
REMARK    2  A    between atoms: C_7  and  N_8
REMARK    3  A    between atoms: N_8  and  C_9
REMARK    4  A    between atoms: C_9  and  C_10
REMARK                            x       y       z     vdW  Elec       q    Type
REMARK                         _______ _______ _______ _____ _____    ______ ____
ROOT
ATOM      1  N   UNL     1      46.054   5.968  13.610  0.00  0.00    +0.000 N 
ATOM      2  H   UNL     1      45.365   6.062  14.352  0.00  0.00    +0.000 HD
ENDROOT
BRANCH   1   6
ATOM      3  C   UNL     1      44.942   3.731  10.288  0.00  0.00    +0.000 A 
ATOM      4  C   UNL     1      45.176   5.087  10.130  0.00  0.00    +0.000 A 
ATOM      5  C   UNL     1      45.530   5.827  11.257  0.00  0.00    +0.000 A 
ATOM      6  C   UNL     1      45.633   5.208  12.508  0.00  0.00    +0.000 A 
ATOM      7  C   UNL     1      45.364   3.843  12.556  0.00  0.00    +0.000 A 
ATOM      8  N   UNL     1      45.019   3.082  11.484  0.00  0.00    +0.000 NA
BRANCH   3  10
ATOM      9  N   UNL     1      44.347   3.592   7.945  0.00  0.00    +0.000 N 
ATOM     10  C   UNL     1      44.614   2.893   9.087  0.00  0.00    +0.000 C 
ATOM     11  O   UNL     1      44.575   1.669   9.131  0.00  0.00    +0.000 OA
ATOM     12  H   UNL     1      44.069   3.097   7.112  0.00  0.00    +0.000 HD
ATOM     13  H   UNL     1      44.368   4.605   7.965  0.00  0.00    +0.000 HD
ENDBRANCH   3  10
ENDBRANCH   1   6
BRANCH   1  14
ATOM     14  C   UNL     1      47.467   6.124  14.022  0.00  0.00    +0.000 C 
ATOM     15  C   UNL     1      48.543   6.417  12.986  0.00  0.00    +0.000 C 
ATOM     16  C   UNL     1      48.030   7.529  13.828  0.00  0.00    +0.000 C 
ATOM     17  F   UNL     1      47.238   8.468  13.185  0.00  0.00    +0.000 F 
BRANCH  14  18
ATOM     18  C   UNL     1      47.844   5.385  15.318  0.00  0.00    +0.000 A 
ATOM     19  C   UNL     1      48.720   5.935  16.277  0.00  0.00    +0.000 A 
ATOM     20  C   UNL     1      49.009   5.278  17.477  0.00  0.00    +0.000 A 
ATOM     21  C   UNL     1      48.455   4.033  17.724  0.00  0.00    +0.000 A 
ATOM     22  F   UNL     1      48.716   3.410  18.880  0.00  0.00    +0.000 F 
ATOM     23  C   UNL     1      47.635   3.426  16.785  0.00  0.00    +0.000 A 
ATOM     24  C   UNL     1      47.331   4.100  15.598  0.00  0.00    +0.000 A 
ENDBRANCH  14  18
ENDBRANCH   1  14
TORSDOF 4
ENDMDL
MODEL 6
REMARK VINA RESULT:    -6.367      4.154      6.745
REMARK INTER + INTRA:          -7.861
REMARK INTER:                  -7.484
REMARK INTRA:                  -0.377
REMARK UNBOUND:                -0.005
REMARK  Name = 
REMARK  4 active torsions:
REMARK  status: ('A' for Active; 'I' for Inactive)
REMARK    1  A    between atoms: C_2  and  C_4
REMARK    2  A    between atoms: C_7  and  N_8
REMARK    3  A    between atoms: N_8  and  C_9
REMARK    4  A    between atoms: C_9  and  C_10
REMARK                            x       y       z     vdW  Elec       q    Type
REMARK                         _______ _______ _______ _____ _____    ______ ____
ROOT
ATOM      1  N   UNL     1      46.708   6.364  12.099  0.00  0.00    +0.000 N 
ATOM      2  H   UNL     1      47.450   6.535  11.425  0.00  0.00    +0.000 HD
ENDROOT
BRANCH   1   6
ATOM      3  C   UNL     1      48.072   4.948  15.761  0.00  0.00    +0.000 A 
ATOM      4  C   UNL     1      47.127   4.207  15.070  0.00  0.00    +0.000 A 
ATOM      5  C   UNL     1      46.666   4.704  13.852  0.00  0.00    +0.000 A 
ATOM      6  C   UNL     1      47.145   5.922  13.358  0.00  0.00    +0.000 A 
ATOM      7  C   UNL     1      48.083   6.591  14.137  0.00  0.00    +0.000 A 
ATOM      8  N   UNL     1      48.564   6.143  15.328  0.00  0.00    +0.000 NA
BRANCH   3  10
ATOM      9  N   UNL     1      48.258   5.096  18.170  0.00  0.00    +0.000 N 
ATOM     10  C   UNL     1      48.632   4.416  17.047  0.00  0.00    +0.000 C 
ATOM     11  O   UNL     1      49.382   3.448  17.086  0.00  0.00    +0.000 OA
ATOM     12  H   UNL     1      48.636   4.825  19.065  0.00  0.00    +0.000 HD
ATOM     13  H   UNL     1      47.655   5.905  18.085  0.00  0.00    +0.000 HD
ENDBRANCH   3  10
ENDBRANCH   1   6
BRANCH   1  14
ATOM     14  C   UNL     1      45.378   6.058  11.526  0.00  0.00    +0.000 C 
ATOM     15  C   UNL     1      44.122   6.206  12.373  0.00  0.00    +0.000 C 
ATOM     16  C   UNL     1      44.457   7.267  11.388  0.00  0.00    +0.000 C 
ATOM     17  F   UNL     1      44.883   8.477  11.914  0.00  0.00    +0.000 F 
BRANCH  14  18
ATOM     18  C   UNL     1      45.395   5.048  10.365  0.00  0.00    +0.000 A 
ATOM     19  C   UNL     1      44.787   3.778  10.456  0.00  0.00    +0.000 A 
ATOM     20  C   UNL     1      44.761   2.892   9.375  0.00  0.00    +0.000 A 
ATOM     21  C   UNL     1      45.381   3.246   8.188  0.00  0.00    +0.000 A 
ATOM     22  F   UNL     1      45.340   2.407   7.145  0.00  0.00    +0.000 F 
ATOM     23  C   UNL     1      46.041   4.459   8.070  0.00  0.00    +0.000 A 
ATOM     24  C   UNL     1      46.043   5.350   9.148  0.00  0.00    +0.000 A 
ENDBRANCH  14  18
ENDBRANCH   1  14
TORSDOF 4
ENDMDL
MODEL 7
REMARK VINA RESULT:    -5.769      4.079      6.146
REMARK INTER + INTRA:          -7.123
REMARK INTER:                  -6.545
REMARK INTRA:                  -0.578
REMARK UNBOUND:                -0.005
REMARK  Name = 
REMARK  4 active torsions:
REMARK  status: ('A' for Active; 'I' for Inactive)
REMARK    1  A    between atoms: C_2  and  C_4
REMARK    2  A    between atoms: C_7  and  N_8
REMARK    3  A    between atoms: N_8  and  C_9
REMARK    4  A    between atoms: C_9  and  C_10
REMARK                            x       y       z     vdW  Elec       q    Type
REMARK                         _______ _______ _______ _____ _____    ______ ____
ROOT
ATOM      1  N   UNL     1      48.333   6.554  13.067  0.00  0.00    +0.000 N 
ATOM      2  H   UNL     1      49.110   5.995  12.725  0.00  0.00    +0.000 HD
ENDROOT
BRANCH   1   6
ATOM      3  C   UNL     1      44.513   5.298  12.017  0.00  0.00    +0.000 A 
ATOM      4  C   UNL     1      45.042   4.881  13.228  0.00  0.00    +0.000 A 
ATOM      5  C   UNL     1      46.331   5.296  13.557  0.00  0.00    +0.000 A 
ATOM      6  C   UNL     1      47.063   6.101  12.678  0.00  0.00    +0.000 A 
ATOM      7  C   UNL     1      46.441   6.452  11.483  0.00  0.00    +0.000 A 
ATOM      8  N   UNL     1      45.186   6.075  11.122  0.00  0.00    +0.000 NA
BRANCH   3  10
ATOM      9  N   UNL     1      42.190   5.925  11.744  0.00  0.00    +0.000 N 
ATOM     10  C   UNL     1      43.107   4.918  11.655  0.00  0.00    +0.000 C 
ATOM     11  O   UNL     1      42.801   3.780  11.317  0.00  0.00    +0.000 OA
ATOM     12  H   UNL     1      41.217   5.729  11.565  0.00  0.00    +0.000 HD
ATOM     13  H   UNL     1      42.487   6.843  12.052  0.00  0.00    +0.000 HD
ENDBRANCH   3  10
ENDBRANCH   1   6
BRANCH   1  14
ATOM     14  C   UNL     1      48.650   7.964  13.391  0.00  0.00    +0.000 C 
ATOM     15  C   UNL     1      47.682   8.801  14.214  0.00  0.00    +0.000 C 
ATOM     16  C   UNL     1      48.886   8.232  14.875  0.00  0.00    +0.000 C 
ATOM     17  F   UNL     1      48.661   7.198  15.771  0.00  0.00    +0.000 F 
BRANCH  14  18
ATOM     18  C   UNL     1      49.591   8.657  12.390  0.00  0.00    +0.000 A 
ATOM     19  C   UNL     1      50.812   8.084  11.976  0.00  0.00    +0.000 A 
ATOM     20  C   UNL     1      51.630   8.697  11.023  0.00  0.00    +0.000 A 
ATOM     21  C   UNL     1      51.259   9.922  10.492  0.00  0.00    +0.000 A 
ATOM     22  F   UNL     1      52.032  10.503   9.565  0.00  0.00    +0.000 F 
ATOM     23  C   UNL     1      50.098  10.551  10.912  0.00  0.00    +0.000 A 
ATOM     24  C   UNL     1      49.272   9.920  11.848  0.00  0.00    +0.000 A 
ENDBRANCH  14  18
ENDBRANCH   1  14
TORSDOF 4
ENDMDL
