MODEL 1
REMARK VINA RESULT:    -8.255      0.000      0.000
REMARK INTER + INTRA:         -14.410
REMARK INTER:                 -13.081
REMARK INTRA:                  -1.329
REMARK UNBOUND:                -1.329
REMARK  Name = 
REMARK  13 active torsions:
REMARK  status: ('A' for Active; 'I' for Inactive)
REMARK    1  A    between atoms: C_1  and  O_2
REMARK    2  A    between atoms: O_2  and  C_3
REMARK    3  A    between atoms: C_3  and  C_4
REMARK    4  A    between atoms: C_4  and  N_5
REMARK    5  A    between atoms: C_4  and  C_29
REMARK    6  A    between atoms: N_5  and  C_6
REMARK    7  A    between atoms: C_6  and  C_7
REMARK    8  A    between atoms: C_10  and  C_11
REMARK    9  A    between atoms: C_11  and  N_12
REMARK   10  A    between atoms: C_13  and  C_15
REMARK   11  A    between atoms: N_17  and  C_18
REMARK   12  A    between atoms: C_23  and  O_24
REMARK   13  A    between atoms: O_24  and  C_25
REMARK                            x       y       z     vdW  Elec       q    Type
REMARK                         _______ _______ _______ _____ _____    ______ ____
ROOT
ATOM      1  C   UNL     1      44.714   6.272  11.174  0.00  0.00    +0.000 A 
ATOM      2  C   UNL     1      44.263   7.392  11.872  0.00  0.00    +0.000 A 
ATOM      3  C   UNL     1      45.161   8.093  12.673  0.00  0.00    +0.000 A 
ATOM      4  C   UNL     1      46.481   7.655  12.781  0.00  0.00    +0.000 A 
ATOM      5  C   UNL     1      46.851   6.549  12.026  0.00  0.00    +0.000 A 
ATOM      6  N   UNL     1      46.002   5.853  11.240  0.00  0.00    +0.000 NA
ENDROOT
BRANCH   1   7
ATOM      7  C   UNL     1      43.745   5.381  10.419  0.00  0.00    +0.000 C 
BRANCH   7   8
ATOM      8  N   UNL     1      44.260   4.845   9.151  0.00  0.00    +0.000 NA
ATOM      9  H   UNL     1      43.572   5.034   8.421  0.00  0.00    +0.000 HD
BRANCH   8  10
ATOM     10  C   UNL     1      44.437   3.374   9.174  0.00  0.00    +0.000 C 
BRANCH  10  11
ATOM     11  C   UNL     1      45.486   2.884   8.181  0.00  0.00    +0.000 A 
ATOM     12  C   UNL     1      46.017   1.588   8.309  0.00  0.00    +0.000 A 
ATOM     13  C   UNL     1      46.994   1.128   7.425  0.00  0.00    +0.000 A 
ATOM     14  C   UNL     1      47.436   1.953   6.399  0.00  0.00    +0.000 A 
ATOM     15  F   UNL     1      48.380   1.519   5.556  0.00  0.00    +0.000 F 
ATOM     16  C   UNL     1      46.909   3.225   6.231  0.00  0.00    +0.000 A 
ATOM     17  C   UNL     1      45.935   3.686   7.113  0.00  0.00    +0.000 A 
ENDBRANCH  10  11
BRANCH  10  18
ATOM     18  C   UNL     1      44.640   2.783  10.596  0.00  0.00    +0.000 C 
BRANCH  18  20
ATOM     19  C   UNL     1      43.402   2.743  12.583  0.00  0.00    +0.000 C 
ATOM     20  O   UNL     1      43.394   2.408  11.196  0.00  0.00    +0.000 OA
ENDBRANCH  18  20
ENDBRANCH  10  18
ENDBRANCH   8  10
ENDBRANCH   7   8
ENDBRANCH   1   7
BRANCH   4  21
ATOM     21  C   UNL     1      47.474   8.345  13.660  0.00  0.00    +0.000 C 
BRANCH  21  22
ATOM     22  N   UNL     1      47.811   7.546  14.806  0.00  0.00    +0.000 N 
ATOM     23  C   UNL     1      49.024   6.897  14.850  0.00  0.00    +0.000 C 
ATOM     24  O   UNL     1      49.823   6.933  13.922  0.00  0.00    +0.000 OA
ATOM     25  H   UNL     1      47.262   7.622  15.650  0.00  0.00    +0.000 HD
BRANCH  23  26
ATOM     26  C   UNL     1      49.263   6.154  16.077  0.00  0.00    +0.000 A 
ATOM     27  C   UNL     1      50.301   6.374  16.973  0.00  0.00    +0.000 A 
ATOM     28  N   UNL     1      50.123   5.543  18.048  0.00  0.00    +0.000 N 
ATOM     29  C   UNL     1      50.960   5.505  19.224  0.00  0.00    +0.000 C 
ATOM     30  C   UNL     1      49.018   4.761  17.853  0.00  0.00    +0.000 A 
ATOM     31  N   UNL     1      48.556   3.834  18.712  0.00  0.00    +0.000 NA
ATOM     32  C   UNL     1      47.464   3.214  18.236  0.00  0.00    +0.000 A 
ATOM     33  N   UNL     1      46.847   3.403  17.056  0.00  0.00    +0.000 NA
ATOM     34  C   UNL     1      47.348   4.352  16.231  0.00  0.00    +0.000 A 
ATOM     35  C   UNL     1      48.467   5.096  16.623  0.00  0.00    +0.000 A 
BRANCH  34  36
ATOM     36  O   UNL     1      46.791   4.553  14.987  0.00  0.00    +0.000 OA
ATOM     37  C   UNL     1      47.087   3.528  14.049  0.00  0.00    +0.000 C 
ENDBRANCH  34  36
ENDBRANCH  23  26
ENDBRANCH  21  22
ENDBRANCH   4  21
TORSDOF 10
ENDMDL
MODEL 2
REMARK VINA RESULT:    -7.516      2.312      3.116
REMARK INTER + INTRA:         -13.239
REMARK INTER:                 -11.955
REMARK INTRA:                  -1.284
REMARK UNBOUND:                -1.329
REMARK  Name = 
REMARK  13 active torsions:
REMARK  status: ('A' for Active; 'I' for Inactive)
REMARK    1  A    between atoms: C_1  and  O_2
REMARK    2  A    between atoms: O_2  and  C_3
REMARK    3  A    between atoms: C_3  and  C_4
REMARK    4  A    between atoms: C_4  and  N_5
REMARK    5  A    between atoms: C_4  and  C_29
REMARK    6  A    between atoms: N_5  and  C_6
REMARK    7  A    between atoms: C_6  and  C_7
REMARK    8  A    between atoms: C_10  and  C_11
REMARK    9  A    between atoms: C_11  and  N_12
REMARK   10  A    between atoms: C_13  and  C_15
REMARK   11  A    between atoms: N_17  and  C_18
REMARK   12  A    between atoms: C_23  and  O_24
REMARK   13  A    between atoms: O_24  and  C_25
REMARK                            x       y       z     vdW  Elec       q    Type
REMARK                         _______ _______ _______ _____ _____    ______ ____
ROOT
ATOM      1  C   UNL     1      47.087   6.530  12.769  0.00  0.00    +0.000 A 
ATOM      2  C   UNL     1      47.546   7.842  12.877  0.00  0.00    +0.000 A 
ATOM      3  C   UNL     1      48.257   8.216  14.015  0.00  0.00    +0.000 A 
ATOM      4  C   UNL     1      48.478   7.284  15.030  0.00  0.00    +0.000 A 
ATOM      5  C   UNL     1      48.012   5.992  14.824  0.00  0.00    +0.000 A 
ATOM      6  N   UNL     1      47.323   5.603  13.731  0.00  0.00    +0.000 NA
ENDROOT
BRANCH   1   7
ATOM      7  C   UNL     1      46.172   6.114  11.632  0.00  0.00    +0.000 C 
BRANCH   7   8
ATOM      8  N   UNL     1      45.641   4.747  11.736  0.00  0.00    +0.000 NA
ATOM      9  H   UNL     1      46.412   4.094  11.591  0.00  0.00    +0.000 HD
BRANCH   8  10
ATOM     10  C   UNL     1      44.640   4.435  10.689  0.00  0.00    +0.000 C 
BRANCH  10  11
ATOM     11  C   UNL     1      45.236   3.690   9.498  0.00  0.00    +0.000 A 
ATOM     12  C   UNL     1      45.219   2.284   9.474  0.00  0.00    +0.000 A 
ATOM     13  C   UNL     1      45.779   1.583   8.404  0.00  0.00    +0.000 A 
ATOM     14  C   UNL     1      46.344   2.283   7.346  0.00  0.00    +0.000 A 
ATOM     15  F   UNL     1      46.891   1.613   6.323  0.00  0.00    +0.000 F 
ATOM     16  C   UNL     1      46.348   3.669   7.329  0.00  0.00    +0.000 A 
ATOM     17  C   UNL     1      45.792   4.370   8.396  0.00  0.00    +0.000 A 
ENDBRANCH  10  11
BRANCH  10  18
ATOM     18  C   UNL     1      43.349   3.759  11.229  0.00  0.00    +0.000 C 
BRANCH  18  20
ATOM     19  C   UNL     1      42.274   5.765  11.780  0.00  0.00    +0.000 C 
ATOM     20  O   UNL     1      42.757   4.522  12.287  0.00  0.00    +0.000 OA
ENDBRANCH  18  20
ENDBRANCH  10  18
ENDBRANCH   8  10
ENDBRANCH   7   8
ENDBRANCH   1   7
BRANCH   4  21
ATOM     21  C   UNL     1      49.197   7.644  16.290  0.00  0.00    +0.000 C 
BRANCH  21  22
ATOM     22  N   UNL     1      50.237   6.701  16.595  0.00  0.00    +0.000 N 
ATOM     23  C   UNL     1      50.142   5.926  17.728  0.00  0.00    +0.000 C 
ATOM     24  O   UNL     1      49.219   6.037  18.526  0.00  0.00    +0.000 OA
ATOM     25  H   UNL     1      50.921   6.463  15.891  0.00  0.00    +0.000 HD
BRANCH  23  26
ATOM     26  C   UNL     1      51.237   4.984  17.905  0.00  0.00    +0.000 A 
ATOM     27  C   UNL     1      52.496   5.286  18.405  0.00  0.00    +0.000 A 
ATOM     28  N   UNL     1      53.206   4.118  18.513  0.00  0.00    +0.000 N 
ATOM     29  C   UNL     1      54.543   3.997  19.046  0.00  0.00    +0.000 C 
ATOM     30  C   UNL     1      52.451   3.072  18.057  0.00  0.00    +0.000 A 
ATOM     31  N   UNL     1      52.842   1.786  18.021  0.00  0.00    +0.000 NA
ATOM     32  C   UNL     1      51.891   0.991  17.503  0.00  0.00    +0.000 A 
ATOM     33  N   UNL     1      50.681   1.339  17.031  0.00  0.00    +0.000 NA
ATOM     34  C   UNL     1      50.334   2.646  17.097  0.00  0.00    +0.000 A 
ATOM     35  C   UNL     1      51.224   3.576  17.647  0.00  0.00    +0.000 A 
BRANCH  34  36
ATOM     36  O   UNL     1      49.129   3.069  16.580  0.00  0.00    +0.000 OA
ATOM     37  C   UNL     1      48.033   2.915  17.469  0.00  0.00    +0.000 C 
ENDBRANCH  34  36
ENDBRANCH  23  26
ENDBRANCH  21  22
ENDBRANCH   4  21
TORSDOF 10
ENDMDL
MODEL 3
REMARK VINA RESULT:    -6.877      2.116      2.799
REMARK INTER + INTRA:         -12.227
REMARK INTER:                 -11.015
REMARK INTRA:                  -1.212
REMARK UNBOUND:                -1.329
REMARK  Name = 
REMARK  13 active torsions:
REMARK  status: ('A' for Active; 'I' for Inactive)
REMARK    1  A    between atoms: C_1  and  O_2
REMARK    2  A    between atoms: O_2  and  C_3
REMARK    3  A    between atoms: C_3  and  C_4
REMARK    4  A    between atoms: C_4  and  N_5
REMARK    5  A    between atoms: C_4  and  C_29
REMARK    6  A    between atoms: N_5  and  C_6
REMARK    7  A    between atoms: C_6  and  C_7
REMARK    8  A    between atoms: C_10  and  C_11
REMARK    9  A    between atoms: C_11  and  N_12
REMARK   10  A    between atoms: C_13  and  C_15
REMARK   11  A    between atoms: N_17  and  C_18
REMARK   12  A    between atoms: C_23  and  O_24
REMARK   13  A    between atoms: O_24  and  C_25
REMARK                            x       y       z     vdW  Elec       q    Type
REMARK                         _______ _______ _______ _____ _____    ______ ____
ROOT
ATOM      1  C   UNL     1      46.767   6.716  12.060  0.00  0.00    +0.000 A 
ATOM      2  C   UNL     1      47.788   7.402  11.404  0.00  0.00    +0.000 A 
ATOM      3  C   UNL     1      48.942   7.730  12.111  0.00  0.00    +0.000 A 
ATOM      4  C   UNL     1      49.049   7.388  13.460  0.00  0.00    +0.000 A 
ATOM      5  C   UNL     1      47.996   6.678  14.024  0.00  0.00    +0.000 A 
ATOM      6  N   UNL     1      46.868   6.345  13.361  0.00  0.00    +0.000 NA
ENDROOT
BRANCH   1   7
ATOM      7  C   UNL     1      45.428   6.477  11.386  0.00  0.00    +0.000 C 
BRANCH   7   8
ATOM      8  N   UNL     1      45.512   5.935  10.022  0.00  0.00    +0.000 NA
ATOM      9  H   UNL     1      45.081   6.606   9.385  0.00  0.00    +0.000 HD
BRANCH   8  10
ATOM     10  C   UNL     1      44.757   4.671   9.855  0.00  0.00    +0.000 C 
BRANCH  10  11
ATOM     11  C   UNL     1      45.440   3.690   8.908  0.00  0.00    +0.000 A 
ATOM     12  C   UNL     1      45.324   2.306   9.133  0.00  0.00    +0.000 A 
ATOM     13  C   UNL     1      45.959   1.392   8.290  0.00  0.00    +0.000 A 
ATOM     14  C   UNL     1      46.701   1.854   7.211  0.00  0.00    +0.000 A 
ATOM     15  F   UNL     1      47.320   0.980   6.408  0.00  0.00    +0.000 F 
ATOM     16  C   UNL     1      46.809   3.210   6.948  0.00  0.00    +0.000 A 
ATOM     17  C   UNL     1      46.177   4.124   7.788  0.00  0.00    +0.000 A 
ENDBRANCH  10  11
BRANCH  10  18
ATOM     18  C   UNL     1      44.329   4.008  11.194  0.00  0.00    +0.000 C 
BRANCH  18  20
ATOM     19  C   UNL     1      42.372   5.194  11.690  0.00  0.00    +0.000 C 
ATOM     20  O   UNL     1      42.904   3.925  11.311  0.00  0.00    +0.000 OA
ENDBRANCH  18  20
ENDBRANCH  10  18
ENDBRANCH   8  10
ENDBRANCH   7   8
ENDBRANCH   1   7
BRANCH   4  21
ATOM     21  C   UNL     1      50.246   7.755  14.276  0.00  0.00    +0.000 C 
BRANCH  21  22
ATOM     22  N   UNL     1      50.375   6.914  15.434  0.00  0.00    +0.000 N 
ATOM     23  C   UNL     1      51.332   7.203  16.381  0.00  0.00    +0.000 C 
ATOM     24  O   UNL     1      52.120   8.132  16.258  0.00  0.00    +0.000 OA
ATOM     25  H   UNL     1      49.649   6.247  15.654  0.00  0.00    +0.000 HD
BRANCH  23  26
ATOM     26  C   UNL     1      51.337   6.301  17.523  0.00  0.00    +0.000 A 
ATOM     27  C   UNL     1      52.369   5.443  17.877  0.00  0.00    +0.000 A 
ATOM     28  N   UNL     1      52.039   4.840  19.062  0.00  0.00    +0.000 N 
ATOM     29  C   UNL     1      52.875   3.918  19.795  0.00  0.00    +0.000 C 
ATOM     30  C   UNL     1      50.799   5.256  19.465  0.00  0.00    +0.000 A 
ATOM     31  N   UNL     1      50.169   4.861  20.586  0.00  0.00    +0.000 NA
ATOM     32  C   UNL     1      48.956   5.426  20.702  0.00  0.00    +0.000 A 
ATOM     33  N   UNL     1      48.348   6.272  19.851  0.00  0.00    +0.000 NA
ATOM     34  C   UNL     1      49.027   6.643  18.741  0.00  0.00    +0.000 A 
ATOM     35  C   UNL     1      50.318   6.151  18.517  0.00  0.00    +0.000 A 
BRANCH  34  36
ATOM     36  O   UNL     1      48.433   7.464  17.808  0.00  0.00    +0.000 OA
ATOM     37  C   UNL     1      47.840   8.631  18.360  0.00  0.00    +0.000 C 
ENDBRANCH  34  36
ENDBRANCH  23  26
ENDBRANCH  21  22
ENDBRANCH   4  21
TORSDOF 10
ENDMDL
MODEL 4
REMARK VINA RESULT:    -6.448      3.817      8.662
REMARK INTER + INTRA:         -11.546
REMARK INTER:                  -9.334
REMARK INTRA:                  -2.212
REMARK UNBOUND:                -1.329
REMARK  Name = 
REMARK  13 active torsions:
REMARK  status: ('A' for Active; 'I' for Inactive)
REMARK    1  A    between atoms: C_1  and  O_2
REMARK    2  A    between atoms: O_2  and  C_3
REMARK    3  A    between atoms: C_3  and  C_4
REMARK    4  A    between atoms: C_4  and  N_5
REMARK    5  A    between atoms: C_4  and  C_29
REMARK    6  A    between atoms: N_5  and  C_6
REMARK    7  A    between atoms: C_6  and  C_7
REMARK    8  A    between atoms: C_10  and  C_11
REMARK    9  A    between atoms: C_11  and  N_12
REMARK   10  A    between atoms: C_13  and  C_15
REMARK   11  A    between atoms: N_17  and  C_18
REMARK   12  A    between atoms: C_23  and  O_24
REMARK   13  A    between atoms: O_24  and  C_25
REMARK                            x       y       z     vdW  Elec       q    Type
REMARK                         _______ _______ _______ _____ _____    ______ ____
ROOT
ATOM      1  C   UNL     1      51.301   7.234  16.949  0.00  0.00    +0.000 A 
ATOM      2  C   UNL     1      50.266   7.804  17.690  0.00  0.00    +0.000 A 
ATOM      3  C   UNL     1      49.248   8.476  17.018  0.00  0.00    +0.000 A 
ATOM      4  C   UNL     1      49.291   8.587  15.628  0.00  0.00    +0.000 A 
ATOM      5  C   UNL     1      50.342   7.962  14.969  0.00  0.00    +0.000 A 
ATOM      6  N   UNL     1      51.340   7.302  15.595  0.00  0.00    +0.000 NA
ENDROOT
BRANCH   1   7
ATOM      7  C   UNL     1      52.514   6.634  17.636  0.00  0.00    +0.000 C 
BRANCH   7   8
ATOM      8  N   UNL     1      52.795   5.236  17.280  0.00  0.00    +0.000 NA
ATOM      9  H   UNL     1      52.232   4.995  16.464  0.00  0.00    +0.000 HD
BRANCH   8  10
ATOM     10  C   UNL     1      52.404   4.279  18.342  0.00  0.00    +0.000 C 
BRANCH  10  11
ATOM     11  C   UNL     1      50.962   3.799  18.211  0.00  0.00    +0.000 A 
ATOM     12  C   UNL     1      50.651   2.763  17.312  0.00  0.00    +0.000 A 
ATOM     13  C   UNL     1      49.334   2.324  17.160  0.00  0.00    +0.000 A 
ATOM     14  C   UNL     1      48.325   2.906  17.915  0.00  0.00    +0.000 A 
ATOM     15  F   UNL     1      47.060   2.494  17.764  0.00  0.00    +0.000 F 
ATOM     16  C   UNL     1      48.607   3.908  18.830  0.00  0.00    +0.000 A 
ATOM     17  C   UNL     1      49.919   4.349  18.982  0.00  0.00    +0.000 A 
ENDBRANCH  10  11
BRANCH  10  18
ATOM     18  C   UNL     1      53.407   3.109  18.541  0.00  0.00    +0.000 C 
BRANCH  18  20
ATOM     19  C   UNL     1      53.500   3.967  20.717  0.00  0.00    +0.000 C 
ATOM     20  O   UNL     1      53.571   2.782  19.926  0.00  0.00    +0.000 OA
ENDBRANCH  18  20
ENDBRANCH  10  18
ENDBRANCH   8  10
ENDBRANCH   7   8
ENDBRANCH   1   7
BRANCH   4  21
ATOM     21  C   UNL     1      48.247   9.334  14.862  0.00  0.00    +0.000 C 
BRANCH  21  22
ATOM     22  N   UNL     1      47.214   8.459  14.382  0.00  0.00    +0.000 N 
ATOM     23  C   UNL     1      47.089   8.231  13.030  0.00  0.00    +0.000 C 
ATOM     24  O   UNL     1      47.801   8.783  12.201  0.00  0.00    +0.000 OA
ATOM     25  H   UNL     1      46.719   7.863  15.030  0.00  0.00    +0.000 HD
BRANCH  23  26
ATOM     26  C   UNL     1      46.031   7.297  12.675  0.00  0.00    +0.000 A 
ATOM     27  C   UNL     1      44.836   7.623  12.047  0.00  0.00    +0.000 A 
ATOM     28  N   UNL     1      44.154   6.462  11.792  0.00  0.00    +0.000 N 
ATOM     29  C   UNL     1      42.890   6.368  11.100  0.00  0.00    +0.000 C 
ATOM     30  C   UNL     1      44.860   5.394  12.276  0.00  0.00    +0.000 A 
ATOM     31  N   UNL     1      44.478   4.107  12.195  0.00  0.00    +0.000 NA
ATOM     32  C   UNL     1      45.369   3.286  12.777  0.00  0.00    +0.000 A 
ATOM     33  N   UNL     1      46.513   3.611  13.406  0.00  0.00    +0.000 NA
ATOM     34  C   UNL     1      46.853   4.920  13.454  0.00  0.00    +0.000 A 
ATOM     35  C   UNL     1      46.026   5.877  12.855  0.00  0.00    +0.000 A 
BRANCH  34  36
ATOM     36  O   UNL     1      47.985   5.317  14.131  0.00  0.00    +0.000 OA
ATOM     37  C   UNL     1      47.870   5.236  15.545  0.00  0.00    +0.000 C 
ENDBRANCH  34  36
ENDBRANCH  23  26
ENDBRANCH  21  22
ENDBRANCH   4  21
TORSDOF 10
ENDMDL
MODEL 5
REMARK VINA RESULT:    -6.271      3.058      8.725
REMARK INTER + INTRA:         -11.266
REMARK INTER:                 -10.151
REMARK INTRA:                  -1.115
REMARK UNBOUND:                -1.329
REMARK  Name = 
REMARK  13 active torsions:
REMARK  status: ('A' for Active; 'I' for Inactive)
REMARK    1  A    between atoms: C_1  and  O_2
REMARK    2  A    between atoms: O_2  and  C_3
REMARK    3  A    between atoms: C_3  and  C_4
REMARK    4  A    between atoms: C_4  and  N_5
REMARK    5  A    between atoms: C_4  and  C_29
REMARK    6  A    between atoms: N_5  and  C_6
REMARK    7  A    between atoms: C_6  and  C_7
REMARK    8  A    between atoms: C_10  and  C_11
REMARK    9  A    between atoms: C_11  and  N_12
REMARK   10  A    between atoms: C_13  and  C_15
REMARK   11  A    between atoms: N_17  and  C_18
REMARK   12  A    between atoms: C_23  and  O_24
REMARK   13  A    between atoms: O_24  and  C_25
REMARK                            x       y       z     vdW  Elec       q    Type
REMARK                         _______ _______ _______ _____ _____    ______ ____
ROOT
ATOM      1  C   UNL     1      49.723   7.085  15.624  0.00  0.00    +0.000 A 
ATOM      2  C   UNL     1      49.576   8.414  15.230  0.00  0.00    +0.000 A 
ATOM      3  C   UNL     1      48.617   8.729  14.270  0.00  0.00    +0.000 A 
ATOM      4  C   UNL     1      47.842   7.716  13.706  0.00  0.00    +0.000 A 
ATOM      5  C   UNL     1      48.035   6.424  14.180  0.00  0.00    +0.000 A 
ATOM      6  N   UNL     1      48.954   6.092  15.112  0.00  0.00    +0.000 NA
ENDROOT
BRANCH   1   7
ATOM      7  C   UNL     1      50.856   6.664  16.543  0.00  0.00    +0.000 C 
BRANCH   7   8
ATOM      8  N   UNL     1      50.560   6.777  17.978  0.00  0.00    +0.000 NA
ATOM      9  H   UNL     1      51.446   6.806  18.485  0.00  0.00    +0.000 HD
BRANCH   8  10
ATOM     10  C   UNL     1      49.823   5.608  18.511  0.00  0.00    +0.000 C 
BRANCH  10  11
ATOM     11  C   UNL     1      50.459   4.276  18.125  0.00  0.00    +0.000 A 
ATOM     12  C   UNL     1      49.703   3.318  17.426  0.00  0.00    +0.000 A 
ATOM     13  C   UNL     1      50.260   2.084  17.083  0.00  0.00    +0.000 A 
ATOM     14  C   UNL     1      51.577   1.806  17.423  0.00  0.00    +0.000 A 
ATOM     15  F   UNL     1      52.110   0.620  17.104  0.00  0.00    +0.000 F 
ATOM     16  C   UNL     1      52.355   2.743  18.086  0.00  0.00    +0.000 A 
ATOM     17  C   UNL     1      51.802   3.974  18.430  0.00  0.00    +0.000 A 
ENDBRANCH  10  11
BRANCH  10  18
ATOM     18  C   UNL     1      49.505   5.698  20.029  0.00  0.00    +0.000 C 
BRANCH  18  20
ATOM     19  C   UNL     1      47.307   5.956  19.266  0.00  0.00    +0.000 C 
ATOM     20  O   UNL     1      48.127   5.413  20.299  0.00  0.00    +0.000 OA
ENDBRANCH  18  20
ENDBRANCH  10  18
ENDBRANCH   8  10
ENDBRANCH   7   8
ENDBRANCH   1   7
BRANCH   4  21
ATOM     21  C   UNL     1      46.830   7.994  12.641  0.00  0.00    +0.000 C 
BRANCH  21  22
ATOM     22  N   UNL     1      46.629   6.853  11.791  0.00  0.00    +0.000 N 
ATOM     23  C   UNL     1      45.485   6.765  11.031  0.00  0.00    +0.000 C 
ATOM     24  O   UNL     1      44.596   7.606  11.079  0.00  0.00    +0.000 OA
ATOM     25  H   UNL     1      47.399   6.229  11.598  0.00  0.00    +0.000 HD
BRANCH  23  26
ATOM     26  C   UNL     1      45.417   5.583  10.185  0.00  0.00    +0.000 A 
ATOM     27  C   UNL     1      46.077   5.409   8.975  0.00  0.00    +0.000 A 
ATOM     28  N   UNL     1      45.842   4.131   8.538  0.00  0.00    +0.000 N 
ATOM     29  C   UNL     1      46.397   3.539   7.344  0.00  0.00    +0.000 C 
ATOM     30  C   UNL     1      45.012   3.486   9.415  0.00  0.00    +0.000 A 
ATOM     31  N   UNL     1      44.579   2.219   9.289  0.00  0.00    +0.000 NA
ATOM     32  C   UNL     1      43.760   1.870  10.295  0.00  0.00    +0.000 A 
ATOM     33  N   UNL     1      43.346   2.624  11.330  0.00  0.00    +0.000 NA
ATOM     34  C   UNL     1      43.817   3.890  11.413  0.00  0.00    +0.000 A 
ATOM     35  C   UNL     1      44.706   4.368  10.443  0.00  0.00    +0.000 A 
BRANCH  34  36
ATOM     36  O   UNL     1      43.385   4.724  12.420  0.00  0.00    +0.000 OA
ATOM     37  C   UNL     1      42.251   5.507  12.076  0.00  0.00    +0.000 C 
ENDBRANCH  34  36
ENDBRANCH  23  26
ENDBRANCH  21  22
ENDBRANCH   4  21
TORSDOF 10
ENDMDL
MODEL 6
REMARK VINA RESULT:    -6.255      5.539      8.193
REMARK INTER + INTRA:         -11.240
REMARK INTER:                  -9.797
REMARK INTRA:                  -1.444
REMARK UNBOUND:                -1.329
REMARK  Name = 
REMARK  13 active torsions:
REMARK  status: ('A' for Active; 'I' for Inactive)
REMARK    1  A    between atoms: C_1  and  O_2
REMARK    2  A    between atoms: O_2  and  C_3
REMARK    3  A    between atoms: C_3  and  C_4
REMARK    4  A    between atoms: C_4  and  N_5
REMARK    5  A    between atoms: C_4  and  C_29
REMARK    6  A    between atoms: N_5  and  C_6
REMARK    7  A    between atoms: C_6  and  C_7
REMARK    8  A    between atoms: C_10  and  C_11
REMARK    9  A    between atoms: C_11  and  N_12
REMARK   10  A    between atoms: C_13  and  C_15
REMARK   11  A    between atoms: N_17  and  C_18
REMARK   12  A    between atoms: C_23  and  O_24
REMARK   13  A    between atoms: O_24  and  C_25
REMARK                            x       y       z     vdW  Elec       q    Type
REMARK                         _______ _______ _______ _____ _____    ______ ____
ROOT
ATOM      1  C   UNL     1      49.163   7.241  13.532  0.00  0.00    +0.000 A 
ATOM      2  C   UNL     1      49.074   7.267  12.141  0.00  0.00    +0.000 A 
ATOM      3  C   UNL     1      50.062   7.927  11.414  0.00  0.00    +0.000 A 
ATOM      4  C   UNL     1      51.105   8.566  12.086  0.00  0.00    +0.000 A 
ATOM      5  C   UNL     1      51.131   8.464  13.471  0.00  0.00    +0.000 A 
ATOM      6  N   UNL     1      50.189   7.828  14.199  0.00  0.00    +0.000 NA
ENDROOT
BRANCH   1   7
ATOM      7  C   UNL     1      48.034   6.679  14.376  0.00  0.00    +0.000 C 
BRANCH   7   8
ATOM      8  N   UNL     1      46.734   6.603  13.695  0.00  0.00    +0.000 NA
ATOM      9  H   UNL     1      46.064   7.165  14.222  0.00  0.00    +0.000 HD
BRANCH   8  10
ATOM     10  C   UNL     1      46.177   5.230  13.663  0.00  0.00    +0.000 C 
BRANCH  10  11
ATOM     11  C   UNL     1      45.685   4.819  12.279  0.00  0.00    +0.000 A 
ATOM     12  C   UNL     1      45.848   5.695  11.191  0.00  0.00    +0.000 A 
ATOM     13  C   UNL     1      45.384   5.346   9.921  0.00  0.00    +0.000 A 
ATOM     14  C   UNL     1      44.769   4.116   9.728  0.00  0.00    +0.000 A 
ATOM     15  F   UNL     1      44.314   3.784   8.514  0.00  0.00    +0.000 F 
ATOM     16  C   UNL     1      44.621   3.221  10.776  0.00  0.00    +0.000 A 
ATOM     17  C   UNL     1      45.082   3.567  12.044  0.00  0.00    +0.000 A 
ENDBRANCH  10  11
BRANCH  10  18
ATOM     18  C   UNL     1      47.097   4.159  14.312  0.00  0.00    +0.000 C 
BRANCH  18  20
ATOM     19  C   UNL     1      47.784   3.324  16.389  0.00  0.00    +0.000 C 
ATOM     20  O   UNL     1      46.681   3.842  15.646  0.00  0.00    +0.000 OA
ENDBRANCH  18  20
ENDBRANCH  10  18
ENDBRANCH   8  10
ENDBRANCH   7   8
ENDBRANCH   1   7
BRANCH   4  21
ATOM     21  C   UNL     1      52.166   9.326  11.357  0.00  0.00    +0.000 C 
BRANCH  21  22
ATOM     22  N   UNL     1      52.309   8.869  10.002  0.00  0.00    +0.000 N 
ATOM     23  C   UNL     1      53.568   8.692   9.474  0.00  0.00    +0.000 C 
ATOM     24  O   UNL     1      54.587   8.953  10.100  0.00  0.00    +0.000 OA
ATOM     25  H   UNL     1      51.511   8.489   9.514  0.00  0.00    +0.000 HD
BRANCH  23  26
ATOM     26  C   UNL     1      53.580   8.190   8.108  0.00  0.00    +0.000 A 
ATOM     27  C   UNL     1      53.509   8.963   6.957  0.00  0.00    +0.000 A 
ATOM     28  N   UNL     1      53.652   8.134   5.875  0.00  0.00    +0.000 N 
ATOM     29  C   UNL     1      53.691   8.558   4.495  0.00  0.00    +0.000 C 
ATOM     30  C   UNL     1      53.773   6.838   6.295  0.00  0.00    +0.000 A 
ATOM     31  N   UNL     1      53.928   5.769   5.493  0.00  0.00    +0.000 NA
ATOM     32  C   UNL     1      53.998   4.626   6.195  0.00  0.00    +0.000 A 
ATOM     33  N   UNL     1      53.912   4.460   7.527  0.00  0.00    +0.000 NA
ATOM     34  C   UNL     1      53.762   5.569   8.289  0.00  0.00    +0.000 A 
ATOM     35  C   UNL     1      53.708   6.829   7.682  0.00  0.00    +0.000 A 
BRANCH  34  36
ATOM     36  O   UNL     1      53.614   5.456   9.654  0.00  0.00    +0.000 OA
ATOM     37  C   UNL     1      54.832   5.235  10.351  0.00  0.00    +0.000 C 
ENDBRANCH  34  36
ENDBRANCH  23  26
ENDBRANCH  21  22
ENDBRANCH   4  21
TORSDOF 10
ENDMDL
MODEL 7
REMARK VINA RESULT:    -6.204      2.860      8.454
REMARK INTER + INTRA:         -11.159
REMARK INTER:                  -9.131
REMARK INTRA:                  -2.029
REMARK UNBOUND:                -1.329
REMARK  Name = 
REMARK  13 active torsions:
REMARK  status: ('A' for Active; 'I' for Inactive)
REMARK    1  A    between atoms: C_1  and  O_2
REMARK    2  A    between atoms: O_2  and  C_3
REMARK    3  A    between atoms: C_3  and  C_4
REMARK    4  A    between atoms: C_4  and  N_5
REMARK    5  A    between atoms: C_4  and  C_29
REMARK    6  A    between atoms: N_5  and  C_6
REMARK    7  A    between atoms: C_6  and  C_7
REMARK    8  A    between atoms: C_10  and  C_11
REMARK    9  A    between atoms: C_11  and  N_12
REMARK   10  A    between atoms: C_13  and  C_15
REMARK   11  A    between atoms: N_17  and  C_18
REMARK   12  A    between atoms: C_23  and  O_24
REMARK   13  A    between atoms: O_24  and  C_25
REMARK                            x       y       z     vdW  Elec       q    Type
REMARK                         _______ _______ _______ _____ _____    ______ ____
ROOT
ATOM      1  C   UNL     1      48.641   8.002  16.149  0.00  0.00    +0.000 A 
ATOM      2  C   UNL     1      49.376   7.016  15.493  0.00  0.00    +0.000 A 
ATOM      3  C   UNL     1      49.394   7.003  14.100  0.00  0.00    +0.000 A 
ATOM      4  C   UNL     1      48.663   7.956  13.389  0.00  0.00    +0.000 A 
ATOM      5  C   UNL     1      47.984   8.919  14.124  0.00  0.00    +0.000 A 
ATOM      6  N   UNL     1      47.953   8.957  15.473  0.00  0.00    +0.000 NA
ENDROOT
BRANCH   1   7
ATOM      7  C   UNL     1      48.456   7.966  17.655  0.00  0.00    +0.000 C 
BRANCH   7   8
ATOM      8  N   UNL     1      49.561   7.343  18.397  0.00  0.00    +0.000 NA
ATOM      9  H   UNL     1      50.246   7.000  17.722  0.00  0.00    +0.000 HD
BRANCH   8  10
ATOM     10  C   UNL     1      49.135   6.161  19.182  0.00  0.00    +0.000 C 
BRANCH  10  11
ATOM     11  C   UNL     1      49.098   4.878  18.357  0.00  0.00    +0.000 A 
ATOM     12  C   UNL     1      47.870   4.393  17.875  0.00  0.00    +0.000 A 
ATOM     13  C   UNL     1      47.812   3.209  17.137  0.00  0.00    +0.000 A 
ATOM     14  C   UNL     1      48.981   2.512  16.864  0.00  0.00    +0.000 A 
ATOM     15  F   UNL     1      48.927   1.371  16.165  0.00  0.00    +0.000 F 
ATOM     16  C   UNL     1      50.209   2.982  17.302  0.00  0.00    +0.000 A 
ATOM     17  C   UNL     1      50.270   4.162  18.039  0.00  0.00    +0.000 A 
ENDBRANCH  10  11
BRANCH  10  18
ATOM     18  C   UNL     1      49.899   5.984  20.524  0.00  0.00    +0.000 C 
BRANCH  18  20
ATOM     19  C   UNL     1      52.238   5.899  20.485  0.00  0.00    +0.000 C 
ATOM     20  O   UNL     1      51.103   6.760  20.554  0.00  0.00    +0.000 OA
ENDBRANCH  18  20
ENDBRANCH  10  18
ENDBRANCH   8  10
ENDBRANCH   7   8
ENDBRANCH   1   7
BRANCH   4  21
ATOM     21  C   UNL     1      48.612   7.960  11.895  0.00  0.00    +0.000 C 
BRANCH  21  22
ATOM     22  N   UNL     1      47.827   6.868  11.389  0.00  0.00    +0.000 N 
ATOM     23  C   UNL     1      46.459   6.997  11.303  0.00  0.00    +0.000 C 
ATOM     24  O   UNL     1      45.867   7.999  11.685  0.00  0.00    +0.000 OA
ATOM     25  H   UNL     1      48.281   6.100  10.915  0.00  0.00    +0.000 HD
BRANCH  23  26
ATOM     26  C   UNL     1      45.782   5.839  10.739  0.00  0.00    +0.000 A 
ATOM     27  C   UNL     1      45.696   5.524   9.390  0.00  0.00    +0.000 A 
ATOM     28  N   UNL     1      45.071   4.310   9.271  0.00  0.00    +0.000 N 
ATOM     29  C   UNL     1      44.837   3.606   8.032  0.00  0.00    +0.000 C 
ATOM     30  C   UNL     1      44.713   3.850  10.509  0.00  0.00    +0.000 A 
ATOM     31  N   UNL     1      44.081   2.688  10.756  0.00  0.00    +0.000 NA
ATOM     32  C   UNL     1      43.847   2.518  12.068  0.00  0.00    +0.000 A 
ATOM     33  N   UNL     1      44.144   3.351  13.081  0.00  0.00    +0.000 NA
ATOM     34  C   UNL     1      44.786   4.504  12.779  0.00  0.00    +0.000 A 
ATOM     35  C   UNL     1      45.119   4.788  11.449  0.00  0.00    +0.000 A 
BRANCH  34  36
ATOM     36  O   UNL     1      45.068   5.420  13.769  0.00  0.00    +0.000 OA
ATOM     37  C   UNL     1      46.314   5.207  14.415  0.00  0.00    +0.000 C 
ENDBRANCH  34  36
ENDBRANCH  23  26
ENDBRANCH  21  22
ENDBRANCH   4  21
TORSDOF 10
ENDMDL
MODEL 8
REMARK VINA RESULT:    -5.898      3.691      8.535
REMARK INTER + INTRA:         -10.675
REMARK INTER:                  -8.745
REMARK INTRA:                  -1.930
REMARK UNBOUND:                -1.329
REMARK  Name = 
REMARK  13 active torsions:
REMARK  status: ('A' for Active; 'I' for Inactive)
REMARK    1  A    between atoms: C_1  and  O_2
REMARK    2  A    between atoms: O_2  and  C_3
REMARK    3  A    between atoms: C_3  and  C_4
REMARK    4  A    between atoms: C_4  and  N_5
REMARK    5  A    between atoms: C_4  and  C_29
REMARK    6  A    between atoms: N_5  and  C_6
REMARK    7  A    between atoms: C_6  and  C_7
REMARK    8  A    between atoms: C_10  and  C_11
REMARK    9  A    between atoms: C_11  and  N_12
REMARK   10  A    between atoms: C_13  and  C_15
REMARK   11  A    between atoms: N_17  and  C_18
REMARK   12  A    between atoms: C_23  and  O_24
REMARK   13  A    between atoms: O_24  and  C_25
REMARK                            x       y       z     vdW  Elec       q    Type
REMARK                         _______ _______ _______ _____ _____    ______ ____
ROOT
ATOM      1  C   UNL     1      50.676   8.391  16.814  0.00  0.00    +0.000 A 
ATOM      2  C   UNL     1      51.101   7.559  15.779  0.00  0.00    +0.000 A 
ATOM      3  C   UNL     1      50.573   7.746  14.504  0.00  0.00    +0.000 A 
ATOM      4  C   UNL     1      49.618   8.740  14.288  0.00  0.00    +0.000 A 
ATOM      5  C   UNL     1      49.276   9.542  15.369  0.00  0.00    +0.000 A 
ATOM      6  N   UNL     1      49.774   9.385  16.614  0.00  0.00    +0.000 NA
ENDROOT
BRANCH   1   7
ATOM      7  C   UNL     1      51.094   8.128  18.249  0.00  0.00    +0.000 C 
BRANCH   7   8
ATOM      8  N   UNL     1      51.733   6.825  18.476  0.00  0.00    +0.000 NA
ATOM      9  H   UNL     1      52.092   6.485  17.583  0.00  0.00    +0.000 HD
BRANCH   8  10
ATOM     10  C   UNL     1      50.785   5.791  18.954  0.00  0.00    +0.000 C 
BRANCH  10  11
ATOM     11  C   UNL     1      51.116   4.394  18.439  0.00  0.00    +0.000 A 
ATOM     12  C   UNL     1      52.391   3.847  18.673  0.00  0.00    +0.000 A 
ATOM     13  C   UNL     1      52.721   2.579  18.191  0.00  0.00    +0.000 A 
ATOM     14  C   UNL     1      51.777   1.845  17.485  0.00  0.00    +0.000 A 
ATOM     15  F   UNL     1      52.095   0.634  17.012  0.00  0.00    +0.000 F 
ATOM     16  C   UNL     1      50.504   2.347  17.264  0.00  0.00    +0.000 A 
ATOM     17  C   UNL     1      50.172   3.612  17.743  0.00  0.00    +0.000 A 
ENDBRANCH  10  11
BRANCH  10  18
ATOM     18  C   UNL     1      50.540   5.818  20.488  0.00  0.00    +0.000 C 
BRANCH  18  20
ATOM     19  C   UNL     1      48.223   5.494  20.394  0.00  0.00    +0.000 C 
ATOM     20  O   UNL     1      49.458   4.958  20.866  0.00  0.00    +0.000 OA
ENDBRANCH  18  20
ENDBRANCH  10  18
ENDBRANCH   8  10
ENDBRANCH   7   8
ENDBRANCH   1   7
BRANCH   4  21
ATOM     21  C   UNL     1      48.988   8.954  12.950  0.00  0.00    +0.000 C 
BRANCH  21  22
ATOM     22  N   UNL     1      48.064   7.903  12.625  0.00  0.00    +0.000 N 
ATOM     23  C   UNL     1      46.744   8.020  12.997  0.00  0.00    +0.000 C 
ATOM     24  O   UNL     1      46.323   8.973  13.640  0.00  0.00    +0.000 OA
ATOM     25  H   UNL     1      48.328   7.189  11.962  0.00  0.00    +0.000 HD
BRANCH  23  26
ATOM     26  C   UNL     1      45.902   6.909  12.578  0.00  0.00    +0.000 A 
ATOM     27  C   UNL     1      44.765   7.003  11.786  0.00  0.00    +0.000 A 
ATOM     28  N   UNL     1      44.315   5.735  11.529  0.00  0.00    +0.000 N 
ATOM     29  C   UNL     1      43.185   5.401  10.694  0.00  0.00    +0.000 C 
ATOM     30  C   UNL     1      45.108   4.822  12.169  0.00  0.00    +0.000 A 
ATOM     31  N   UNL     1      44.948   3.487  12.131  0.00  0.00    +0.000 NA
ATOM     32  C   UNL     1      45.870   2.853  12.873  0.00  0.00    +0.000 A 
ATOM     33  N   UNL     1      46.854   3.391  13.616  0.00  0.00    +0.000 NA
ATOM     34  C   UNL     1      46.976   4.740  13.615  0.00  0.00    +0.000 A 
ATOM     35  C   UNL     1      46.096   5.518  12.854  0.00  0.00    +0.000 A 
BRANCH  34  36
ATOM     36  O   UNL     1      47.931   5.349  14.398  0.00  0.00    +0.000 OA
ATOM     37  C   UNL     1      47.722   5.187  15.794  0.00  0.00    +0.000 C 
ENDBRANCH  34  36
ENDBRANCH  23  26
ENDBRANCH  21  22
ENDBRANCH   4  21
TORSDOF 10
ENDMDL
MODEL 9
REMARK VINA RESULT:    -5.746      3.122      8.967
REMARK INTER + INTRA:         -10.435
REMARK INTER:                  -8.797
REMARK INTRA:                  -1.638
REMARK UNBOUND:                -1.329
REMARK  Name = 
REMARK  13 active torsions:
REMARK  status: ('A' for Active; 'I' for Inactive)
REMARK    1  A    between atoms: C_1  and  O_2
REMARK    2  A    between atoms: O_2  and  C_3
REMARK    3  A    between atoms: C_3  and  C_4
REMARK    4  A    between atoms: C_4  and  N_5
REMARK    5  A    between atoms: C_4  and  C_29
REMARK    6  A    between atoms: N_5  and  C_6
REMARK    7  A    between atoms: C_6  and  C_7
REMARK    8  A    between atoms: C_10  and  C_11
REMARK    9  A    between atoms: C_11  and  N_12
REMARK   10  A    between atoms: C_13  and  C_15
REMARK   11  A    between atoms: N_17  and  C_18
REMARK   12  A    between atoms: C_23  and  O_24
REMARK   13  A    between atoms: O_24  and  C_25
REMARK                            x       y       z     vdW  Elec       q    Type
REMARK                         _______ _______ _______ _____ _____    ______ ____
ROOT
ATOM      1  C   UNL     1      49.855   7.844  15.424  0.00  0.00    +0.000 A 
ATOM      2  C   UNL     1      49.464   6.659  14.801  0.00  0.00    +0.000 A 
ATOM      3  C   UNL     1      48.298   6.652  14.039  0.00  0.00    +0.000 A 
ATOM      4  C   UNL     1      47.534   7.814  13.931  0.00  0.00    +0.000 A 
ATOM      5  C   UNL     1      48.014   8.956  14.560  0.00  0.00    +0.000 A 
ATOM      6  N   UNL     1      49.142   8.991  15.302  0.00  0.00    +0.000 NA
ENDROOT
BRANCH   1   7
ATOM      7  C   UNL     1      51.022   7.867  16.393  0.00  0.00    +0.000 C 
BRANCH   7   8
ATOM      8  N   UNL     1      50.647   7.805  17.813  0.00  0.00    +0.000 NA
ATOM      9  H   UNL     1      51.220   8.478  18.325  0.00  0.00    +0.000 HD
BRANCH   8  10
ATOM     10  C   UNL     1      50.922   6.485  18.427  0.00  0.00    +0.000 C 
BRANCH  10  11
ATOM     11  C   UNL     1      49.806   5.473  18.189  0.00  0.00    +0.000 A 
ATOM     12  C   UNL     1      50.125   4.162  17.791  0.00  0.00    +0.000 A 
ATOM     13  C   UNL     1      49.117   3.227  17.546  0.00  0.00    +0.000 A 
ATOM     14  C   UNL     1      47.787   3.591  17.713  0.00  0.00    +0.000 A 
ATOM     15  F   UNL     1      46.819   2.700  17.470  0.00  0.00    +0.000 F 
ATOM     16  C   UNL     1      47.445   4.867  18.133  0.00  0.00    +0.000 A 
ATOM     17  C   UNL     1      48.448   5.802  18.376  0.00  0.00    +0.000 A 
ENDBRANCH  10  11
BRANCH  10  18
ATOM     18  C   UNL     1      52.327   5.912  18.093  0.00  0.00    +0.000 C 
BRANCH  18  20
ATOM     19  C   UNL     1      53.578   6.460  19.995  0.00  0.00    +0.000 C 
ATOM     20  O   UNL     1      52.978   5.395  19.260  0.00  0.00    +0.000 OA
ENDBRANCH  18  20
ENDBRANCH  10  18
ENDBRANCH   8  10
ENDBRANCH   7   8
ENDBRANCH   1   7
BRANCH   4  21
ATOM     21  C   UNL     1      46.252   7.849  13.163  0.00  0.00    +0.000 C 
BRANCH  21  22
ATOM     22  N   UNL     1      46.155   6.749  12.244  0.00  0.00    +0.000 N 
ATOM     23  C   UNL     1      45.333   6.851  11.144  0.00  0.00    +0.000 C 
ATOM     24  O   UNL     1      44.636   7.835  10.933  0.00  0.00    +0.000 OA
ATOM     25  H   UNL     1      46.827   5.996  12.289  0.00  0.00    +0.000 HD
BRANCH  23  26
ATOM     26  C   UNL     1      45.351   5.687  10.272  0.00  0.00    +0.000 A 
ATOM     27  C   UNL     1      46.073   5.566   9.092  0.00  0.00    +0.000 A 
ATOM     28  N   UNL     1      45.910   4.291   8.617  0.00  0.00    +0.000 N 
ATOM     29  C   UNL     1      46.544   3.749   7.439  0.00  0.00    +0.000 C 
ATOM     30  C   UNL     1      45.067   3.595   9.440  0.00  0.00    +0.000 A 
ATOM     31  N   UNL     1      44.691   2.314   9.267  0.00  0.00    +0.000 NA
ATOM     32  C   UNL     1      43.841   1.912  10.226  0.00  0.00    +0.000 A 
ATOM     33  N   UNL     1      43.349   2.624  11.256  0.00  0.00    +0.000 NA
ATOM     34  C   UNL     1      43.765   3.906  11.387  0.00  0.00    +0.000 A 
ATOM     35  C   UNL     1      44.678   4.440  10.471  0.00  0.00    +0.000 A 
BRANCH  34  36
ATOM     36  O   UNL     1      43.254   4.700  12.390  0.00  0.00    +0.000 OA
ATOM     37  C   UNL     1      42.234   5.589  11.960  0.00  0.00    +0.000 C 
ENDBRANCH  34  36
ENDBRANCH  23  26
ENDBRANCH  21  22
ENDBRANCH   4  21
TORSDOF 10
ENDMDL
