MODEL 1
REMARK VINA RESULT:    -6.800      0.000      0.000
REMARK INTER + INTRA:          -9.967
REMARK INTER:                  -9.582
REMARK INTRA:                  -0.385
REMARK UNBOUND:                -0.385
REMARK  Name = 
REMARK  9 active torsions:
REMARK  status: ('A' for Active; 'I' for Inactive)
REMARK    1  A    between atoms: C_1  and  C_2
REMARK    2  A    between atoms: C_2  and  N_3
REMARK    3  A    between atoms: N_3  and  C_4
REMARK    4  A    between atoms: N_3  and  C_5
REMARK    5  A    between atoms: C_5  and  C_6
REMARK    6  A    between atoms: C_9  and  O_10
REMARK    7  A    between atoms: O_10  and  C_11
REMARK    8  A    between atoms: C_11  and  C_12
REMARK    9  A    between atoms: C_16  and  C_17
REMARK                            x       y       z     vdW  Elec       q    Type
REMARK                         _______ _______ _______ _____ _____    ______ ____
ROOT
ATOM      1  O   UNL     1      44.503   5.298  10.807  0.00  0.00    +0.000 OA
ENDROOT
BRANCH   1   5
ATOM      2  C   UNL     1      46.846   5.048  14.195  0.00  0.00    +0.000 A 
ATOM      3  C   UNL     1      47.069   6.061  13.266  0.00  0.00    +0.000 A 
ATOM      4  C   UNL     1      46.268   6.116  12.123  0.00  0.00    +0.000 A 
ATOM      5  C   UNL     1      45.259   5.176  11.941  0.00  0.00    +0.000 A 
ATOM      6  C   UNL     1      45.118   4.195  12.911  0.00  0.00    +0.000 A 
ATOM      7  N   UNL     1      45.879   4.112  14.026  0.00  0.00    +0.000 NA
BRANCH   2   8
ATOM      8  C   UNL     1      47.713   4.895  15.429  0.00  0.00    +0.000 C 
BRANCH   8   9
ATOM      9  N   UNL     1      47.288   3.865  16.411  0.00  0.00    +0.000 NA
ATOM     10  C   UNL     1      47.135   4.531  17.711  0.00  0.00    +0.000 C 
BRANCH   9  12
ATOM     11  C   UNL     1      49.181   2.846  17.711  0.00  0.00    +0.000 C 
ATOM     12  C   UNL     1      48.278   2.771  16.480  0.00  0.00    +0.000 C 
ENDBRANCH   9  12
ENDBRANCH   8   9
ENDBRANCH   2   8
ENDBRANCH   1   5
BRANCH   1  13
ATOM     13  C   UNL     1      45.260   5.438   9.600  0.00  0.00    +0.000 C 
BRANCH  13  14
ATOM     14  C   UNL     1      45.501   4.080   8.993  0.00  0.00    +0.000 A 
ATOM     15  C   UNL     1      44.928   2.944   9.535  0.00  0.00    +0.000 A 
ATOM     16  C   UNL     1      45.205   1.754   8.898  0.00  0.00    +0.000 A 
ATOM     17  N   UNL     1      45.987   1.655   7.808  0.00  0.00    +0.000 NA
ATOM     18  C   UNL     1      46.503   2.825   7.358  0.00  0.00    +0.000 A 
ATOM     19  N   UNL     1      46.288   4.037   7.897  0.00  0.00    +0.000 NA
BRANCH  18  20
ATOM     20  C   UNL     1      47.394   2.754   6.140  0.00  0.00    +0.000 C 
ATOM     21  N   UNL     1      48.719   2.481   6.388  0.00  0.00    +0.000 N 
ATOM     22  O   UNL     1      47.001   2.921   4.990  0.00  0.00    +0.000 OA
ATOM     23  H   UNL     1      49.043   2.351   7.340  0.00  0.00    +0.000 HD
ATOM     24  H   UNL     1      49.365   2.434   5.612  0.00  0.00    +0.000 HD
ENDBRANCH  18  20
ENDBRANCH  13  14
ENDBRANCH   1  13
TORSDOF 7
ENDMDL
MODEL 2
REMARK VINA RESULT:    -6.256      3.630      8.096
REMARK INTER + INTRA:          -9.202
REMARK INTER:                  -8.946
REMARK INTRA:                  -0.256
REMARK UNBOUND:                -0.385
REMARK  Name = 
REMARK  9 active torsions:
REMARK  status: ('A' for Active; 'I' for Inactive)
REMARK    1  A    between atoms: C_1  and  C_2
REMARK    2  A    between atoms: C_2  and  N_3
REMARK    3  A    between atoms: N_3  and  C_4
REMARK    4  A    between atoms: N_3  and  C_5
REMARK    5  A    between atoms: C_5  and  C_6
REMARK    6  A    between atoms: C_9  and  O_10
REMARK    7  A    between atoms: O_10  and  C_11
REMARK    8  A    between atoms: C_11  and  C_12
REMARK    9  A    between atoms: C_16  and  C_17
REMARK                            x       y       z     vdW  Elec       q    Type
REMARK                         _______ _______ _______ _____ _____    ______ ____
ROOT
ATOM      1  O   UNL     1      48.692   6.091  14.492  0.00  0.00    +0.000 OA
ENDROOT
BRANCH   1   5
ATOM      2  C   UNL     1      44.944   5.413  12.907  0.00  0.00    +0.000 A 
ATOM      3  C   UNL     1      45.587   6.627  12.682  0.00  0.00    +0.000 A 
ATOM      4  C   UNL     1      46.851   6.834  13.239  0.00  0.00    +0.000 A 
ATOM      5  C   UNL     1      47.448   5.827  13.989  0.00  0.00    +0.000 A 
ATOM      6  C   UNL     1      46.728   4.655  14.172  0.00  0.00    +0.000 A 
ATOM      7  N   UNL     1      45.502   4.425  13.650  0.00  0.00    +0.000 NA
BRANCH   2   8
ATOM      8  C   UNL     1      43.549   5.142  12.380  0.00  0.00    +0.000 C 
BRANCH   8   9
ATOM      9  N   UNL     1      43.455   4.291  11.166  0.00  0.00    +0.000 NA
ATOM     10  C   UNL     1      43.328   2.897  11.612  0.00  0.00    +0.000 C 
BRANCH   9  12
ATOM     11  C   UNL     1      44.440   3.978   8.877  0.00  0.00    +0.000 C 
ATOM     12  C   UNL     1      44.642   4.476  10.307  0.00  0.00    +0.000 C 
ENDBRANCH   9  12
ENDBRANCH   8   9
ENDBRANCH   2   8
ENDBRANCH   1   5
BRANCH   1  13
ATOM     13  C   UNL     1      48.692   6.779  15.747  0.00  0.00    +0.000 C 
BRANCH  13  14
ATOM     14  C   UNL     1      48.832   5.785  16.871  0.00  0.00    +0.000 A 
ATOM     15  C   UNL     1      48.291   6.037  18.118  0.00  0.00    +0.000 A 
ATOM     16  C   UNL     1      48.467   5.060  19.073  0.00  0.00    +0.000 A 
ATOM     17  N   UNL     1      49.127   3.909  18.849  0.00  0.00    +0.000 NA
ATOM     18  C   UNL     1      49.622   3.759  17.597  0.00  0.00    +0.000 A 
ATOM     19  N   UNL     1      49.497   4.644  16.593  0.00  0.00    +0.000 NA
BRANCH  18  20
ATOM     20  C   UNL     1      50.377   2.483  17.309  0.00  0.00    +0.000 C 
ATOM     21  N   UNL     1      51.459   2.236  18.123  0.00  0.00    +0.000 N 
ATOM     22  O   UNL     1      50.077   1.693  16.420  0.00  0.00    +0.000 OA
ATOM     23  H   UNL     1      51.709   2.895  18.851  0.00  0.00    +0.000 HD
ATOM     24  H   UNL     1      52.010   1.402  17.968  0.00  0.00    +0.000 HD
ENDBRANCH  18  20
ENDBRANCH  13  14
ENDBRANCH   1  13
TORSDOF 7
ENDMDL
MODEL 3
REMARK VINA RESULT:    -6.202      2.590      7.847
REMARK INTER + INTRA:          -9.126
REMARK INTER:                  -8.680
REMARK INTRA:                  -0.446
REMARK UNBOUND:                -0.385
REMARK  Name = 
REMARK  9 active torsions:
REMARK  status: ('A' for Active; 'I' for Inactive)
REMARK    1  A    between atoms: C_1  and  C_2
REMARK    2  A    between atoms: C_2  and  N_3
REMARK    3  A    between atoms: N_3  and  C_4
REMARK    4  A    between atoms: N_3  and  C_5
REMARK    5  A    between atoms: C_5  and  C_6
REMARK    6  A    between atoms: C_9  and  O_10
REMARK    7  A    between atoms: O_10  and  C_11
REMARK    8  A    between atoms: C_11  and  C_12
REMARK    9  A    between atoms: C_16  and  C_17
REMARK                            x       y       z     vdW  Elec       q    Type
REMARK                         _______ _______ _______ _____ _____    ______ ____
ROOT
ATOM      1  O   UNL     1      46.417   6.896  13.324  0.00  0.00    +0.000 OA
ENDROOT
BRANCH   1   5
ATOM      2  C   UNL     1      45.139   4.252  10.426  0.00  0.00    +0.000 A 
ATOM      3  C   UNL     1      45.024   3.919  11.773  0.00  0.00    +0.000 A 
ATOM      4  C   UNL     1      45.474   4.829  12.733  0.00  0.00    +0.000 A 
ATOM      5  C   UNL     1      46.010   6.048  12.332  0.00  0.00    +0.000 A 
ATOM      6  C   UNL     1      46.098   6.288  10.968  0.00  0.00    +0.000 A 
ATOM      7  N   UNL     1      45.675   5.427  10.015  0.00  0.00    +0.000 NA
BRANCH   2   8
ATOM      8  C   UNL     1      44.723   3.290   9.331  0.00  0.00    +0.000 C 
BRANCH   8   9
ATOM      9  N   UNL     1      45.813   2.738   8.487  0.00  0.00    +0.000 NA
ATOM     10  C   UNL     1      45.714   3.374   7.167  0.00  0.00    +0.000 C 
BRANCH   9  12
ATOM     11  C   UNL     1      46.862   0.622   7.632  0.00  0.00    +0.000 C 
ATOM     12  C   UNL     1      45.701   1.269   8.386  0.00  0.00    +0.000 C 
ENDBRANCH   9  12
ENDBRANCH   8   9
ENDBRANCH   2   8
ENDBRANCH   1   5
BRANCH   1  13
ATOM     13  C   UNL     1      47.833   6.932  13.532  0.00  0.00    +0.000 C 
BRANCH  13  14
ATOM     14  C   UNL     1      48.157   6.402  14.905  0.00  0.00    +0.000 A 
ATOM     15  C   UNL     1      48.652   7.234  15.893  0.00  0.00    +0.000 A 
ATOM     16  C   UNL     1      48.906   6.651  17.115  0.00  0.00    +0.000 A 
ATOM     17  N   UNL     1      48.705   5.346  17.376  0.00  0.00    +0.000 NA
ATOM     18  C   UNL     1      48.223   4.617  16.341  0.00  0.00    +0.000 A 
ATOM     19  N   UNL     1      47.931   5.088  15.117  0.00  0.00    +0.000 NA
BRANCH  18  20
ATOM     20  C   UNL     1      47.991   3.145  16.593  0.00  0.00    +0.000 C 
ATOM     21  N   UNL     1      47.078   2.848  17.578  0.00  0.00    +0.000 N 
ATOM     22  O   UNL     1      48.558   2.246  15.982  0.00  0.00    +0.000 OA
ATOM     23  H   UNL     1      46.617   3.594  18.087  0.00  0.00    +0.000 HD
ATOM     24  H   UNL     1      46.892   1.879  17.800  0.00  0.00    +0.000 HD
ENDBRANCH  18  20
ENDBRANCH  13  14
ENDBRANCH   1  13
TORSDOF 7
ENDMDL
MODEL 4
REMARK VINA RESULT:    -6.121      3.293      8.109
REMARK INTER + INTRA:          -9.011
REMARK INTER:                  -8.774
REMARK INTRA:                  -0.237
REMARK UNBOUND:                -0.385
REMARK  Name = 
REMARK  9 active torsions:
REMARK  status: ('A' for Active; 'I' for Inactive)
REMARK    1  A    between atoms: C_1  and  C_2
REMARK    2  A    between atoms: C_2  and  N_3
REMARK    3  A    between atoms: N_3  and  C_4
REMARK    4  A    between atoms: N_3  and  C_5
REMARK    5  A    between atoms: C_5  and  C_6
REMARK    6  A    between atoms: C_9  and  O_10
REMARK    7  A    between atoms: O_10  and  C_11
REMARK    8  A    between atoms: C_11  and  C_12
REMARK    9  A    between atoms: C_16  and  C_17
REMARK                            x       y       z     vdW  Elec       q    Type
REMARK                         _______ _______ _______ _____ _____    ______ ____
ROOT
ATOM      1  O   UNL     1      48.686   6.331  13.527  0.00  0.00    +0.000 OA
ENDROOT
BRANCH   1   5
ATOM      2  C   UNL     1      45.055   5.404  11.801  0.00  0.00    +0.000 A 
ATOM      3  C   UNL     1      45.878   6.366  11.221  0.00  0.00    +0.000 A 
ATOM      4  C   UNL     1      47.097   6.668  11.832  0.00  0.00    +0.000 A 
ATOM      5  C   UNL     1      47.473   5.997  12.991  0.00  0.00    +0.000 A 
ATOM      6  C   UNL     1      46.584   5.065  13.505  0.00  0.00    +0.000 A 
ATOM      7  N   UNL     1      45.396   4.753  12.941  0.00  0.00    +0.000 NA
BRANCH   2   8
ATOM      8  C   UNL     1      43.695   5.068  11.223  0.00  0.00    +0.000 C 
BRANCH   8   9
ATOM      9  N   UNL     1      43.566   3.744  10.564  0.00  0.00    +0.000 NA
ATOM     10  C   UNL     1      43.284   2.754  11.612  0.00  0.00    +0.000 C 
BRANCH   9  12
ATOM     11  C   UNL     1      44.735   3.766   8.341  0.00  0.00    +0.000 C 
ATOM     12  C   UNL     1      44.800   3.408   9.824  0.00  0.00    +0.000 C 
ENDBRANCH   9  12
ENDBRANCH   8   9
ENDBRANCH   2   8
ENDBRANCH   1   5
BRANCH   1  13
ATOM     13  C   UNL     1      48.613   7.051  14.762  0.00  0.00    +0.000 C 
BRANCH  13  14
ATOM     14  C   UNL     1      49.194   6.216  15.873  0.00  0.00    +0.000 A 
ATOM     15  C   UNL     1      50.479   6.436  16.333  0.00  0.00    +0.000 A 
ATOM     16  C   UNL     1      50.911   5.623  17.358  0.00  0.00    +0.000 A 
ATOM     17  N   UNL     1      50.159   4.653  17.909  0.00  0.00    +0.000 NA
ATOM     18  C   UNL     1      48.917   4.515  17.384  0.00  0.00    +0.000 A 
ATOM     19  N   UNL     1      48.396   5.260  16.394  0.00  0.00    +0.000 NA
BRANCH  18  20
ATOM     20  C   UNL     1      48.045   3.430  17.971  0.00  0.00    +0.000 C 
ATOM     21  N   UNL     1      48.317   3.090  19.276  0.00  0.00    +0.000 N 
ATOM     22  O   UNL     1      47.144   2.866  17.358  0.00  0.00    +0.000 OA
ATOM     23  H   UNL     1      49.067   3.552  19.777  0.00  0.00    +0.000 HD
ATOM     24  H   UNL     1      47.773   2.360  19.717  0.00  0.00    +0.000 HD
ENDBRANCH  18  20
ENDBRANCH  13  14
ENDBRANCH   1  13
TORSDOF 7
ENDMDL
MODEL 5
REMARK VINA RESULT:    -6.086      2.268      3.133
REMARK INTER + INTRA:          -8.962
REMARK INTER:                  -8.408
REMARK INTRA:                  -0.553
REMARK UNBOUND:                -0.385
REMARK  Name = 
REMARK  9 active torsions:
REMARK  status: ('A' for Active; 'I' for Inactive)
REMARK    1  A    between atoms: C_1  and  C_2
REMARK    2  A    between atoms: C_2  and  N_3
REMARK    3  A    between atoms: N_3  and  C_4
REMARK    4  A    between atoms: N_3  and  C_5
REMARK    5  A    between atoms: C_5  and  C_6
REMARK    6  A    between atoms: C_9  and  O_10
REMARK    7  A    between atoms: O_10  and  C_11
REMARK    8  A    between atoms: C_11  and  C_12
REMARK    9  A    between atoms: C_16  and  C_17
REMARK                            x       y       z     vdW  Elec       q    Type
REMARK                         _______ _______ _______ _____ _____    ______ ____
ROOT
ATOM      1  O   UNL     1      47.006   6.500  11.807  0.00  0.00    +0.000 OA
ENDROOT
BRANCH   1   5
ATOM      2  C   UNL     1      48.348   5.841  15.653  0.00  0.00    +0.000 A 
ATOM      3  C   UNL     1      48.648   7.036  15.005  0.00  0.00    +0.000 A 
ATOM      4  C   UNL     1      48.190   7.229  13.700  0.00  0.00    +0.000 A 
ATOM      5  C   UNL     1      47.435   6.239  13.079  0.00  0.00    +0.000 A 
ATOM      6  C   UNL     1      47.197   5.075  13.796  0.00  0.00    +0.000 A 
ATOM      7  N   UNL     1      47.629   4.857  15.058  0.00  0.00    +0.000 NA
BRANCH   2   8
ATOM      8  C   UNL     1      48.860   5.542  17.048  0.00  0.00    +0.000 C 
BRANCH   8   9
ATOM      9  N   UNL     1      47.981   4.711  17.910  0.00  0.00    +0.000 NA
ATOM     10  C   UNL     1      47.424   5.588  18.948  0.00  0.00    +0.000 C 
BRANCH   9  12
ATOM     11  C   UNL     1      49.515   2.771  17.471  0.00  0.00    +0.000 C 
ATOM     12  C   UNL     1      48.741   3.591  18.502  0.00  0.00    +0.000 C 
ENDBRANCH   9  12
ENDBRANCH   8   9
ENDBRANCH   2   8
ENDBRANCH   1   5
BRANCH   1  13
ATOM     13  C   UNL     1      45.630   6.879  11.709  0.00  0.00    +0.000 C 
BRANCH  13  14
ATOM     14  C   UNL     1      44.780   5.654  11.491  0.00  0.00    +0.000 A 
ATOM     15  C   UNL     1      43.730   5.355  12.340  0.00  0.00    +0.000 A 
ATOM     16  C   UNL     1      43.010   4.217  12.047  0.00  0.00    +0.000 A 
ATOM     17  N   UNL     1      43.281   3.409  11.006  0.00  0.00    +0.000 NA
ATOM     18  C   UNL     1      44.332   3.788  10.238  0.00  0.00    +0.000 A 
ATOM     19  N   UNL     1      45.090   4.881  10.430  0.00  0.00    +0.000 NA
BRANCH  18  20
ATOM     20  C   UNL     1      44.673   2.902   9.064  0.00  0.00    +0.000 C 
ATOM     21  N   UNL     1      44.325   3.394   7.827  0.00  0.00    +0.000 N 
ATOM     22  O   UNL     1      45.224   1.810   9.163  0.00  0.00    +0.000 OA
ATOM     23  H   UNL     1      43.862   4.293   7.748  0.00  0.00    +0.000 HD
ATOM     24  H   UNL     1      44.517   2.838   7.004  0.00  0.00    +0.000 HD
ENDBRANCH  18  20
ENDBRANCH  13  14
ENDBRANCH   1  13
TORSDOF 7
ENDMDL
MODEL 6
REMARK VINA RESULT:    -5.966      4.456      8.530
REMARK INTER + INTRA:          -8.793
REMARK INTER:                  -8.148
REMARK INTRA:                  -0.645
REMARK UNBOUND:                -0.385
REMARK  Name = 
REMARK  9 active torsions:
REMARK  status: ('A' for Active; 'I' for Inactive)
REMARK    1  A    between atoms: C_1  and  C_2
REMARK    2  A    between atoms: C_2  and  N_3
REMARK    3  A    between atoms: N_3  and  C_4
REMARK    4  A    between atoms: N_3  and  C_5
REMARK    5  A    between atoms: C_5  and  C_6
REMARK    6  A    between atoms: C_9  and  O_10
REMARK    7  A    between atoms: O_10  and  C_11
REMARK    8  A    between atoms: C_11  and  C_12
REMARK    9  A    between atoms: C_16  and  C_17
REMARK                            x       y       z     vdW  Elec       q    Type
REMARK                         _______ _______ _______ _____ _____    ______ ____
ROOT
ATOM      1  O   UNL     1      48.889   6.235  15.760  0.00  0.00    +0.000 OA
ENDROOT
BRANCH   1   5
ATOM      2  C   UNL     1      46.187   4.672  13.062  0.00  0.00    +0.000 A 
ATOM      3  C   UNL     1      46.888   5.834  12.753  0.00  0.00    +0.000 A 
ATOM      4  C   UNL     1      47.790   6.347  13.688  0.00  0.00    +0.000 A 
ATOM      5  C   UNL     1      47.981   5.686  14.897  0.00  0.00    +0.000 A 
ATOM      6  C   UNL     1      47.229   4.543  15.125  0.00  0.00    +0.000 A 
ATOM      7  N   UNL     1      46.347   4.023  14.242  0.00  0.00    +0.000 NA
BRANCH   2   8
ATOM      8  C   UNL     1      45.154   4.091  12.117  0.00  0.00    +0.000 C 
BRANCH   8   9
ATOM      9  N   UNL     1      43.875   3.648  12.728  0.00  0.00    +0.000 NA
ATOM     10  C   UNL     1      43.277   2.653  11.829  0.00  0.00    +0.000 C 
BRANCH   9  12
ATOM     11  C   UNL     1      42.640   5.551  11.650  0.00  0.00    +0.000 C 
ATOM     12  C   UNL     1      42.971   4.797  12.937  0.00  0.00    +0.000 C 
ENDBRANCH   9  12
ENDBRANCH   8   9
ENDBRANCH   2   8
ENDBRANCH   1   5
BRANCH   1  13
ATOM     13  C   UNL     1      48.826   5.722  17.094  0.00  0.00    +0.000 C 
BRANCH  13  14
ATOM     14  C   UNL     1      50.161   5.135  17.476  0.00  0.00    +0.000 A 
ATOM     15  C   UNL     1      51.187   5.939  17.938  0.00  0.00    +0.000 A 
ATOM     16  C   UNL     1      52.363   5.303  18.269  0.00  0.00    +0.000 A 
ATOM     17  N   UNL     1      52.549   3.975  18.160  0.00  0.00    +0.000 NA
ATOM     18  C   UNL     1      51.484   3.277  17.695  0.00  0.00    +0.000 A 
ATOM     19  N   UNL     1      50.293   3.798  17.355  0.00  0.00    +0.000 NA
BRANCH  18  20
ATOM     20  C   UNL     1      51.657   1.783  17.552  0.00  0.00    +0.000 C 
ATOM     21  N   UNL     1      52.659   1.225  18.312  0.00  0.00    +0.000 N 
ATOM     22  O   UNL     1      50.970   1.079  16.819  0.00  0.00    +0.000 OA
ATOM     23  H   UNL     1      53.230   1.811  18.911  0.00  0.00    +0.000 HD
ATOM     24  H   UNL     1      52.829   0.231  18.247  0.00  0.00    +0.000 HD
ENDBRANCH  18  20
ENDBRANCH  13  14
ENDBRANCH   1  13
TORSDOF 7
ENDMDL
MODEL 7
REMARK VINA RESULT:    -5.878      2.318      7.959
REMARK INTER + INTRA:          -8.669
REMARK INTER:                  -8.305
REMARK INTRA:                  -0.364
REMARK UNBOUND:                -0.385
REMARK  Name = 
REMARK  9 active torsions:
REMARK  status: ('A' for Active; 'I' for Inactive)
REMARK    1  A    between atoms: C_1  and  C_2
REMARK    2  A    between atoms: C_2  and  N_3
REMARK    3  A    between atoms: N_3  and  C_4
REMARK    4  A    between atoms: N_3  and  C_5
REMARK    5  A    between atoms: C_5  and  C_6
REMARK    6  A    between atoms: C_9  and  O_10
REMARK    7  A    between atoms: O_10  and  C_11
REMARK    8  A    between atoms: C_11  and  C_12
REMARK    9  A    between atoms: C_16  and  C_17
REMARK                            x       y       z     vdW  Elec       q    Type
REMARK                         _______ _______ _______ _____ _____    ______ ____
ROOT
ATOM      1  O   UNL     1      45.154   5.697  12.122  0.00  0.00    +0.000 OA
ENDROOT
BRANCH   1   5
ATOM      2  C   UNL     1      45.456   3.662   8.545  0.00  0.00    +0.000 A 
ATOM      3  C   UNL     1      44.857   3.054   9.645  0.00  0.00    +0.000 A 
ATOM      4  C   UNL     1      44.777   3.762  10.846  0.00  0.00    +0.000 A 
ATOM      5  C   UNL     1      45.279   5.057  10.919  0.00  0.00    +0.000 A 
ATOM      6  C   UNL     1      45.871   5.577   9.778  0.00  0.00    +0.000 A 
ATOM      7  N   UNL     1      45.967   4.917   8.601  0.00  0.00    +0.000 NA
BRANCH   2   8
ATOM      8  C   UNL     1      45.626   2.933   7.227  0.00  0.00    +0.000 C 
BRANCH   8   9
ATOM      9  N   UNL     1      46.992   2.930   6.645  0.00  0.00    +0.000 NA
ATOM     10  C   UNL     1      46.853   3.087   5.191  0.00  0.00    +0.000 C 
BRANCH   9  12
ATOM     11  C   UNL     1      46.790   0.606   7.576  0.00  0.00    +0.000 C 
ATOM     12  C   UNL     1      47.702   1.680   6.986  0.00  0.00    +0.000 C 
ENDBRANCH   9  12
ENDBRANCH   8   9
ENDBRANCH   2   8
ENDBRANCH   1   5
BRANCH   1  13
ATOM     13  C   UNL     1      46.367   6.276  12.615  0.00  0.00    +0.000 C 
BRANCH  13  14
ATOM     14  C   UNL     1      46.923   5.420  13.724  0.00  0.00    +0.000 A 
ATOM     15  C   UNL     1      46.777   4.045  13.705  0.00  0.00    +0.000 A 
ATOM     16  C   UNL     1      47.331   3.355  14.760  0.00  0.00    +0.000 A 
ATOM     17  N   UNL     1      47.982   3.945  15.779  0.00  0.00    +0.000 NA
ATOM     18  C   UNL     1      48.067   5.296  15.706  0.00  0.00    +0.000 A 
ATOM     19  N   UNL     1      47.573   6.061  14.718  0.00  0.00    +0.000 NA
BRANCH  18  20
ATOM     20  C   UNL     1      48.785   5.997  16.835  0.00  0.00    +0.000 C 
ATOM     21  N   UNL     1      48.004   6.818  17.616  0.00  0.00    +0.000 N 
ATOM     22  O   UNL     1      49.981   5.868  17.074  0.00  0.00    +0.000 OA
ATOM     23  H   UNL     1      47.018   6.929  17.411  0.00  0.00    +0.000 HD
ATOM     24  H   UNL     1      48.434   7.324  18.379  0.00  0.00    +0.000 HD
ENDBRANCH  18  20
ENDBRANCH  13  14
ENDBRANCH   1  13
TORSDOF 7
ENDMDL
MODEL 8
REMARK VINA RESULT:    -5.726      2.647      7.859
REMARK INTER + INTRA:          -8.454
REMARK INTER:                  -8.537
REMARK INTRA:                   0.083
REMARK UNBOUND:                -0.385
REMARK  Name = 
REMARK  9 active torsions:
REMARK  status: ('A' for Active; 'I' for Inactive)
REMARK    1  A    between atoms: C_1  and  C_2
REMARK    2  A    between atoms: C_2  and  N_3
REMARK    3  A    between atoms: N_3  and  C_4
REMARK    4  A    between atoms: N_3  and  C_5
REMARK    5  A    between atoms: C_5  and  C_6
REMARK    6  A    between atoms: C_9  and  O_10
REMARK    7  A    between atoms: O_10  and  C_11
REMARK    8  A    between atoms: C_11  and  C_12
REMARK    9  A    between atoms: C_16  and  C_17
REMARK                            x       y       z     vdW  Elec       q    Type
REMARK                         _______ _______ _______ _____ _____    ______ ____
ROOT
ATOM      1  O   UNL     1      45.668   4.700  13.985  0.00  0.00    +0.000 OA
ENDROOT
BRANCH   1   5
ATOM      2  C   UNL     1      44.863   4.206   9.968  0.00  0.00    +0.000 A 
ATOM      3  C   UNL     1      45.554   5.332  10.408  0.00  0.00    +0.000 A 
ATOM      4  C   UNL     1      45.805   5.479  11.774  0.00  0.00    +0.000 A 
ATOM      5  C   UNL     1      45.376   4.499  12.664  0.00  0.00    +0.000 A 
ATOM      6  C   UNL     1      44.683   3.419  12.138  0.00  0.00    +0.000 A 
ATOM      7  N   UNL     1      44.422   3.249  10.822  0.00  0.00    +0.000 NA
BRANCH   2   8
ATOM      8  C   UNL     1      44.509   4.010   8.508  0.00  0.00    +0.000 C 
BRANCH   8   9
ATOM      9  N   UNL     1      45.340   3.040   7.751  0.00  0.00    +0.000 NA
ATOM     10  C   UNL     1      45.632   1.914   8.648  0.00  0.00    +0.000 C 
BRANCH   9  12
ATOM     11  C   UNL     1      47.647   2.681   6.824  0.00  0.00    +0.000 C 
ATOM     12  C   UNL     1      46.581   3.680   7.269  0.00  0.00    +0.000 C 
ENDBRANCH   9  12
ENDBRANCH   8   9
ENDBRANCH   2   8
ENDBRANCH   1   5
BRANCH   1  13
ATOM     13  C   UNL     1      46.762   3.921  14.478  0.00  0.00    +0.000 C 
BRANCH  13  14
ATOM     14  C   UNL     1      47.569   4.739  15.453  0.00  0.00    +0.000 A 
ATOM     15  C   UNL     1      47.576   4.437  16.803  0.00  0.00    +0.000 A 
ATOM     16  C   UNL     1      48.354   5.240  17.607  0.00  0.00    +0.000 A 
ATOM     17  N   UNL     1      49.080   6.276  17.149  0.00  0.00    +0.000 NA
ATOM     18  C   UNL     1      49.002   6.491  15.813  0.00  0.00    +0.000 A 
ATOM     19  N   UNL     1      48.284   5.762  14.941  0.00  0.00    +0.000 NA
BRANCH  18  20
ATOM     20  C   UNL     1      49.797   7.650  15.261  0.00  0.00    +0.000 C 
ATOM     21  N   UNL     1      51.087   7.358  14.878  0.00  0.00    +0.000 N 
ATOM     22  O   UNL     1      49.360   8.791  15.145  0.00  0.00    +0.000 OA
ATOM     23  H   UNL     1      51.448   6.417  14.983  0.00  0.00    +0.000 HD
ATOM     24  H   UNL     1      51.671   8.099  14.513  0.00  0.00    +0.000 HD
ENDBRANCH  18  20
ENDBRANCH  13  14
ENDBRANCH   1  13
TORSDOF 7
ENDMDL
MODEL 9
REMARK VINA RESULT:    -5.622      2.068      2.410
REMARK INTER + INTRA:          -8.307
REMARK INTER:                  -7.671
REMARK INTRA:                  -0.636
REMARK UNBOUND:                -0.385
REMARK  Name = 
REMARK  9 active torsions:
REMARK  status: ('A' for Active; 'I' for Inactive)
REMARK    1  A    between atoms: C_1  and  C_2
REMARK    2  A    between atoms: C_2  and  N_3
REMARK    3  A    between atoms: N_3  and  C_4
REMARK    4  A    between atoms: N_3  and  C_5
REMARK    5  A    between atoms: C_5  and  C_6
REMARK    6  A    between atoms: C_9  and  O_10
REMARK    7  A    between atoms: O_10  and  C_11
REMARK    8  A    between atoms: C_11  and  C_12
REMARK    9  A    between atoms: C_16  and  C_17
REMARK                            x       y       z     vdW  Elec       q    Type
REMARK                         _______ _______ _______ _____ _____    ______ ____
ROOT
ATOM      1  O   UNL     1      44.725   6.118  12.129  0.00  0.00    +0.000 OA
ENDROOT
BRANCH   1   5
ATOM      2  C   UNL     1      48.186   6.889  14.239  0.00  0.00    +0.000 A 
ATOM      3  C   UNL     1      47.489   7.933  13.636  0.00  0.00    +0.000 A 
ATOM      4  C   UNL     1      46.326   7.643  12.920  0.00  0.00    +0.000 A 
ATOM      5  C   UNL     1      45.878   6.329  12.833  0.00  0.00    +0.000 A 
ATOM      6  C   UNL     1      46.643   5.352  13.453  0.00  0.00    +0.000 A 
ATOM      7  N   UNL     1      47.775   5.600  14.150  0.00  0.00    +0.000 NA
BRANCH   2   8
ATOM      8  C   UNL     1      49.485   7.125  14.984  0.00  0.00    +0.000 C 
BRANCH   8   9
ATOM      9  N   UNL     1      49.370   7.404  16.438  0.00  0.00    +0.000 NA
ATOM     10  C   UNL     1      50.330   8.468  16.760  0.00  0.00    +0.000 C 
BRANCH   9  12
ATOM     11  C   UNL     1      48.369   5.516  17.758  0.00  0.00    +0.000 C 
ATOM     12  C   UNL     1      49.636   6.183  17.226  0.00  0.00    +0.000 C 
ENDBRANCH   9  12
ENDBRANCH   8   9
ENDBRANCH   2   8
ENDBRANCH   1   5
BRANCH   1  13
ATOM     13  C   UNL     1      44.876   6.182  10.707  0.00  0.00    +0.000 C 
BRANCH  13  14
ATOM     14  C   UNL     1      44.860   4.790  10.131  0.00  0.00    +0.000 A 
ATOM     15  C   UNL     1      44.133   3.778  10.732  0.00  0.00    +0.000 A 
ATOM     16  C   UNL     1      44.178   2.545  10.120  0.00  0.00    +0.000 A 
ATOM     17  N   UNL     1      44.881   2.291   9.001  0.00  0.00    +0.000 NA
ATOM     18  C   UNL     1      45.561   3.348   8.494  0.00  0.00    +0.000 A 
ATOM     19  N   UNL     1      45.576   4.591   9.005  0.00  0.00    +0.000 NA
BRANCH  18  20
ATOM     20  C   UNL     1      46.369   3.101   7.242  0.00  0.00    +0.000 C 
ATOM     21  N   UNL     1      46.892   1.835   7.112  0.00  0.00    +0.000 N 
ATOM     22  O   UNL     1      46.568   3.946   6.375  0.00  0.00    +0.000 OA
ATOM     23  H   UNL     1      46.733   1.142   7.834  0.00  0.00    +0.000 HD
ATOM     24  H   UNL     1      47.453   1.616   6.299  0.00  0.00    +0.000 HD
ENDBRANCH  18  20
ENDBRANCH  13  14
ENDBRANCH   1  13
TORSDOF 7
ENDMDL
