MODEL 1
REMARK VINA RESULT:    -5.936      0.000      0.000
REMARK INTER + INTRA:          -7.879
REMARK INTER:                  -7.497
REMARK INTRA:                  -0.382
REMARK UNBOUND:                -0.382
REMARK  Name = 
REMARK  5 active torsions:
REMARK  status: ('A' for Active; 'I' for Inactive)
REMARK    1  A    between atoms: N_1  and  C_2
REMARK    2  A    between atoms: C_2  and  C_3
REMARK    3  A    between atoms: C_7  and  C_8
REMARK    4  A    between atoms: C_9  and  C_10
REMARK    5  A    between atoms: C_13  and  C_14
REMARK                            x       y       z     vdW  Elec       q    Type
REMARK                         _______ _______ _______ _____ _____    ______ ____
ROOT
ATOM      1  C   UNL     1      46.888   5.261  13.894  0.00  0.00    +0.000 C 
ATOM      2  C   UNL     1      46.906   4.287  14.822  0.00  0.00    +0.000 C 
ENDROOT
BRANCH   1   7
ATOM      3  C   UNL     1      44.527   4.031  11.379  0.00  0.00    +0.000 A 
ATOM      4  C   UNL     1      44.701   4.901  10.307  0.00  0.00    +0.000 A 
ATOM      5  C   UNL     1      45.642   5.919  10.416  0.00  0.00    +0.000 A 
ATOM      6  C   UNL     1      46.379   6.044  11.591  0.00  0.00    +0.000 A 
ATOM      7  C   UNL     1      46.151   5.142  12.624  0.00  0.00    +0.000 A 
ATOM      8  N   UNL     1      45.243   4.142  12.527  0.00  0.00    +0.000 NA
BRANCH   3   9
ATOM      9  C   UNL     1      43.506   2.916  11.309  0.00  0.00    +0.000 C 
BRANCH   9  10
ATOM     10  N   UNL     1      43.486   2.079  12.513  0.00  0.00    +0.000 NA
ATOM     11  H   UNL     1      43.342   2.682  13.321  0.00  0.00    +0.000 HD
ATOM     12  H   UNL     1      44.417   1.677  12.626  0.00  0.00    +0.000 HD
ENDBRANCH   9  10
ENDBRANCH   3   9
ENDBRANCH   1   7
BRANCH   2  13
ATOM     13  C   UNL     1      47.598   4.343  16.119  0.00  0.00    +0.000 A 
ATOM     14  C   UNL     1      47.585   3.284  17.035  0.00  0.00    +0.000 A 
ATOM     15  C   UNL     1      48.300   3.373  18.235  0.00  0.00    +0.000 A 
ATOM     16  C   UNL     1      49.054   4.515  18.527  0.00  0.00    +0.000 A 
ATOM     17  C   UNL     1      49.078   5.575  17.617  0.00  0.00    +0.000 A 
ATOM     18  C   UNL     1      48.357   5.483  16.421  0.00  0.00    +0.000 A 
BRANCH  16  19
ATOM     19  C   UNL     1      49.789   4.565  19.818  0.00  0.00    +0.000 C 
ATOM     20  N   UNL     1      49.089   4.285  20.958  0.00  0.00    +0.000 N 
ATOM     21  O   UNL     1      50.971   4.882  19.872  0.00  0.00    +0.000 OA
ATOM     22  H   UNL     1      48.079   4.255  20.987  0.00  0.00    +0.000 HD
ATOM     23  H   UNL     1      49.581   4.427  21.830  0.00  0.00    +0.000 HD
ENDBRANCH  16  19
ENDBRANCH   2  13
TORSDOF 5
ENDMDL
MODEL 2
REMARK VINA RESULT:    -5.637      1.562      2.006
REMARK INTER + INTRA:          -7.502
REMARK INTER:                  -7.143
REMARK INTRA:                  -0.359
REMARK UNBOUND:                -0.382
REMARK  Name = 
REMARK  5 active torsions:
REMARK  status: ('A' for Active; 'I' for Inactive)
REMARK    1  A    between atoms: N_1  and  C_2
REMARK    2  A    between atoms: C_2  and  C_3
REMARK    3  A    between atoms: C_7  and  C_8
REMARK    4  A    between atoms: C_9  and  C_10
REMARK    5  A    between atoms: C_13  and  C_14
REMARK                            x       y       z     vdW  Elec       q    Type
REMARK                         _______ _______ _______ _____ _____    ______ ____
ROOT
ATOM      1  C   UNL     1      46.237   5.260  13.741  0.00  0.00    +0.000 C 
ATOM      2  C   UNL     1      46.532   4.237  14.561  0.00  0.00    +0.000 C 
ENDROOT
BRANCH   1   7
ATOM      3  C   UNL     1      44.670   4.627  10.492  0.00  0.00    +0.000 A 
ATOM      4  C   UNL     1      43.329   4.933  10.705  0.00  0.00    +0.000 A 
ATOM      5  C   UNL     1      42.934   5.376  11.962  0.00  0.00    +0.000 A 
ATOM      6  C   UNL     1      43.885   5.500  12.972  0.00  0.00    +0.000 A 
ATOM      7  C   UNL     1      45.207   5.174  12.691  0.00  0.00    +0.000 A 
ATOM      8  N   UNL     1      45.605   4.748  11.468  0.00  0.00    +0.000 NA
BRANCH   3   9
ATOM      9  C   UNL     1      45.142   4.129   9.143  0.00  0.00    +0.000 C 
BRANCH   9  10
ATOM     10  N   UNL     1      45.926   5.125   8.406  0.00  0.00    +0.000 NA
ATOM     11  H   UNL     1      46.854   5.175   8.821  0.00  0.00    +0.000 HD
ATOM     12  H   UNL     1      45.497   6.037   8.567  0.00  0.00    +0.000 HD
ENDBRANCH   9  10
ENDBRANCH   3   9
ENDBRANCH   1   7
BRANCH   2  13
ATOM     13  C   UNL     1      47.528   4.256  15.644  0.00  0.00    +0.000 A 
ATOM     14  C   UNL     1      47.887   3.115  16.369  0.00  0.00    +0.000 A 
ATOM     15  C   UNL     1      48.876   3.182  17.358  0.00  0.00    +0.000 A 
ATOM     16  C   UNL     1      49.534   4.389  17.621  0.00  0.00    +0.000 A 
ATOM     17  C   UNL     1      49.187   5.533  16.898  0.00  0.00    +0.000 A 
ATOM     18  C   UNL     1      48.194   5.462  15.914  0.00  0.00    +0.000 A 
BRANCH  16  19
ATOM     19  C   UNL     1      50.569   4.411  18.687  0.00  0.00    +0.000 C 
ATOM     20  N   UNL     1      50.147   4.340  19.984  0.00  0.00    +0.000 N 
ATOM     21  O   UNL     1      51.761   4.525  18.421  0.00  0.00    +0.000 OA
ATOM     22  H   UNL     1      49.184   4.484  20.255  0.00  0.00    +0.000 HD
ATOM     23  H   UNL     1      50.859   4.462  20.693  0.00  0.00    +0.000 HD
ENDBRANCH  16  19
ENDBRANCH   2  13
TORSDOF 5
ENDMDL
MODEL 3
REMARK VINA RESULT:    -5.633      3.562      8.086
REMARK INTER + INTRA:          -7.497
REMARK INTER:                  -7.159
REMARK INTRA:                  -0.338
REMARK UNBOUND:                -0.382
REMARK  Name = 
REMARK  5 active torsions:
REMARK  status: ('A' for Active; 'I' for Inactive)
REMARK    1  A    between atoms: N_1  and  C_2
REMARK    2  A    between atoms: C_2  and  C_3
REMARK    3  A    between atoms: C_7  and  C_8
REMARK    4  A    between atoms: C_9  and  C_10
REMARK    5  A    between atoms: C_13  and  C_14
REMARK                            x       y       z     vdW  Elec       q    Type
REMARK                         _______ _______ _______ _____ _____    ______ ____
ROOT
ATOM      1  C   UNL     1      47.473   4.276  15.997  0.00  0.00    +0.000 C 
ATOM      2  C   UNL     1      47.570   4.912  14.816  0.00  0.00    +0.000 C 
ENDROOT
BRANCH   1   7
ATOM      3  C   UNL     1      50.556   3.428  17.782  0.00  0.00    +0.000 A 
ATOM      4  C   UNL     1      50.593   4.340  18.833  0.00  0.00    +0.000 A 
ATOM      5  C   UNL     1      49.555   5.257  18.961  0.00  0.00    +0.000 A 
ATOM      6  C   UNL     1      48.511   5.240  18.039  0.00  0.00    +0.000 A 
ATOM      7  C   UNL     1      48.541   4.304  17.011  0.00  0.00    +0.000 A 
ATOM      8  N   UNL     1      49.543   3.402  16.880  0.00  0.00    +0.000 NA
BRANCH   3   9
ATOM      9  C   UNL     1      51.671   2.422  17.596  0.00  0.00    +0.000 C 
BRANCH   9  10
ATOM     10  N   UNL     1      51.207   1.033  17.665  0.00  0.00    +0.000 NA
ATOM     11  H   UNL     1      51.979   0.452  17.988  0.00  0.00    +0.000 HD
ATOM     12  H   UNL     1      51.007   0.726  16.712  0.00  0.00    +0.000 HD
ENDBRANCH   9  10
ENDBRANCH   3   9
ENDBRANCH   1   7
BRANCH   2  13
ATOM     13  C   UNL     1      46.539   4.947  13.767  0.00  0.00    +0.000 A 
ATOM     14  C   UNL     1      46.025   6.139  13.244  0.00  0.00    +0.000 A 
ATOM     15  C   UNL     1      45.079   6.115  12.212  0.00  0.00    +0.000 A 
ATOM     16  C   UNL     1      44.648   4.896  11.676  0.00  0.00    +0.000 A 
ATOM     17  C   UNL     1      45.160   3.701  12.187  0.00  0.00    +0.000 A 
ATOM     18  C   UNL     1      46.101   3.731  13.222  0.00  0.00    +0.000 A 
BRANCH  16  19
ATOM     19  C   UNL     1      43.635   4.922  10.588  0.00  0.00    +0.000 C 
ATOM     20  N   UNL     1      43.998   4.421   9.370  0.00  0.00    +0.000 N 
ATOM     21  O   UNL     1      42.523   5.408  10.759  0.00  0.00    +0.000 OA
ATOM     22  H   UNL     1      44.959   4.235   9.119  0.00  0.00    +0.000 HD
ATOM     23  H   UNL     1      43.331   4.544   8.620  0.00  0.00    +0.000 HD
ENDBRANCH  16  19
ENDBRANCH   2  13
TORSDOF 5
ENDMDL
MODEL 4
REMARK VINA RESULT:    -5.189      5.306      7.847
REMARK INTER + INTRA:          -6.935
REMARK INTER:                  -6.566
REMARK INTRA:                  -0.369
REMARK UNBOUND:                -0.382
REMARK  Name = 
REMARK  5 active torsions:
REMARK  status: ('A' for Active; 'I' for Inactive)
REMARK    1  A    between atoms: N_1  and  C_2
REMARK    2  A    between atoms: C_2  and  C_3
REMARK    3  A    between atoms: C_7  and  C_8
REMARK    4  A    between atoms: C_9  and  C_10
REMARK    5  A    between atoms: C_13  and  C_14
REMARK                            x       y       z     vdW  Elec       q    Type
REMARK                         _______ _______ _______ _____ _____    ______ ____
ROOT
ATOM      1  C   UNL     1      49.075   7.967  11.662  0.00  0.00    +0.000 C 
ATOM      2  C   UNL     1      48.607   6.890  12.318  0.00  0.00    +0.000 C 
ENDROOT
BRANCH   1   7
ATOM      3  C   UNL     1      52.642   7.800  10.850  0.00  0.00    +0.000 A 
ATOM      4  C   UNL     1      53.171   8.942  11.443  0.00  0.00    +0.000 A 
ATOM      5  C   UNL     1      52.321   9.787  12.147  0.00  0.00    +0.000 A 
ATOM      6  C   UNL     1      50.967   9.472  12.238  0.00  0.00    +0.000 A 
ATOM      7  C   UNL     1      50.505   8.317  11.617  0.00  0.00    +0.000 A 
ATOM      8  N   UNL     1      51.325   7.483  10.934  0.00  0.00    +0.000 NA
BRANCH   3   9
ATOM      9  C   UNL     1      53.528   6.859  10.063  0.00  0.00    +0.000 C 
BRANCH   9  10
ATOM     10  N   UNL     1      53.160   5.450  10.229  0.00  0.00    +0.000 NA
ATOM     11  H   UNL     1      53.805   5.025  10.892  0.00  0.00    +0.000 HD
ATOM     12  H   UNL     1      53.325   4.980   9.338  0.00  0.00    +0.000 HD
ENDBRANCH   9  10
ENDBRANCH   3   9
ENDBRANCH   1   7
BRANCH   2  13
ATOM     13  C   UNL     1      47.200   6.465  12.388  0.00  0.00    +0.000 A 
ATOM     14  C   UNL     1      46.748   5.467  13.258  0.00  0.00    +0.000 A 
ATOM     15  C   UNL     1      45.389   5.135  13.317  0.00  0.00    +0.000 A 
ATOM     16  C   UNL     1      44.460   5.812  12.518  0.00  0.00    +0.000 A 
ATOM     17  C   UNL     1      44.901   6.813  11.649  0.00  0.00    +0.000 A 
ATOM     18  C   UNL     1      46.261   7.138  11.591  0.00  0.00    +0.000 A 
BRANCH  16  19
ATOM     19  C   UNL     1      43.030   5.416  12.609  0.00  0.00    +0.000 C 
ATOM     20  N   UNL     1      42.144   6.043  11.779  0.00  0.00    +0.000 N 
ATOM     21  O   UNL     1      42.645   4.584  13.423  0.00  0.00    +0.000 OA
ATOM     22  H   UNL     1      42.372   6.886  11.272  0.00  0.00    +0.000 HD
ATOM     23  H   UNL     1      41.166   5.834  11.930  0.00  0.00    +0.000 HD
ENDBRANCH  16  19
ENDBRANCH   2  13
TORSDOF 5
ENDMDL
MODEL 5
REMARK VINA RESULT:    -5.174      3.464      8.201
REMARK INTER + INTRA:          -6.916
REMARK INTER:                  -6.554
REMARK INTRA:                  -0.362
REMARK UNBOUND:                -0.382
REMARK  Name = 
REMARK  5 active torsions:
REMARK  status: ('A' for Active; 'I' for Inactive)
REMARK    1  A    between atoms: N_1  and  C_2
REMARK    2  A    between atoms: C_2  and  C_3
REMARK    3  A    between atoms: C_7  and  C_8
REMARK    4  A    between atoms: C_9  and  C_10
REMARK    5  A    between atoms: C_13  and  C_14
REMARK                            x       y       z     vdW  Elec       q    Type
REMARK                         _______ _______ _______ _____ _____    ______ ____
ROOT
ATOM      1  C   UNL     1      47.720   5.087  15.447  0.00  0.00    +0.000 C 
ATOM      2  C   UNL     1      46.706   4.435  14.851  0.00  0.00    +0.000 C 
ENDROOT
BRANCH   1   7
ATOM      3  C   UNL     1      48.177   5.718  19.025  0.00  0.00    +0.000 A 
ATOM      4  C   UNL     1      48.699   4.523  19.510  0.00  0.00    +0.000 A 
ATOM      5  C   UNL     1      48.919   3.478  18.619  0.00  0.00    +0.000 A 
ATOM      6  C   UNL     1      48.611   3.653  17.272  0.00  0.00    +0.000 A 
ATOM      7  C   UNL     1      48.089   4.873  16.858  0.00  0.00    +0.000 A 
ATOM      8  N   UNL     1      47.876   5.900  17.715  0.00  0.00    +0.000 NA
BRANCH   3   9
ATOM      9  C   UNL     1      47.909   6.877  19.961  0.00  0.00    +0.000 C 
BRANCH   9  10
ATOM     10  N   UNL     1      47.585   8.121  19.257  0.00  0.00    +0.000 NA
ATOM     11  H   UNL     1      47.191   7.883  18.348  0.00  0.00    +0.000 HD
ATOM     12  H   UNL     1      48.463   8.605  19.063  0.00  0.00    +0.000 HD
ENDBRANCH   9  10
ENDBRANCH   3   9
ENDBRANCH   1   7
BRANCH   2  13
ATOM     13  C   UNL     1      46.295   4.579  13.446  0.00  0.00    +0.000 A 
ATOM     14  C   UNL     1      46.540   5.734  12.695  0.00  0.00    +0.000 A 
ATOM     15  C   UNL     1      46.169   5.799  11.346  0.00  0.00    +0.000 A 
ATOM     16  C   UNL     1      45.564   4.701  10.725  0.00  0.00    +0.000 A 
ATOM     17  C   UNL     1      45.319   3.541  11.465  0.00  0.00    +0.000 A 
ATOM     18  C   UNL     1      45.688   3.483  12.814  0.00  0.00    +0.000 A 
BRANCH  16  19
ATOM     19  C   UNL     1      45.179   4.822   9.294  0.00  0.00    +0.000 C 
ATOM     20  N   UNL     1      43.902   4.481   8.949  0.00  0.00    +0.000 N 
ATOM     21  O   UNL     1      45.984   5.179   8.442  0.00  0.00    +0.000 OA
ATOM     22  H   UNL     1      43.289   3.964   9.563  0.00  0.00    +0.000 HD
ATOM     23  H   UNL     1      43.695   4.471   7.959  0.00  0.00    +0.000 HD
ENDBRANCH  16  19
ENDBRANCH   2  13
TORSDOF 5
ENDMDL
MODEL 6
REMARK VINA RESULT:    -5.149      4.861      8.000
REMARK INTER + INTRA:          -6.885
REMARK INTER:                  -6.522
REMARK INTRA:                  -0.363
REMARK UNBOUND:                -0.382
REMARK  Name = 
REMARK  5 active torsions:
REMARK  status: ('A' for Active; 'I' for Inactive)
REMARK    1  A    between atoms: N_1  and  C_2
REMARK    2  A    between atoms: C_2  and  C_3
REMARK    3  A    between atoms: C_7  and  C_8
REMARK    4  A    between atoms: C_9  and  C_10
REMARK    5  A    between atoms: C_13  and  C_14
REMARK                            x       y       z     vdW  Elec       q    Type
REMARK                         _______ _______ _______ _____ _____    ______ ____
ROOT
ATOM      1  C   UNL     1      48.070   8.037  11.877  0.00  0.00    +0.000 C 
ATOM      2  C   UNL     1      47.142   7.389  12.603  0.00  0.00    +0.000 C 
ENDROOT
BRANCH   1   7
ATOM      3  C   UNL     1      49.424  10.485  14.240  0.00  0.00    +0.000 A 
ATOM      4  C   UNL     1      50.366  11.184  13.491  0.00  0.00    +0.000 A 
ATOM      5  C   UNL     1      50.547  10.843  12.156  0.00  0.00    +0.000 A 
ATOM      6  C   UNL     1      49.789   9.813  11.605  0.00  0.00    +0.000 A 
ATOM      7  C   UNL     1      48.869   9.153  12.413  0.00  0.00    +0.000 A 
ATOM      8  N   UNL     1      48.677   9.482  13.713  0.00  0.00    +0.000 NA
BRANCH   3   9
ATOM      9  C   UNL     1      49.203  10.814  15.701  0.00  0.00    +0.000 C 
BRANCH   9  10
ATOM     10  N   UNL     1      48.081  10.078  16.292  0.00  0.00    +0.000 NA
ATOM     11  H   UNL     1      47.567  10.711  16.902  0.00  0.00    +0.000 HD
ATOM     12  H   UNL     1      48.471   9.357  16.901  0.00  0.00    +0.000 HD
ENDBRANCH   9  10
ENDBRANCH   3   9
ENDBRANCH   1   7
BRANCH   2  13
ATOM     13  C   UNL     1      46.325   6.254  12.144  0.00  0.00    +0.000 A 
ATOM     14  C   UNL     1      45.871   6.126  10.827  0.00  0.00    +0.000 A 
ATOM     15  C   UNL     1      45.136   5.001  10.434  0.00  0.00    +0.000 A 
ATOM     16  C   UNL     1      44.862   3.979  11.349  0.00  0.00    +0.000 A 
ATOM     17  C   UNL     1      45.315   4.095  12.666  0.00  0.00    +0.000 A 
ATOM     18  C   UNL     1      46.045   5.224  13.055  0.00  0.00    +0.000 A 
BRANCH  16  19
ATOM     19  C   UNL     1      44.069   2.810  10.886  0.00  0.00    +0.000 C 
ATOM     20  N   UNL     1      44.518   2.134   9.787  0.00  0.00    +0.000 N 
ATOM     21  O   UNL     1      43.029   2.479  11.443  0.00  0.00    +0.000 OA
ATOM     22  H   UNL     1      45.222   2.507   9.165  0.00  0.00    +0.000 HD
ATOM     23  H   UNL     1      43.909   1.410   9.429  0.00  0.00    +0.000 HD
ENDBRANCH  16  19
ENDBRANCH   2  13
TORSDOF 5
ENDMDL
MODEL 7
REMARK VINA RESULT:    -5.127      5.184      7.960
REMARK INTER + INTRA:          -6.857
REMARK INTER:                  -6.480
REMARK INTRA:                  -0.377
REMARK UNBOUND:                -0.382
REMARK  Name = 
REMARK  5 active torsions:
REMARK  status: ('A' for Active; 'I' for Inactive)
REMARK    1  A    between atoms: N_1  and  C_2
REMARK    2  A    between atoms: C_2  and  C_3
REMARK    3  A    between atoms: C_7  and  C_8
REMARK    4  A    between atoms: C_9  and  C_10
REMARK    5  A    between atoms: C_13  and  C_14
REMARK                            x       y       z     vdW  Elec       q    Type
REMARK                         _______ _______ _______ _____ _____    ______ ____
ROOT
ATOM      1  C   UNL     1      48.846   7.791  11.590  0.00  0.00    +0.000 C 
ATOM      2  C   UNL     1      48.007   7.279  12.508  0.00  0.00    +0.000 C 
ENDROOT
BRANCH   1   7
ATOM      3  C   UNL     1      51.835   9.417  12.942  0.00  0.00    +0.000 A 
ATOM      4  C   UNL     1      51.741  10.725  12.478  0.00  0.00    +0.000 A 
ATOM      5  C   UNL     1      50.643  11.084  11.703  0.00  0.00    +0.000 A 
ATOM      6  C   UNL     1      49.673  10.128  11.411  0.00  0.00    +0.000 A 
ATOM      7  C   UNL     1      49.833   8.839  11.904  0.00  0.00    +0.000 A 
ATOM      8  N   UNL     1      50.894   8.479  12.666  0.00  0.00    +0.000 NA
BRANCH   3   9
ATOM      9  C   UNL     1      53.019   8.980  13.778  0.00  0.00    +0.000 C 
BRANCH   9  10
ATOM     10  N   UNL     1      52.861   7.635  14.338  0.00  0.00    +0.000 NA
ATOM     11  H   UNL     1      52.239   7.693  15.143  0.00  0.00    +0.000 HD
ATOM     12  H   UNL     1      53.768   7.344  14.706  0.00  0.00    +0.000 HD
ENDBRANCH   9  10
ENDBRANCH   3   9
ENDBRANCH   1   7
BRANCH   2  13
ATOM     13  C   UNL     1      47.014   6.219  12.275  0.00  0.00    +0.000 A 
ATOM     14  C   UNL     1      46.750   5.205  13.203  0.00  0.00    +0.000 A 
ATOM     15  C   UNL     1      45.760   4.248  12.949  0.00  0.00    +0.000 A 
ATOM     16  C   UNL     1      45.006   4.304  11.772  0.00  0.00    +0.000 A 
ATOM     17  C   UNL     1      45.258   5.316  10.842  0.00  0.00    +0.000 A 
ATOM     18  C   UNL     1      46.252   6.267  11.098  0.00  0.00    +0.000 A 
BRANCH  16  19
ATOM     19  C   UNL     1      43.973   3.260  11.544  0.00  0.00    +0.000 C 
ATOM     20  N   UNL     1      43.770   2.341  12.535  0.00  0.00    +0.000 N 
ATOM     21  O   UNL     1      43.348   3.195  10.492  0.00  0.00    +0.000 OA
ATOM     22  H   UNL     1      44.414   2.212  13.302  0.00  0.00    +0.000 HD
ATOM     23  H   UNL     1      43.139   1.581  12.316  0.00  0.00    +0.000 HD
ENDBRANCH  16  19
ENDBRANCH   2  13
TORSDOF 5
ENDMDL
MODEL 8
REMARK VINA RESULT:    -5.075      3.906      8.004
REMARK INTER + INTRA:          -6.792
REMARK INTER:                  -6.427
REMARK INTRA:                  -0.365
REMARK UNBOUND:                -0.382
REMARK  Name = 
REMARK  5 active torsions:
REMARK  status: ('A' for Active; 'I' for Inactive)
REMARK    1  A    between atoms: N_1  and  C_2
REMARK    2  A    between atoms: C_2  and  C_3
REMARK    3  A    between atoms: C_7  and  C_8
REMARK    4  A    between atoms: C_9  and  C_10
REMARK    5  A    between atoms: C_13  and  C_14
REMARK                            x       y       z     vdW  Elec       q    Type
REMARK                         _______ _______ _______ _____ _____    ______ ____
ROOT
ATOM      1  C   UNL     1      48.594   6.991  14.202  0.00  0.00    +0.000 C 
ATOM      2  C   UNL     1      47.837   5.888  14.334  0.00  0.00    +0.000 C 
ENDROOT
BRANCH   1   7
ATOM      3  C   UNL     1      51.250   6.656  16.701  0.00  0.00    +0.000 A 
ATOM      4  C   UNL     1      51.659   7.967  16.928  0.00  0.00    +0.000 A 
ATOM      5  C   UNL     1      51.025   8.996  16.241  0.00  0.00    +0.000 A 
ATOM      6  C   UNL     1      50.003   8.690  15.346  0.00  0.00    +0.000 A 
ATOM      7  C   UNL     1      49.648   7.359  15.164  0.00  0.00    +0.000 A 
ATOM      8  N   UNL     1      50.253   6.348  15.833  0.00  0.00    +0.000 NA
BRANCH   3   9
ATOM      9  C   UNL     1      51.921   5.504  17.417  0.00  0.00    +0.000 C 
BRANCH   9  10
ATOM     10  N   UNL     1      51.192   4.239  17.279  0.00  0.00    +0.000 NA
ATOM     11  H   UNL     1      50.660   4.080  18.132  0.00  0.00    +0.000 HD
ATOM     12  H   UNL     1      51.882   3.488  17.236  0.00  0.00    +0.000 HD
ENDBRANCH   9  10
ENDBRANCH   3   9
ENDBRANCH   1   7
BRANCH   2  13
ATOM     13  C   UNL     1      46.785   5.446  13.404  0.00  0.00    +0.000 A 
ATOM     14  C   UNL     1      46.198   6.295  12.459  0.00  0.00    +0.000 A 
ATOM     15  C   UNL     1      45.235   5.809  11.567  0.00  0.00    +0.000 A 
ATOM     16  C   UNL     1      44.860   4.462  11.595  0.00  0.00    +0.000 A 
ATOM     17  C   UNL     1      45.444   3.604  12.531  0.00  0.00    +0.000 A 
ATOM     18  C   UNL     1      46.403   4.096  13.424  0.00  0.00    +0.000 A 
BRANCH  16  19
ATOM     19  C   UNL     1      43.826   3.996  10.634  0.00  0.00    +0.000 C 
ATOM     20  N   UNL     1      43.894   4.464   9.352  0.00  0.00    +0.000 N 
ATOM     21  O   UNL     1      42.919   3.248  10.980  0.00  0.00    +0.000 OA
ATOM     22  H   UNL     1      44.468   5.252   9.087  0.00  0.00    +0.000 HD
ATOM     23  H   UNL     1      43.123   4.218   8.745  0.00  0.00    +0.000 HD
ENDBRANCH  16  19
ENDBRANCH   2  13
TORSDOF 5
ENDMDL
MODEL 9
REMARK VINA RESULT:    -5.069      4.332      5.145
REMARK INTER + INTRA:          -6.785
REMARK INTER:                  -6.426
REMARK INTRA:                  -0.359
REMARK UNBOUND:                -0.382
REMARK  Name = 
REMARK  5 active torsions:
REMARK  status: ('A' for Active; 'I' for Inactive)
REMARK    1  A    between atoms: N_1  and  C_2
REMARK    2  A    between atoms: C_2  and  C_3
REMARK    3  A    between atoms: C_7  and  C_8
REMARK    4  A    between atoms: C_9  and  C_10
REMARK    5  A    between atoms: C_13  and  C_14
REMARK                            x       y       z     vdW  Elec       q    Type
REMARK                         _______ _______ _______ _____ _____    ______ ____
ROOT
ATOM      1  C   UNL     1      46.676   6.048  12.902  0.00  0.00    +0.000 C 
ATOM      2  C   UNL     1      47.600   6.637  12.123  0.00  0.00    +0.000 C 
ENDROOT
BRANCH   1   7
ATOM      3  C   UNL     1      44.351   4.500  10.534  0.00  0.00    +0.000 A 
ATOM      4  C   UNL     1      43.232   4.209  11.310  0.00  0.00    +0.000 A 
ATOM      5  C   UNL     1      43.244   4.549  12.658  0.00  0.00    +0.000 A 
ATOM      6  C   UNL     1      44.370   5.167  13.196  0.00  0.00    +0.000 A 
ATOM      7  C   UNL     1      45.454   5.425  12.364  0.00  0.00    +0.000 A 
ATOM      8  N   UNL     1      45.451   5.105  11.048  0.00  0.00    +0.000 NA
BRANCH   3   9
ATOM      9  C   UNL     1      44.386   4.135   9.066  0.00  0.00    +0.000 C 
BRANCH   9  10
ATOM     10  N   UNL     1      45.469   4.801   8.335  0.00  0.00    +0.000 NA
ATOM     11  H   UNL     1      45.831   5.557   8.914  0.00  0.00    +0.000 HD
ATOM     12  H   UNL     1      45.059   5.249   7.515  0.00  0.00    +0.000 HD
ENDBRANCH   9  10
ENDBRANCH   3   9
ENDBRANCH   1   7
BRANCH   2  13
ATOM     13  C   UNL     1      48.852   7.257  12.585  0.00  0.00    +0.000 A 
ATOM     14  C   UNL     1      49.237   7.284  13.930  0.00  0.00    +0.000 A 
ATOM     15  C   UNL     1      50.462   7.846  14.308  0.00  0.00    +0.000 A 
ATOM     16  C   UNL     1      51.328   8.371  13.342  0.00  0.00    +0.000 A 
ATOM     17  C   UNL     1      50.955   8.344  11.996  0.00  0.00    +0.000 A 
ATOM     18  C   UNL     1      49.727   7.785  11.624  0.00  0.00    +0.000 A 
BRANCH  16  19
ATOM     19  C   UNL     1      52.613   8.966  13.795  0.00  0.00    +0.000 C 
ATOM     20  N   UNL     1      52.569  10.193  14.394  0.00  0.00    +0.000 N 
ATOM     21  O   UNL     1      53.683   8.398  13.608  0.00  0.00    +0.000 OA
ATOM     22  H   UNL     1      51.757  10.792  14.355  0.00  0.00    +0.000 HD
ATOM     23  H   UNL     1      53.462  10.622  14.599  0.00  0.00    +0.000 HD
ENDBRANCH  16  19
ENDBRANCH   2  13
TORSDOF 5
ENDMDL
