MODEL 1
REMARK VINA RESULT:    -6.564      0.000      0.000
REMARK INTER + INTRA:          -9.629
REMARK INTER:                  -8.482
REMARK INTRA:                  -1.147
REMARK UNBOUND:                -1.147
REMARK  Name = 
REMARK  6 active torsions:
REMARK  status: ('A' for Active; 'I' for Inactive)
REMARK    1  A    between atoms: N_1  and  C_2
REMARK    2  A    between atoms: C_2  and  C_3
REMARK    3  A    between atoms: C_3  and  C_4
REMARK    4  A    between atoms: C_9  and  O_10
REMARK    5  A    between atoms: N_13  and  C_14
REMARK    6  A    between atoms: C_14  and  C_15
REMARK                            x       y       z     vdW  Elec       q    Type
REMARK                         _______ _______ _______ _____ _____    ______ ____
ROOT
ATOM      1  C   UNL     1      43.581   4.605  10.937  0.00  0.00    +0.000 A 
ATOM      2  N   UNL     1      43.413   3.438  10.342  0.00  0.00    +0.000 NA
ATOM      3  C   UNL     1      44.401   3.342   9.406  0.00  0.00    +0.000 A 
ATOM      4  C   UNL     1      44.653   2.315   8.482  0.00  0.00    +0.000 A 
ATOM      5  C   UNL     1      45.730   2.448   7.597  0.00  0.00    +0.000 A 
ATOM      6  C   UNL     1      46.520   3.592   7.631  0.00  0.00    +0.000 A 
ATOM      7  C   UNL     1      46.281   4.634   8.528  0.00  0.00    +0.000 A 
ATOM      8  C   UNL     1      45.216   4.469   9.426  0.00  0.00    +0.000 A 
ATOM      9  N   UNL     1      44.709   5.242  10.454  0.00  0.00    +0.000 N 
ENDROOT
BRANCH   6  10
ATOM     10  O   UNL     1      47.581   3.740   6.783  0.00  0.00    +0.000 OA
ATOM     11  H   UNL     1      47.580   4.649   6.443  0.00  0.00    +0.000 HD
ENDBRANCH   6  10
BRANCH   1  12
ATOM     12  C   UNL     1      42.641   5.142  11.971  0.00  0.00    +0.000 C 
BRANCH  12  13
ATOM     13  C   UNL     1      43.038   4.678  13.373  0.00  0.00    +0.000 C 
BRANCH  13  14
ATOM     14  N   UNL     1      43.953   3.538  13.319  0.00  0.00    +0.000 NA
ATOM     15  H   UNL     1      44.617   3.609  14.089  0.00  0.00    +0.000 HD
ATOM     16  H   UNL     1      44.510   3.592  12.465  0.00  0.00    +0.000 HD
ENDBRANCH  13  14
ENDBRANCH  12  13
ENDBRANCH   1  12
BRANCH   9  17
ATOM     17  C   UNL     1      45.212   6.556  10.830  0.00  0.00    +0.000 C 
BRANCH  17  18
ATOM     18  C   UNL     1      46.358   6.536  11.818  0.00  0.00    +0.000 A 
ATOM     19  C   UNL     1      47.325   7.541  11.865  0.00  0.00    +0.000 A 
ATOM     20  C   UNL     1      48.248   7.565  12.910  0.00  0.00    +0.000 A 
ATOM     21  C   UNL     1      48.194   6.582  13.888  0.00  0.00    +0.000 A 
ATOM     22  C   UNL     1      47.223   5.609  13.760  0.00  0.00    +0.000 A 
ATOM     23 CL   UNL     1      47.078   4.357  14.924  0.00  0.00    +0.000 Cl
ATOM     24  N   UNL     1      46.309   5.563  12.764  0.00  0.00    +0.000 NA
ENDBRANCH  17  18
ENDBRANCH   9  17
TORSDOF 6
ENDMDL
MODEL 2
REMARK VINA RESULT:    -6.536      1.976      2.325
REMARK INTER + INTRA:          -9.593
REMARK INTER:                  -9.004
REMARK INTRA:                  -0.589
REMARK UNBOUND:                -1.147
REMARK  Name = 
REMARK  6 active torsions:
REMARK  status: ('A' for Active; 'I' for Inactive)
REMARK    1  A    between atoms: N_1  and  C_2
REMARK    2  A    between atoms: C_2  and  C_3
REMARK    3  A    between atoms: C_3  and  C_4
REMARK    4  A    between atoms: C_9  and  O_10
REMARK    5  A    between atoms: N_13  and  C_14
REMARK    6  A    between atoms: C_14  and  C_15
REMARK                            x       y       z     vdW  Elec       q    Type
REMARK                         _______ _______ _______ _____ _____    ______ ____
ROOT
ATOM      1  C   UNL     1      44.381   3.375  10.054  0.00  0.00    +0.000 A 
ATOM      2  N   UNL     1      44.569   2.111   9.725  0.00  0.00    +0.000 NA
ATOM      3  C   UNL     1      45.536   2.108   8.761  0.00  0.00    +0.000 A 
ATOM      4  C   UNL     1      46.081   1.025   8.053  0.00  0.00    +0.000 A 
ATOM      5  C   UNL     1      47.063   1.272   7.086  0.00  0.00    +0.000 A 
ATOM      6  C   UNL     1      47.471   2.577   6.828  0.00  0.00    +0.000 A 
ATOM      7  C   UNL     1      46.934   3.671   7.506  0.00  0.00    +0.000 A 
ATOM      8  C   UNL     1      45.973   3.400   8.491  0.00  0.00    +0.000 A 
ATOM      9  N   UNL     1      45.262   4.195   9.372  0.00  0.00    +0.000 N 
ENDROOT
BRANCH   6  10
ATOM     10  O   UNL     1      48.434   2.841   5.895  0.00  0.00    +0.000 OA
ATOM     11  H   UNL     1      48.370   2.177   5.189  0.00  0.00    +0.000 HD
ENDBRANCH   6  10
BRANCH   1  12
ATOM     12  C   UNL     1      43.329   3.825  11.019  0.00  0.00    +0.000 C 
BRANCH  12  13
ATOM     13  C   UNL     1      43.538   3.197  12.397  0.00  0.00    +0.000 C 
BRANCH  13  14
ATOM     14  N   UNL     1      44.901   2.689  12.551  0.00  0.00    +0.000 NA
ATOM     15  H   UNL     1      44.976   1.791  12.073  0.00  0.00    +0.000 HD
ATOM     16  H   UNL     1      45.081   2.496  13.537  0.00  0.00    +0.000 HD
ENDBRANCH  13  14
ENDBRANCH  12  13
ENDBRANCH   1  12
BRANCH   9  17
ATOM     17  C   UNL     1      45.347   5.647   9.433  0.00  0.00    +0.000 C 
BRANCH  17  18
ATOM     18  C   UNL     1      45.634   6.207  10.809  0.00  0.00    +0.000 A 
ATOM     19  C   UNL     1      46.485   5.571  11.715  0.00  0.00    +0.000 A 
ATOM     20  C   UNL     1      46.853   6.223  12.892  0.00  0.00    +0.000 A 
ATOM     21  C   UNL     1      46.361   7.494  13.149  0.00  0.00    +0.000 A 
ATOM     22  C   UNL     1      45.506   8.046  12.215  0.00  0.00    +0.000 A 
ATOM     23 CL   UNL     1      44.853   9.615  12.446  0.00  0.00    +0.000 Cl
ATOM     24  N   UNL     1      45.137   7.446  11.062  0.00  0.00    +0.000 NA
ENDBRANCH  17  18
ENDBRANCH   9  17
TORSDOF 6
ENDMDL
MODEL 3
REMARK VINA RESULT:    -5.987      3.143      5.813
REMARK INTER + INTRA:          -8.884
REMARK INTER:                  -8.503
REMARK INTRA:                  -0.381
REMARK UNBOUND:                -1.147
REMARK  Name = 
REMARK  6 active torsions:
REMARK  status: ('A' for Active; 'I' for Inactive)
REMARK    1  A    between atoms: N_1  and  C_2
REMARK    2  A    between atoms: C_2  and  C_3
REMARK    3  A    between atoms: C_3  and  C_4
REMARK    4  A    between atoms: C_9  and  O_10
REMARK    5  A    between atoms: N_13  and  C_14
REMARK    6  A    between atoms: C_14  and  C_15
REMARK                            x       y       z     vdW  Elec       q    Type
REMARK                         _______ _______ _______ _____ _____    ______ ____
ROOT
ATOM      1  C   UNL     1      45.047   7.862  11.770  0.00  0.00    +0.000 A 
ATOM      2  N   UNL     1      46.064   8.209  12.537  0.00  0.00    +0.000 NA
ATOM      3  C   UNL     1      46.528   7.056  13.100  0.00  0.00    +0.000 A 
ATOM      4  C   UNL     1      47.576   6.874  14.017  0.00  0.00    +0.000 A 
ATOM      5  C   UNL     1      47.862   5.581  14.473  0.00  0.00    +0.000 A 
ATOM      6  C   UNL     1      47.101   4.504  14.029  0.00  0.00    +0.000 A 
ATOM      7  C   UNL     1      46.046   4.660  13.130  0.00  0.00    +0.000 A 
ATOM      8  C   UNL     1      45.794   5.959  12.663  0.00  0.00    +0.000 A 
ATOM      9  N   UNL     1      44.885   6.488  11.766  0.00  0.00    +0.000 N 
ENDROOT
BRANCH   6  10
ATOM     10  O   UNL     1      47.367   3.232  14.452  0.00  0.00    +0.000 OA
ATOM     11  H   UNL     1      46.724   2.630  14.044  0.00  0.00    +0.000 HD
ENDBRANCH   6  10
BRANCH   1  12
ATOM     12  C   UNL     1      44.193   8.851  11.041  0.00  0.00    +0.000 C 
BRANCH  12  13
ATOM     13  C   UNL     1      44.369  10.260  11.610  0.00  0.00    +0.000 C 
BRANCH  13  14
ATOM     14  N   UNL     1      43.109  10.781  12.141  0.00  0.00    +0.000 NA
ATOM     15  H   UNL     1      43.274  11.163  13.071  0.00  0.00    +0.000 HD
ATOM     16  H   UNL     1      42.452  10.010  12.269  0.00  0.00    +0.000 HD
ENDBRANCH  13  14
ENDBRANCH  12  13
ENDBRANCH   1  12
BRANCH   9  17
ATOM     17  C   UNL     1      43.859   5.721  11.074  0.00  0.00    +0.000 C 
BRANCH  17  18
ATOM     18  C   UNL     1      44.368   4.496  10.345  0.00  0.00    +0.000 A 
ATOM     19  C   UNL     1      43.899   3.211  10.621  0.00  0.00    +0.000 A 
ATOM     20  C   UNL     1      44.268   2.148   9.797  0.00  0.00    +0.000 A 
ATOM     21  C   UNL     1      45.103   2.385   8.714  0.00  0.00    +0.000 A 
ATOM     22  C   UNL     1      45.542   3.679   8.520  0.00  0.00    +0.000 A 
ATOM     23 CL   UNL     1      46.573   4.066   7.205  0.00  0.00    +0.000 Cl
ATOM     24  N   UNL     1      45.197   4.732   9.295  0.00  0.00    +0.000 NA
ENDBRANCH  17  18
ENDBRANCH   9  17
TORSDOF 6
ENDMDL
MODEL 4
REMARK VINA RESULT:    -5.791      3.027      5.738
REMARK INTER + INTRA:          -8.631
REMARK INTER:                  -8.067
REMARK INTRA:                  -0.564
REMARK UNBOUND:                -1.147
REMARK  Name = 
REMARK  6 active torsions:
REMARK  status: ('A' for Active; 'I' for Inactive)
REMARK    1  A    between atoms: N_1  and  C_2
REMARK    2  A    between atoms: C_2  and  C_3
REMARK    3  A    between atoms: C_3  and  C_4
REMARK    4  A    between atoms: C_9  and  O_10
REMARK    5  A    between atoms: N_13  and  C_14
REMARK    6  A    between atoms: C_14  and  C_15
REMARK                            x       y       z     vdW  Elec       q    Type
REMARK                         _______ _______ _______ _____ _____    ______ ____
ROOT
ATOM      1  C   UNL     1      45.606   5.333  12.739  0.00  0.00    +0.000 A 
ATOM      2  N   UNL     1      46.241   6.354  13.284  0.00  0.00    +0.000 NA
ATOM      3  C   UNL     1      45.730   7.477  12.701  0.00  0.00    +0.000 A 
ATOM      4  C   UNL     1      46.082   8.822  12.902  0.00  0.00    +0.000 A 
ATOM      5  C   UNL     1      45.420   9.813  12.166  0.00  0.00    +0.000 A 
ATOM      6  C   UNL     1      44.443   9.456  11.242  0.00  0.00    +0.000 A 
ATOM      7  C   UNL     1      44.087   8.127  11.013  0.00  0.00    +0.000 A 
ATOM      8  C   UNL     1      44.740   7.151  11.779  0.00  0.00    +0.000 A 
ATOM      9  N   UNL     1      44.634   5.775  11.860  0.00  0.00    +0.000 N 
ENDROOT
BRANCH   6  10
ATOM     10  O   UNL     1      43.778  10.407  10.520  0.00  0.00    +0.000 OA
ATOM     11  H   UNL     1      43.348  11.020  11.138  0.00  0.00    +0.000 HD
ENDBRANCH   6  10
BRANCH   1  12
ATOM     12  C   UNL     1      45.939   3.905  13.038  0.00  0.00    +0.000 C 
BRANCH  12  13
ATOM     13  C   UNL     1      47.086   3.802  14.044  0.00  0.00    +0.000 C 
BRANCH  13  14
ATOM     14  N   UNL     1      46.698   4.335  15.350  0.00  0.00    +0.000 NA
ATOM     15  H   UNL     1      47.365   5.055  15.626  0.00  0.00    +0.000 HD
ATOM     16  H   UNL     1      46.777   3.598  16.053  0.00  0.00    +0.000 HD
ENDBRANCH  13  14
ENDBRANCH  12  13
ENDBRANCH   1  12
BRANCH   9  17
ATOM     17  C   UNL     1      43.748   4.962  11.039  0.00  0.00    +0.000 C 
BRANCH  17  18
ATOM     18  C   UNL     1      44.451   3.954  10.157  0.00  0.00    +0.000 A 
ATOM     19  C   UNL     1      44.136   2.594  10.174  0.00  0.00    +0.000 A 
ATOM     20  C   UNL     1      44.686   1.745   9.214  0.00  0.00    +0.000 A 
ATOM     21  C   UNL     1      45.545   2.265   8.257  0.00  0.00    +0.000 A 
ATOM     22  C   UNL     1      45.826   3.616   8.320  0.00  0.00    +0.000 A 
ATOM     23 CL   UNL     1      46.873   4.347   7.176  0.00  0.00    +0.000 Cl
ATOM     24  N   UNL     1      45.304   4.466   9.232  0.00  0.00    +0.000 NA
ENDBRANCH  17  18
ENDBRANCH   9  17
TORSDOF 6
ENDMDL
MODEL 5
REMARK VINA RESULT:    -5.761      3.213      4.630
REMARK INTER + INTRA:          -8.592
REMARK INTER:                  -7.578
REMARK INTRA:                  -1.014
REMARK UNBOUND:                -1.147
REMARK  Name = 
REMARK  6 active torsions:
REMARK  status: ('A' for Active; 'I' for Inactive)
REMARK    1  A    between atoms: N_1  and  C_2
REMARK    2  A    between atoms: C_2  and  C_3
REMARK    3  A    between atoms: C_3  and  C_4
REMARK    4  A    between atoms: C_9  and  O_10
REMARK    5  A    between atoms: N_13  and  C_14
REMARK    6  A    between atoms: C_14  and  C_15
REMARK                            x       y       z     vdW  Elec       q    Type
REMARK                         _______ _______ _______ _____ _____    ______ ____
ROOT
ATOM      1  C   UNL     1      46.347   7.108  12.115  0.00  0.00    +0.000 A 
ATOM      2  N   UNL     1      45.136   7.239  11.607  0.00  0.00    +0.000 NA
ATOM      3  C   UNL     1      44.547   6.012  11.703  0.00  0.00    +0.000 A 
ATOM      4  C   UNL     1      43.272   5.602  11.279  0.00  0.00    +0.000 A 
ATOM      5  C   UNL     1      42.889   4.269  11.472  0.00  0.00    +0.000 A 
ATOM      6  C   UNL     1      43.774   3.370  12.059  0.00  0.00    +0.000 A 
ATOM      7  C   UNL     1      45.051   3.748  12.474  0.00  0.00    +0.000 A 
ATOM      8  C   UNL     1      45.405   5.094  12.299  0.00  0.00    +0.000 A 
ATOM      9  N   UNL     1      46.533   5.829  12.610  0.00  0.00    +0.000 N 
ENDROOT
BRANCH   6  10
ATOM     10  O   UNL     1      43.419   2.066  12.265  0.00  0.00    +0.000 OA
ATOM     11  H   UNL     1      42.609   2.048  12.800  0.00  0.00    +0.000 HD
ENDBRANCH   6  10
BRANCH   1  12
ATOM     12  C   UNL     1      47.361   8.208  12.115  0.00  0.00    +0.000 C 
BRANCH  12  13
ATOM     13  C   UNL     1      46.972   9.320  13.089  0.00  0.00    +0.000 C 
BRANCH  13  14
ATOM     14  N   UNL     1      47.034   8.860  14.477  0.00  0.00    +0.000 NA
ATOM     15  H   UNL     1      47.726   9.414  14.979  0.00  0.00    +0.000 HD
ATOM     16  H   UNL     1      47.377   7.898  14.499  0.00  0.00    +0.000 HD
ENDBRANCH  13  14
ENDBRANCH  12  13
ENDBRANCH   1  12
BRANCH   9  17
ATOM     17  C   UNL     1      47.740   5.283  13.215  0.00  0.00    +0.000 C 
BRANCH  17  18
ATOM     18  C   UNL     1      47.740   5.271  14.728  0.00  0.00    +0.000 A 
ATOM     19  C   UNL     1      47.107   4.272  15.470  0.00  0.00    +0.000 A 
ATOM     20  C   UNL     1      47.294   4.213  16.851  0.00  0.00    +0.000 A 
ATOM     21  C   UNL     1      48.104   5.154  17.469  0.00  0.00    +0.000 A 
ATOM     22  C   UNL     1      48.677   6.124  16.670  0.00  0.00    +0.000 A 
ATOM     23 CL   UNL     1      49.697   7.326  17.347  0.00  0.00    +0.000 Cl
ATOM     24  N   UNL     1      48.523   6.204  15.330  0.00  0.00    +0.000 NA
ENDBRANCH  17  18
ENDBRANCH   9  17
TORSDOF 6
ENDMDL
MODEL 6
REMARK VINA RESULT:    -5.749      2.384      5.017
REMARK INTER + INTRA:          -8.577
REMARK INTER:                  -7.507
REMARK INTRA:                  -1.070
REMARK UNBOUND:                -1.147
REMARK  Name = 
REMARK  6 active torsions:
REMARK  status: ('A' for Active; 'I' for Inactive)
REMARK    1  A    between atoms: N_1  and  C_2
REMARK    2  A    between atoms: C_2  and  C_3
REMARK    3  A    between atoms: C_3  and  C_4
REMARK    4  A    between atoms: C_9  and  O_10
REMARK    5  A    between atoms: N_13  and  C_14
REMARK    6  A    between atoms: C_14  and  C_15
REMARK                            x       y       z     vdW  Elec       q    Type
REMARK                         _______ _______ _______ _____ _____    ______ ____
ROOT
ATOM      1  C   UNL     1      44.806   5.110  12.861  0.00  0.00    +0.000 A 
ATOM      2  N   UNL     1      45.652   5.166  13.873  0.00  0.00    +0.000 NA
ATOM      3  C   UNL     1      46.739   5.858  13.423  0.00  0.00    +0.000 A 
ATOM      4  C   UNL     1      47.934   6.169  14.092  0.00  0.00    +0.000 A 
ATOM      5  C   UNL     1      48.927   6.884  13.411  0.00  0.00    +0.000 A 
ATOM      6  C   UNL     1      48.727   7.260  12.086  0.00  0.00    +0.000 A 
ATOM      7  C   UNL     1      47.556   6.949  11.394  0.00  0.00    +0.000 A 
ATOM      8  C   UNL     1      46.563   6.257  12.103  0.00  0.00    +0.000 A 
ATOM      9  N   UNL     1      45.292   5.820  11.778  0.00  0.00    +0.000 N 
ENDROOT
BRANCH   6  10
ATOM     10  O   UNL     1      49.678   7.965  11.405  0.00  0.00    +0.000 OA
ATOM     11  H   UNL     1      50.554   7.656  11.688  0.00  0.00    +0.000 HD
ENDBRANCH   6  10
BRANCH   1  12
ATOM     12  C   UNL     1      43.517   4.352  12.910  0.00  0.00    +0.000 C 
BRANCH  12  13
ATOM     13  C   UNL     1      43.722   2.887  12.519  0.00  0.00    +0.000 C 
BRANCH  13  14
ATOM     14  N   UNL     1      45.143   2.539  12.482  0.00  0.00    +0.000 NA
ATOM     15  H   UNL     1      45.412   2.151  13.385  0.00  0.00    +0.000 HD
ATOM     16  H   UNL     1      45.696   3.390  12.367  0.00  0.00    +0.000 HD
ENDBRANCH  13  14
ENDBRANCH  12  13
ENDBRANCH   1  12
BRANCH   9  17
ATOM     17  C   UNL     1      44.673   5.968  10.468  0.00  0.00    +0.000 C 
BRANCH  17  18
ATOM     18  C   UNL     1      45.095   4.934   9.447  0.00  0.00    +0.000 A 
ATOM     19  C   UNL     1      46.112   5.167   8.520  0.00  0.00    +0.000 A 
ATOM     20  C   UNL     1      46.579   4.118   7.729  0.00  0.00    +0.000 A 
ATOM     21  C   UNL     1      46.020   2.856   7.871  0.00  0.00    +0.000 A 
ATOM     22  C   UNL     1      45.003   2.712   8.793  0.00  0.00    +0.000 A 
ATOM     23 CL   UNL     1      44.256   1.187   9.040  0.00  0.00    +0.000 Cl
ATOM     24  N   UNL     1      44.533   3.704   9.581  0.00  0.00    +0.000 NA
ENDBRANCH  17  18
ENDBRANCH   9  17
TORSDOF 6
ENDMDL
MODEL 7
REMARK VINA RESULT:    -5.656      2.875      4.203
REMARK INTER + INTRA:          -8.456
REMARK INTER:                  -7.615
REMARK INTRA:                  -0.841
REMARK UNBOUND:                -1.147
REMARK  Name = 
REMARK  6 active torsions:
REMARK  status: ('A' for Active; 'I' for Inactive)
REMARK    1  A    between atoms: N_1  and  C_2
REMARK    2  A    between atoms: C_2  and  C_3
REMARK    3  A    between atoms: C_3  and  C_4
REMARK    4  A    between atoms: C_9  and  O_10
REMARK    5  A    between atoms: N_13  and  C_14
REMARK    6  A    between atoms: C_14  and  C_15
REMARK                            x       y       z     vdW  Elec       q    Type
REMARK                         _______ _______ _______ _____ _____    ______ ____
ROOT
ATOM      1  C   UNL     1      47.018   4.763  14.540  0.00  0.00    +0.000 A 
ATOM      2  N   UNL     1      46.540   3.589  14.171  0.00  0.00    +0.000 NA
ATOM      3  C   UNL     1      45.953   3.782  12.954  0.00  0.00    +0.000 A 
ATOM      4  C   UNL     1      45.271   2.862  12.141  0.00  0.00    +0.000 A 
ATOM      5  C   UNL     1      44.732   3.301  10.925  0.00  0.00    +0.000 A 
ATOM      6  C   UNL     1      44.862   4.634  10.548  0.00  0.00    +0.000 A 
ATOM      7  C   UNL     1      45.522   5.570  11.345  0.00  0.00    +0.000 A 
ATOM      8  C   UNL     1      46.080   5.105  12.545  0.00  0.00    +0.000 A 
ATOM      9  N   UNL     1      46.816   5.706  13.548  0.00  0.00    +0.000 N 
ENDROOT
BRANCH   6  10
ATOM     10  O   UNL     1      44.352   5.083   9.363  0.00  0.00    +0.000 OA
ATOM     11  H   UNL     1      43.816   5.874   9.537  0.00  0.00    +0.000 HD
ENDBRANCH   6  10
BRANCH   1  12
ATOM     12  C   UNL     1      47.660   5.007  15.869  0.00  0.00    +0.000 C 
BRANCH  12  13
ATOM     13  C   UNL     1      47.870   3.698  16.631  0.00  0.00    +0.000 C 
BRANCH  13  14
ATOM     14  N   UNL     1      46.679   3.333  17.400  0.00  0.00    +0.000 NA
ATOM     15  H   UNL     1      46.832   3.569  18.380  0.00  0.00    +0.000 HD
ATOM     16  H   UNL     1      46.557   2.320  17.373  0.00  0.00    +0.000 HD
ENDBRANCH  13  14
ENDBRANCH  12  13
ENDBRANCH   1  12
BRANCH   9  17
ATOM     17  C   UNL     1      47.167   7.119  13.587  0.00  0.00    +0.000 C 
BRANCH  17  18
ATOM     18  C   UNL     1      48.564   7.438  13.100  0.00  0.00    +0.000 A 
ATOM     19  C   UNL     1      48.858   7.651  11.752  0.00  0.00    +0.000 A 
ATOM     20  C   UNL     1      50.119   8.118  11.385  0.00  0.00    +0.000 A 
ATOM     21  C   UNL     1      51.068   8.361  12.367  0.00  0.00    +0.000 A 
ATOM     22  C   UNL     1      50.709   8.104  13.675  0.00  0.00    +0.000 A 
ATOM     23 CL   UNL     1      51.816   8.379  14.957  0.00  0.00    +0.000 Cl
ATOM     24  N   UNL     1      49.494   7.659  14.065  0.00  0.00    +0.000 NA
ENDBRANCH  17  18
ENDBRANCH   9  17
TORSDOF 6
ENDMDL
MODEL 8
REMARK VINA RESULT:    -5.441      3.607      5.524
REMARK INTER + INTRA:          -8.178
REMARK INTER:                  -7.313
REMARK INTRA:                  -0.864
REMARK UNBOUND:                -1.147
REMARK  Name = 
REMARK  6 active torsions:
REMARK  status: ('A' for Active; 'I' for Inactive)
REMARK    1  A    between atoms: N_1  and  C_2
REMARK    2  A    between atoms: C_2  and  C_3
REMARK    3  A    between atoms: C_3  and  C_4
REMARK    4  A    between atoms: C_9  and  O_10
REMARK    5  A    between atoms: N_13  and  C_14
REMARK    6  A    between atoms: C_14  and  C_15
REMARK                            x       y       z     vdW  Elec       q    Type
REMARK                         _______ _______ _______ _____ _____    ______ ____
ROOT
ATOM      1  C   UNL     1      45.738   4.628  12.718  0.00  0.00    +0.000 A 
ATOM      2  N   UNL     1      45.798   3.997  13.876  0.00  0.00    +0.000 NA
ATOM      3  C   UNL     1      46.752   4.639  14.610  0.00  0.00    +0.000 A 
ATOM      4  C   UNL     1      47.226   4.349  15.900  0.00  0.00    +0.000 A 
ATOM      5  C   UNL     1      48.236   5.149  16.448  0.00  0.00    +0.000 A 
ATOM      6  C   UNL     1      48.765   6.203  15.709  0.00  0.00    +0.000 A 
ATOM      7  C   UNL     1      48.323   6.502  14.420  0.00  0.00    +0.000 A 
ATOM      8  C   UNL     1      47.291   5.707  13.900  0.00  0.00    +0.000 A 
ATOM      9  N   UNL     1      46.587   5.720  12.711  0.00  0.00    +0.000 N 
ENDROOT
BRANCH   6  10
ATOM     10  O   UNL     1      49.745   7.003  16.227  0.00  0.00    +0.000 OA
ATOM     11  H   UNL     1      49.577   7.917  15.946  0.00  0.00    +0.000 HD
ENDBRANCH   6  10
BRANCH   1  12
ATOM     12  C   UNL     1      44.874   4.177  11.582  0.00  0.00    +0.000 C 
BRANCH  12  13
ATOM     13  C   UNL     1      43.514   3.687  12.080  0.00  0.00    +0.000 C 
BRANCH  13  14
ATOM     14  N   UNL     1      43.574   2.286  12.499  0.00  0.00    +0.000 NA
ATOM     15  H   UNL     1      44.549   2.022  12.637  0.00  0.00    +0.000 HD
ATOM     16  H   UNL     1      43.229   1.692  11.743  0.00  0.00    +0.000 HD
ENDBRANCH  13  14
ENDBRANCH  12  13
ENDBRANCH   1  12
BRANCH   9  17
ATOM     17  C   UNL     1      46.830   6.643  11.612  0.00  0.00    +0.000 C 
BRANCH  17  18
ATOM     18  C   UNL     1      46.150   7.988  11.753  0.00  0.00    +0.000 A 
ATOM     19  C   UNL     1      46.831   9.132  12.173  0.00  0.00    +0.000 A 
ATOM     20  C   UNL     1      46.201  10.374  12.109  0.00  0.00    +0.000 A 
ATOM     21  C   UNL     1      44.900  10.454  11.632  0.00  0.00    +0.000 A 
ATOM     22  C   UNL     1      44.287   9.275  11.257  0.00  0.00    +0.000 A 
ATOM     23 CL   UNL     1      42.681   9.277  10.652  0.00  0.00    +0.000 Cl
ATOM     24  N   UNL     1      44.872   8.057  11.299  0.00  0.00    +0.000 NA
ENDBRANCH  17  18
ENDBRANCH   9  17
TORSDOF 6
ENDMDL
MODEL 9
REMARK VINA RESULT:    -5.289      3.820      6.975
REMARK INTER + INTRA:          -7.981
REMARK INTER:                  -7.043
REMARK INTRA:                  -0.938
REMARK UNBOUND:                -1.147
REMARK  Name = 
REMARK  6 active torsions:
REMARK  status: ('A' for Active; 'I' for Inactive)
REMARK    1  A    between atoms: N_1  and  C_2
REMARK    2  A    between atoms: C_2  and  C_3
REMARK    3  A    between atoms: C_3  and  C_4
REMARK    4  A    between atoms: C_9  and  O_10
REMARK    5  A    between atoms: N_13  and  C_14
REMARK    6  A    between atoms: C_14  and  C_15
REMARK                            x       y       z     vdW  Elec       q    Type
REMARK                         _______ _______ _______ _____ _____    ______ ____
ROOT
ATOM      1  C   UNL     1      48.637   6.942  14.443  0.00  0.00    +0.000 A 
ATOM      2  N   UNL     1      48.951   7.121  15.712  0.00  0.00    +0.000 NA
ATOM      3  C   UNL     1      48.436   6.053  16.387  0.00  0.00    +0.000 A 
ATOM      4  C   UNL     1      48.463   5.774  17.764  0.00  0.00    +0.000 A 
ATOM      5  C   UNL     1      47.844   4.608  18.232  0.00  0.00    +0.000 A 
ATOM      6  C   UNL     1      47.201   3.756  17.339  0.00  0.00    +0.000 A 
ATOM      7  C   UNL     1      47.147   4.019  15.970  0.00  0.00    +0.000 A 
ATOM      8  C   UNL     1      47.797   5.176  15.517  0.00  0.00    +0.000 A 
ATOM      9  N   UNL     1      47.987   5.733  14.266  0.00  0.00    +0.000 N 
ENDROOT
BRANCH   6  10
ATOM     10  O   UNL     1      46.598   2.609  17.772  0.00  0.00    +0.000 OA
ATOM     11  H   UNL     1      46.046   2.261  17.053  0.00  0.00    +0.000 HD
ENDBRANCH   6  10
BRANCH   1  12
ATOM     12  C   UNL     1      48.937   7.944  13.373  0.00  0.00    +0.000 C 
BRANCH  12  13
ATOM     13  C   UNL     1      48.211   9.264  13.632  0.00  0.00    +0.000 C 
BRANCH  13  14
ATOM     14  N   UNL     1      46.985   9.056  14.404  0.00  0.00    +0.000 NA
ATOM     15  H   UNL     1      46.966   8.094  14.741  0.00  0.00    +0.000 HD
ATOM     16  H   UNL     1      46.177   9.151  13.787  0.00  0.00    +0.000 HD
ENDBRANCH  13  14
ENDBRANCH  12  13
ENDBRANCH   1  12
BRANCH   9  17
ATOM     17  C   UNL     1      47.452   5.190  13.026  0.00  0.00    +0.000 C 
BRANCH  17  18
ATOM     18  C   UNL     1      45.941   5.185  12.937  0.00  0.00    +0.000 A 
ATOM     19  C   UNL     1      45.185   6.358  12.956  0.00  0.00    +0.000 A 
ATOM     20  C   UNL     1      43.817   6.304  12.688  0.00  0.00    +0.000 A 
ATOM     21  C   UNL     1      43.226   5.079  12.411  0.00  0.00    +0.000 A 
ATOM     22  C   UNL     1      44.037   3.962  12.434  0.00  0.00    +0.000 A 
ATOM     23 CL   UNL     1      43.394   2.407  12.100  0.00  0.00    +0.000 Cl
ATOM     24  N   UNL     1      45.365   3.981  12.681  0.00  0.00    +0.000 NA
ENDBRANCH  17  18
ENDBRANCH   9  17
TORSDOF 6
ENDMDL
