MODEL 1
REMARK VINA RESULT:    -7.569      0.000      0.000
REMARK INTER + INTRA:          -8.597
REMARK INTER:                  -8.896
REMARK INTRA:                   0.299
REMARK UNBOUND:                 0.299
REMARK  Name = 
REMARK  5 active torsions:
REMARK  status: ('A' for Active; 'I' for Inactive)
REMARK    1  A    between atoms: C_1  and  C_2
REMARK    2  A    between atoms: C_2  and  C_3
REMARK    3  A    between atoms: C_2  and  N_4
REMARK    4  A    between atoms: C_2  and  C_14
REMARK    5  A    between atoms: C_8  and  C_9
REMARK                            x       y       z     vdW  Elec       q    Type
REMARK                         _______ _______ _______ _____ _____    ______ ____
ROOT
ATOM      1  N   UNL     1      43.890   3.572  10.929  0.00  0.00    +0.000 N 
ATOM      2  C   UNL     1      44.641   3.326   9.812  0.00  0.00    +0.000 A 
ATOM      3  N   UNL     1      44.939   2.043   9.569  0.00  0.00    +0.000 NA
ATOM      4  C   UNL     1      45.803   1.786   8.557  0.00  0.00    +0.000 A 
ATOM      5  C   UNL     1      46.303   2.757   7.724  0.00  0.00    +0.000 A 
ATOM      6  C   UNL     1      45.899   4.036   8.020  0.00  0.00    +0.000 A 
ATOM      7  N   UNL     1      45.081   4.336   9.048  0.00  0.00    +0.000 NA
ATOM      8  H   UNL     1      43.048   3.012  10.927  0.00  0.00    +0.000 HD
ENDROOT
BRANCH   5   9
ATOM      9  C   UNL     1      47.227   2.422   6.635  0.00  0.00    +0.000 C 
ATOM     10  N   UNL     1      47.205   3.202   5.510  0.00  0.00    +0.000 N 
ATOM     11  O   UNL     1      47.982   1.464   6.720  0.00  0.00    +0.000 OA
ATOM     12  H   UNL     1      46.456   3.844   5.294  0.00  0.00    +0.000 HD
ATOM     13  H   UNL     1      47.794   2.897   4.743  0.00  0.00    +0.000 HD
ENDBRANCH   5   9
BRANCH   1  15
ATOM     14  C   UNL     1      43.380   5.996  10.678  0.00  0.00    +0.000 C 
ATOM     15  C   UNL     1      43.825   4.857  11.622  0.00  0.00    +0.000 C 
ATOM     16  C   UNL     1      42.860   4.730  12.816  0.00  0.00    +0.000 C 
BRANCH  15  17
ATOM     17  C   UNL     1      45.259   5.225  12.076  0.00  0.00    +0.000 A 
ATOM     18  C   UNL     1      45.913   4.524  13.108  0.00  0.00    +0.000 A 
ATOM     19  C   UNL     1      47.186   4.899  13.550  0.00  0.00    +0.000 A 
ATOM     20  C   UNL     1      47.831   5.991  12.979  0.00  0.00    +0.000 A 
ATOM     21  C   UNL     1      47.199   6.717  11.974  0.00  0.00    +0.000 A 
ATOM     22  C   UNL     1      45.925   6.344  11.535  0.00  0.00    +0.000 A 
ENDBRANCH  15  17
ENDBRANCH   1  15
TORSDOF 3
ENDMDL
MODEL 2
REMARK VINA RESULT:    -6.934      3.381      6.006
REMARK INTER + INTRA:          -7.851
REMARK INTER:                  -8.176
REMARK INTRA:                   0.325
REMARK UNBOUND:                 0.299
REMARK  Name = 
REMARK  5 active torsions:
REMARK  status: ('A' for Active; 'I' for Inactive)
REMARK    1  A    between atoms: C_1  and  C_2
REMARK    2  A    between atoms: C_2  and  C_3
REMARK    3  A    between atoms: C_2  and  N_4
REMARK    4  A    between atoms: C_2  and  C_14
REMARK    5  A    between atoms: C_8  and  C_9
REMARK                            x       y       z     vdW  Elec       q    Type
REMARK                         _______ _______ _______ _____ _____    ______ ____
ROOT
ATOM      1  N   UNL     1      45.275   3.202  12.495  0.00  0.00    +0.000 N 
ATOM      2  C   UNL     1      46.156   4.094  13.044  0.00  0.00    +0.000 A 
ATOM      3  N   UNL     1      46.665   3.764  14.239  0.00  0.00    +0.000 NA
ATOM      4  C   UNL     1      47.422   4.695  14.870  0.00  0.00    +0.000 A 
ATOM      5  C   UNL     1      47.763   5.901  14.308  0.00  0.00    +0.000 A 
ATOM      6  C   UNL     1      47.237   6.126  13.060  0.00  0.00    +0.000 A 
ATOM      7  N   UNL     1      46.440   5.247  12.421  0.00  0.00    +0.000 NA
ATOM      8  H   UNL     1      45.675   2.275  12.461  0.00  0.00    +0.000 HD
ENDROOT
BRANCH   5   9
ATOM      9  C   UNL     1      48.595   6.868  15.032  0.00  0.00    +0.000 C 
ATOM     10  N   UNL     1      48.037   8.072  15.367  0.00  0.00    +0.000 N 
ATOM     11  O   UNL     1      49.758   6.616  15.312  0.00  0.00    +0.000 OA
ATOM     12  H   UNL     1      47.179   8.418  14.963  0.00  0.00    +0.000 HD
ATOM     13  H   UNL     1      48.659   8.751  15.792  0.00  0.00    +0.000 HD
ENDBRANCH   5   9
BRANCH   1  15
ATOM     14  C   UNL     1      43.133   2.507  11.433  0.00  0.00    +0.000 C 
ATOM     15  C   UNL     1      44.288   3.533  11.469  0.00  0.00    +0.000 C 
ATOM     16  C   UNL     1      43.749   4.950  11.735  0.00  0.00    +0.000 C 
BRANCH  15  17
ATOM     17  C   UNL     1      44.983   3.429  10.090  0.00  0.00    +0.000 A 
ATOM     18  C   UNL     1      45.295   4.573   9.329  0.00  0.00    +0.000 A 
ATOM     19  C   UNL     1      45.872   4.467   8.059  0.00  0.00    +0.000 A 
ATOM     20  C   UNL     1      46.140   3.216   7.514  0.00  0.00    +0.000 A 
ATOM     21  C   UNL     1      45.820   2.069   8.232  0.00  0.00    +0.000 A 
ATOM     22  C   UNL     1      45.240   2.174   9.500  0.00  0.00    +0.000 A 
ENDBRANCH  15  17
ENDBRANCH   1  15
TORSDOF 3
ENDMDL
MODEL 3
REMARK VINA RESULT:    -6.474      4.545      7.096
REMARK INTER + INTRA:          -7.310
REMARK INTER:                  -7.653
REMARK INTRA:                   0.344
REMARK UNBOUND:                 0.299
REMARK  Name = 
REMARK  5 active torsions:
REMARK  status: ('A' for Active; 'I' for Inactive)
REMARK    1  A    between atoms: C_1  and  C_2
REMARK    2  A    between atoms: C_2  and  C_3
REMARK    3  A    between atoms: C_2  and  N_4
REMARK    4  A    between atoms: C_2  and  C_14
REMARK    5  A    between atoms: C_8  and  C_9
REMARK                            x       y       z     vdW  Elec       q    Type
REMARK                         _______ _______ _______ _____ _____    ______ ____
ROOT
ATOM      1  N   UNL     1      46.561   3.790  13.209  0.00  0.00    +0.000 N 
ATOM      2  C   UNL     1      47.202   3.933  14.410  0.00  0.00    +0.000 A 
ATOM      3  N   UNL     1      47.529   2.800  15.045  0.00  0.00    +0.000 NA
ATOM      4  C   UNL     1      48.029   2.912  16.299  0.00  0.00    +0.000 A 
ATOM      5  C   UNL     1      48.299   4.117  16.901  0.00  0.00    +0.000 A 
ATOM      6  C   UNL     1      47.978   5.222  16.151  0.00  0.00    +0.000 A 
ATOM      7  N   UNL     1      47.434   5.151  14.921  0.00  0.00    +0.000 NA
ATOM      8  H   UNL     1      47.082   3.182  12.593  0.00  0.00    +0.000 HD
ENDROOT
BRANCH   5   9
ATOM      9  C   UNL     1      48.851   4.181  18.259  0.00  0.00    +0.000 C 
ATOM     10  N   UNL     1      48.380   3.291  19.186  0.00  0.00    +0.000 N 
ATOM     11  O   UNL     1      49.691   5.016  18.561  0.00  0.00    +0.000 OA
ATOM     12  H   UNL     1      47.537   2.750  19.058  0.00  0.00    +0.000 HD
ATOM     13  H   UNL     1      48.717   3.412  20.135  0.00  0.00    +0.000 HD
ENDBRANCH   5   9
BRANCH   1  15
ATOM     14  C   UNL     1      44.411   5.040  13.340  0.00  0.00    +0.000 C 
ATOM     15  C   UNL     1      45.737   4.820  12.578  0.00  0.00    +0.000 C 
ATOM     16  C   UNL     1      46.546   6.128  12.504  0.00  0.00    +0.000 C 
BRANCH  15  17
ATOM     17  C   UNL     1      45.333   4.311  11.173  0.00  0.00    +0.000 A 
ATOM     18  C   UNL     1      44.781   3.029  10.979  0.00  0.00    +0.000 A 
ATOM     19  C   UNL     1      44.472   2.556   9.699  0.00  0.00    +0.000 A 
ATOM     20  C   UNL     1      44.717   3.348   8.582  0.00  0.00    +0.000 A 
ATOM     21  C   UNL     1      45.284   4.608   8.742  0.00  0.00    +0.000 A 
ATOM     22  C   UNL     1      45.597   5.079  10.020  0.00  0.00    +0.000 A 
ENDBRANCH  15  17
ENDBRANCH   1  15
TORSDOF 3
ENDMDL
MODEL 4
REMARK VINA RESULT:    -6.265      3.252      5.978
REMARK INTER + INTRA:          -7.065
REMARK INTER:                  -7.592
REMARK INTRA:                   0.527
REMARK UNBOUND:                 0.299
REMARK  Name = 
REMARK  5 active torsions:
REMARK  status: ('A' for Active; 'I' for Inactive)
REMARK    1  A    between atoms: C_1  and  C_2
REMARK    2  A    between atoms: C_2  and  C_3
REMARK    3  A    between atoms: C_2  and  N_4
REMARK    4  A    between atoms: C_2  and  C_14
REMARK    5  A    between atoms: C_8  and  C_9
REMARK                            x       y       z     vdW  Elec       q    Type
REMARK                         _______ _______ _______ _____ _____    ______ ____
ROOT
ATOM      1  N   UNL     1      45.510   3.723  11.371  0.00  0.00    +0.000 N 
ATOM      2  C   UNL     1      45.863   4.989  11.752  0.00  0.00    +0.000 A 
ATOM      3  N   UNL     1      46.396   5.113  12.975  0.00  0.00    +0.000 NA
ATOM      4  C   UNL     1      46.616   6.369  13.433  0.00  0.00    +0.000 A 
ATOM      5  C   UNL     1      46.409   7.497  12.676  0.00  0.00    +0.000 A 
ATOM      6  C   UNL     1      45.910   7.266  11.419  0.00  0.00    +0.000 A 
ATOM      7  N   UNL     1      45.632   6.035  10.946  0.00  0.00    +0.000 NA
ATOM      8  H   UNL     1      46.287   3.085  11.480  0.00  0.00    +0.000 HD
ENDROOT
BRANCH   5   9
ATOM      9  C   UNL     1      46.674   8.834  13.219  0.00  0.00    +0.000 C 
ATOM     10  N   UNL     1      47.031   8.934  14.537  0.00  0.00    +0.000 N 
ATOM     11  O   UNL     1      46.561   9.832  12.523  0.00  0.00    +0.000 OA
ATOM     12  H   UNL     1      46.911   8.184  15.203  0.00  0.00    +0.000 HD
ATOM     13  H   UNL     1      47.127   9.874  14.905  0.00  0.00    +0.000 HD
ENDBRANCH   5   9
BRANCH   1  15
ATOM     14  C   UNL     1      43.698   2.163  10.677  0.00  0.00    +0.000 C 
ATOM     15  C   UNL     1      44.540   3.409  10.324  0.00  0.00    +0.000 C 
ATOM     16  C   UNL     1      43.634   4.633  10.102  0.00  0.00    +0.000 C 
BRANCH  15  17
ATOM     17  C   UNL     1      45.327   3.034   9.044  0.00  0.00    +0.000 A 
ATOM     18  C   UNL     1      45.752   1.714   8.796  0.00  0.00    +0.000 A 
ATOM     19  C   UNL     1      46.511   1.395   7.664  0.00  0.00    +0.000 A 
ATOM     20  C   UNL     1      46.873   2.389   6.761  0.00  0.00    +0.000 A 
ATOM     21  C   UNL     1      46.487   3.705   6.994  0.00  0.00    +0.000 A 
ATOM     22  C   UNL     1      45.732   4.025   8.126  0.00  0.00    +0.000 A 
ENDBRANCH  15  17
ENDBRANCH   1  15
TORSDOF 3
ENDMDL
MODEL 5
REMARK VINA RESULT:    -6.050      4.612      7.208
REMARK INTER + INTRA:          -6.812
REMARK INTER:                  -7.342
REMARK INTRA:                   0.529
REMARK UNBOUND:                 0.299
REMARK  Name = 
REMARK  5 active torsions:
REMARK  status: ('A' for Active; 'I' for Inactive)
REMARK    1  A    between atoms: C_1  and  C_2
REMARK    2  A    between atoms: C_2  and  C_3
REMARK    3  A    between atoms: C_2  and  N_4
REMARK    4  A    between atoms: C_2  and  C_14
REMARK    5  A    between atoms: C_8  and  C_9
REMARK                            x       y       z     vdW  Elec       q    Type
REMARK                         _______ _______ _______ _____ _____    ______ ____
ROOT
ATOM      1  N   UNL     1      46.266   4.409  13.297  0.00  0.00    +0.000 N 
ATOM      2  C   UNL     1      47.028   4.677  14.401  0.00  0.00    +0.000 A 
ATOM      3  N   UNL     1      46.935   3.803  15.412  0.00  0.00    +0.000 NA
ATOM      4  C   UNL     1      47.562   4.122  16.570  0.00  0.00    +0.000 A 
ATOM      5  C   UNL     1      48.353   5.235  16.720  0.00  0.00    +0.000 A 
ATOM      6  C   UNL     1      48.429   6.044  15.613  0.00  0.00    +0.000 A 
ATOM      7  N   UNL     1      47.780   5.786  14.461  0.00  0.00    +0.000 NA
ATOM      8  H   UNL     1      46.434   3.469  12.963  0.00  0.00    +0.000 HD
ENDROOT
BRANCH   5   9
ATOM      9  C   UNL     1      49.018   5.528  17.995  0.00  0.00    +0.000 C 
ATOM     10  N   UNL     1      50.179   4.861  18.282  0.00  0.00    +0.000 N 
ATOM     11  O   UNL     1      48.542   6.328  18.787  0.00  0.00    +0.000 OA
ATOM     12  H   UNL     1      50.483   4.036  17.784  0.00  0.00    +0.000 HD
ATOM     13  H   UNL     1      50.571   5.021  19.203  0.00  0.00    +0.000 HD
ENDBRANCH   5   9
BRANCH   1  15
ATOM     14  C   UNL     1      44.622   6.198  12.753  0.00  0.00    +0.000 C 
ATOM     15  C   UNL     1      45.866   5.401  12.301  0.00  0.00    +0.000 C 
ATOM     16  C   UNL     1      47.052   6.347  12.037  0.00  0.00    +0.000 C 
BRANCH  15  17
ATOM     17  C   UNL     1      45.436   4.643  11.022  0.00  0.00    +0.000 A 
ATOM     18  C   UNL     1      45.646   5.180   9.736  0.00  0.00    +0.000 A 
ATOM     19  C   UNL     1      45.204   4.514   8.588  0.00  0.00    +0.000 A 
ATOM     20  C   UNL     1      44.530   3.302   8.698  0.00  0.00    +0.000 A 
ATOM     21  C   UNL     1      44.287   2.760   9.956  0.00  0.00    +0.000 A 
ATOM     22  C   UNL     1      44.726   3.427  11.103  0.00  0.00    +0.000 A 
ENDBRANCH  15  17
ENDBRANCH   1  15
TORSDOF 3
ENDMDL
MODEL 6
REMARK VINA RESULT:    -5.994      3.347      5.034
REMARK INTER + INTRA:          -6.746
REMARK INTER:                  -6.939
REMARK INTRA:                   0.193
REMARK UNBOUND:                 0.299
REMARK  Name = 
REMARK  5 active torsions:
REMARK  status: ('A' for Active; 'I' for Inactive)
REMARK    1  A    between atoms: C_1  and  C_2
REMARK    2  A    between atoms: C_2  and  C_3
REMARK    3  A    between atoms: C_2  and  N_4
REMARK    4  A    between atoms: C_2  and  C_14
REMARK    5  A    between atoms: C_8  and  C_9
REMARK                            x       y       z     vdW  Elec       q    Type
REMARK                         _______ _______ _______ _____ _____    ______ ____
ROOT
ATOM      1  N   UNL     1      47.220   5.991  14.165  0.00  0.00    +0.000 N 
ATOM      2  C   UNL     1      46.408   5.495  13.182  0.00  0.00    +0.000 A 
ATOM      3  N   UNL     1      45.887   4.280  13.401  0.00  0.00    +0.000 NA
ATOM      4  C   UNL     1      45.202   3.705  12.383  0.00  0.00    +0.000 A 
ATOM      5  C   UNL     1      44.943   4.338  11.192  0.00  0.00    +0.000 A 
ATOM      6  C   UNL     1      45.475   5.599  11.081  0.00  0.00    +0.000 A 
ATOM      7  N   UNL     1      46.203   6.185  12.051  0.00  0.00    +0.000 NA
ATOM      8  H   UNL     1      46.754   5.968  15.062  0.00  0.00    +0.000 HD
ENDROOT
BRANCH   5   9
ATOM      9  C   UNL     1      44.187   3.671  10.126  0.00  0.00    +0.000 C 
ATOM     10  N   UNL     1      44.049   4.325   8.931  0.00  0.00    +0.000 N 
ATOM     11  O   UNL     1      43.679   2.574  10.304  0.00  0.00    +0.000 OA
ATOM     12  H   UNL     1      44.240   5.309   8.811  0.00  0.00    +0.000 HD
ATOM     13  H   UNL     1      43.453   3.878   8.243  0.00  0.00    +0.000 HD
ENDBRANCH   5   9
BRANCH   1  15
ATOM     14  C   UNL     1      48.970   6.871  12.628  0.00  0.00    +0.000 C 
ATOM     15  C   UNL     1      48.221   7.038  13.969  0.00  0.00    +0.000 C 
ATOM     16  C   UNL     1      47.525   8.410  14.036  0.00  0.00    +0.000 C 
BRANCH  15  17
ATOM     17  C   UNL     1      49.295   6.882  15.072  0.00  0.00    +0.000 A 
ATOM     18  C   UNL     1      49.016   6.237  16.293  0.00  0.00    +0.000 A 
ATOM     19  C   UNL     1      49.976   6.150  17.306  0.00  0.00    +0.000 A 
ATOM     20  C   UNL     1      51.235   6.715  17.129  0.00  0.00    +0.000 A 
ATOM     21  C   UNL     1      51.530   7.379  15.943  0.00  0.00    +0.000 A 
ATOM     22  C   UNL     1      50.569   7.470  14.931  0.00  0.00    +0.000 A 
ENDBRANCH  15  17
ENDBRANCH   1  15
TORSDOF 3
ENDMDL
MODEL 7
REMARK VINA RESULT:    -5.861      4.543      6.555
REMARK INTER + INTRA:          -6.589
REMARK INTER:                  -7.016
REMARK INTRA:                   0.426
REMARK UNBOUND:                 0.299
REMARK  Name = 
REMARK  5 active torsions:
REMARK  status: ('A' for Active; 'I' for Inactive)
REMARK    1  A    between atoms: C_1  and  C_2
REMARK    2  A    between atoms: C_2  and  C_3
REMARK    3  A    between atoms: C_2  and  N_4
REMARK    4  A    between atoms: C_2  and  C_14
REMARK    5  A    between atoms: C_8  and  C_9
REMARK                            x       y       z     vdW  Elec       q    Type
REMARK                         _______ _______ _______ _____ _____    ______ ____
ROOT
ATOM      1  N   UNL     1      48.032   5.413  16.040  0.00  0.00    +0.000 N 
ATOM      2  C   UNL     1      47.425   5.033  14.874  0.00  0.00    +0.000 A 
ATOM      3  N   UNL     1      47.101   6.019  14.027  0.00  0.00    +0.000 NA
ATOM      4  C   UNL     1      46.367   5.686  12.937  0.00  0.00    +0.000 A 
ATOM      5  C   UNL     1      46.029   4.393  12.618  0.00  0.00    +0.000 A 
ATOM      6  C   UNL     1      46.450   3.447  13.520  0.00  0.00    +0.000 A 
ATOM      7  N   UNL     1      47.138   3.744  14.640  0.00  0.00    +0.000 NA
ATOM      8  H   UNL     1      48.839   5.992  15.853  0.00  0.00    +0.000 HD
ENDROOT
BRANCH   5   9
ATOM      9  C   UNL     1      45.242   4.088  11.419  0.00  0.00    +0.000 C 
ATOM     10  N   UNL     1      44.937   2.777  11.167  0.00  0.00    +0.000 N 
ATOM     11  O   UNL     1      44.885   4.973  10.656  0.00  0.00    +0.000 OA
ATOM     12  H   UNL     1      45.397   2.002  11.623  0.00  0.00    +0.000 HD
ATOM     13  H   UNL     1      44.465   2.588  10.290  0.00  0.00    +0.000 HD
ENDBRANCH   5   9
BRANCH   1  15
ATOM     14  C   UNL     1      48.005   5.491  18.528  0.00  0.00    +0.000 C 
ATOM     15  C   UNL     1      48.065   4.610  17.261  0.00  0.00    +0.000 C 
ATOM     16  C   UNL     1      46.891   3.614  17.233  0.00  0.00    +0.000 C 
BRANCH  15  17
ATOM     17  C   UNL     1      49.433   3.887  17.318  0.00  0.00    +0.000 A 
ATOM     18  C   UNL     1      49.542   2.492  17.151  0.00  0.00    +0.000 A 
ATOM     19  C   UNL     1      50.775   1.841  17.260  0.00  0.00    +0.000 A 
ATOM     20  C   UNL     1      51.927   2.566  17.550  0.00  0.00    +0.000 A 
ATOM     21  C   UNL     1      51.845   3.941  17.743  0.00  0.00    +0.000 A 
ATOM     22  C   UNL     1      50.612   4.592  17.638  0.00  0.00    +0.000 A 
ENDBRANCH  15  17
ENDBRANCH   1  15
TORSDOF 3
ENDMDL
MODEL 8
REMARK VINA RESULT:    -5.679      2.928      4.602
REMARK INTER + INTRA:          -6.376
REMARK INTER:                  -6.810
REMARK INTRA:                   0.434
REMARK UNBOUND:                 0.299
REMARK  Name = 
REMARK  5 active torsions:
REMARK  status: ('A' for Active; 'I' for Inactive)
REMARK    1  A    between atoms: C_1  and  C_2
REMARK    2  A    between atoms: C_2  and  C_3
REMARK    3  A    between atoms: C_2  and  N_4
REMARK    4  A    between atoms: C_2  and  C_14
REMARK    5  A    between atoms: C_8  and  C_9
REMARK                            x       y       z     vdW  Elec       q    Type
REMARK                         _______ _______ _______ _____ _____    ______ ____
ROOT
ATOM      1  N   UNL     1      46.238   6.764  13.250  0.00  0.00    +0.000 N 
ATOM      2  C   UNL     1      45.785   5.967  12.234  0.00  0.00    +0.000 A 
ATOM      3  N   UNL     1      45.155   4.843  12.600  0.00  0.00    +0.000 NA
ATOM      4  C   UNL     1      44.829   3.966  11.619  0.00  0.00    +0.000 A 
ATOM      5  C   UNL     1      45.027   4.217  10.283  0.00  0.00    +0.000 A 
ATOM      6  C   UNL     1      45.633   5.417  10.004  0.00  0.00    +0.000 A 
ATOM      7  N   UNL     1      46.016   6.293  10.954  0.00  0.00    +0.000 NA
ATOM      8  H   UNL     1      45.493   6.977  13.900  0.00  0.00    +0.000 HD
ENDROOT
BRANCH   5   9
ATOM      9  C   UNL     1      44.646   3.235   9.262  0.00  0.00    +0.000 C 
ATOM     10  N   UNL     1      44.493   1.931   9.649  0.00  0.00    +0.000 N 
ATOM     11  O   UNL     1      44.488   3.566   8.096  0.00  0.00    +0.000 OA
ATOM     12  H   UNL     1      44.835   1.569  10.528  0.00  0.00    +0.000 HD
ATOM     13  H   UNL     1      44.312   1.263   8.908  0.00  0.00    +0.000 HD
ENDBRANCH   5   9
BRANCH   1  15
ATOM     14  C   UNL     1      47.893   8.152  14.488  0.00  0.00    +0.000 C 
ATOM     15  C   UNL     1      47.301   7.759  13.116  0.00  0.00    +0.000 C 
ATOM     16  C   UNL     1      48.395   7.197  12.191  0.00  0.00    +0.000 C 
BRANCH  15  17
ATOM     17  C   UNL     1      46.672   9.053  12.545  0.00  0.00    +0.000 A 
ATOM     18  C   UNL     1      45.279   9.267  12.554  0.00  0.00    +0.000 A 
ATOM     19  C   UNL     1      44.716  10.414  11.985  0.00  0.00    +0.000 A 
ATOM     20  C   UNL     1      45.529  11.370  11.384  0.00  0.00    +0.000 A 
ATOM     21  C   UNL     1      46.905  11.173  11.340  0.00  0.00    +0.000 A 
ATOM     22  C   UNL     1      47.468  10.025  11.905  0.00  0.00    +0.000 A 
ENDBRANCH  15  17
ENDBRANCH   1  15
TORSDOF 3
ENDMDL
MODEL 9
REMARK VINA RESULT:    -5.408      4.525      6.994
REMARK INTER + INTRA:          -6.057
REMARK INTER:                  -6.719
REMARK INTRA:                   0.662
REMARK UNBOUND:                 0.299
REMARK  Name = 
REMARK  5 active torsions:
REMARK  status: ('A' for Active; 'I' for Inactive)
REMARK    1  A    between atoms: C_1  and  C_2
REMARK    2  A    between atoms: C_2  and  C_3
REMARK    3  A    between atoms: C_2  and  N_4
REMARK    4  A    between atoms: C_2  and  C_14
REMARK    5  A    between atoms: C_8  and  C_9
REMARK                            x       y       z     vdW  Elec       q    Type
REMARK                         _______ _______ _______ _____ _____    ______ ____
ROOT
ATOM      1  N   UNL     1      46.486   5.363  12.506  0.00  0.00    +0.000 N 
ATOM      2  C   UNL     1      47.149   6.314  13.233  0.00  0.00    +0.000 A 
ATOM      3  N   UNL     1      48.083   5.865  14.082  0.00  0.00    +0.000 NA
ATOM      4  C   UNL     1      48.649   6.769  14.919  0.00  0.00    +0.000 A 
ATOM      5  C   UNL     1      48.382   8.115  14.870  0.00  0.00    +0.000 A 
ATOM      6  C   UNL     1      47.449   8.486  13.932  0.00  0.00    +0.000 A 
ATOM      7  N   UNL     1      46.829   7.610  13.117  0.00  0.00    +0.000 NA
ATOM      8  H   UNL     1      47.137   4.760  12.022  0.00  0.00    +0.000 HD
ENDROOT
BRANCH   5   9
ATOM      9  C   UNL     1      49.031   9.052  15.794  0.00  0.00    +0.000 C 
ATOM     10  N   UNL     1      50.387   8.959  15.954  0.00  0.00    +0.000 N 
ATOM     11  O   UNL     1      48.380   9.878  16.416  0.00  0.00    +0.000 OA
ATOM     12  H   UNL     1      50.929   8.161  15.654  0.00  0.00    +0.000 HD
ATOM     13  H   UNL     1      50.797   9.562  16.659  0.00  0.00    +0.000 HD
ENDBRANCH   5   9
BRANCH   1  15
ATOM     14  C   UNL     1      44.025   5.190  12.845  0.00  0.00    +0.000 C 
ATOM     15  C   UNL     1      45.178   5.555  11.883  0.00  0.00    +0.000 C 
ATOM     16  C   UNL     1      45.057   7.018  11.420  0.00  0.00    +0.000 C 
BRANCH  15  17
ATOM     17  C   UNL     1      45.065   4.564  10.699  0.00  0.00    +0.000 A 
ATOM     18  C   UNL     1      45.406   4.938   9.384  0.00  0.00    +0.000 A 
ATOM     19  C   UNL     1      45.248   4.053   8.312  0.00  0.00    +0.000 A 
ATOM     20  C   UNL     1      44.734   2.779   8.526  0.00  0.00    +0.000 A 
ATOM     21  C   UNL     1      44.365   2.391   9.810  0.00  0.00    +0.000 A 
ATOM     22  C   UNL     1      44.520   3.276  10.881  0.00  0.00    +0.000 A 
ENDBRANCH  15  17
ENDBRANCH   1  15
TORSDOF 3
ENDMDL
