MODEL 1
REMARK VINA RESULT:    -8.400      0.000      0.000
REMARK INTER + INTRA:         -11.893
REMARK INTER:                 -11.591
REMARK INTRA:                  -0.302
REMARK UNBOUND:                -0.302
REMARK  Name = 
REMARK  7 active torsions:
REMARK  status: ('A' for Active; 'I' for Inactive)
REMARK    1  A    between atoms: C_2  and  C_3
REMARK    2  A    between atoms: C_6  and  C_7
REMARK    3  A    between atoms: N_9  and  C_10
REMARK    4  A    between atoms: C_10  and  C_11
REMARK    5  A    between atoms: N_14  and  C_15
REMARK    6  A    between atoms: C_15  and  C_16
REMARK    7  A    between atoms: C_20  and  O_21
REMARK                            x       y       z     vdW  Elec       q    Type
REMARK                         _______ _______ _______ _____ _____    ______ ____
ROOT
ATOM      1  C   UNL     1      44.398   4.670  13.136  0.00  0.00    +0.000 C 
ATOM      2  C   UNL     1      44.359   3.250  12.546  0.00  0.00    +0.000 C 
ATOM      3  C   UNL     1      44.836   3.214  11.091  0.00  0.00    +0.000 C 
ATOM      4  N   UNL     1      44.090   4.154  10.233  0.00  0.00    +0.000 NA
ATOM      5  C   UNL     1      44.133   5.528  10.762  0.00  0.00    +0.000 C 
ATOM      6  C   UNL     1      43.605   5.587  12.197  0.00  0.00    +0.000 C 
ENDROOT
BRANCH   1   7
ATOM      7  C   UNL     1      45.850   5.138  13.337  0.00  0.00    +0.000 C 
BRANCH   7  10
ATOM      8  C   UNL     1      47.142   3.967  15.051  0.00  0.00    +0.000 C 
ATOM      9  O   UNL     1      47.420   3.056  14.278  0.00  0.00    +0.000 OA
ATOM     10  N   UNL     1      46.329   5.028  14.701  0.00  0.00    +0.000 N 
ATOM     11  H   UNL     1      46.258   5.820  15.327  0.00  0.00    +0.000 HD
BRANCH   8  15
ATOM     12  C   UNL     1      49.486   4.787  17.889  0.00  0.00    +0.000 C 
ATOM     13  C   UNL     1      49.631   3.270  17.754  0.00  0.00    +0.000 C 
ATOM     14  C   UNL     1      48.478   2.794  16.863  0.00  0.00    +0.000 C 
ATOM     15  C   UNL     1      47.689   4.042  16.466  0.00  0.00    +0.000 C 
ATOM     16  C   UNL     1      48.690   5.186  16.651  0.00  0.00    +0.000 C 
BRANCH  12  18
ATOM     17  N   UNL     1      48.191   5.432  20.089  0.00  0.00    +0.000 NA
ATOM     18  C   UNL     1      48.768   5.146  19.127  0.00  0.00    +0.000 C 
ENDBRANCH  12  18
ENDBRANCH   8  15
ENDBRANCH   7  10
ENDBRANCH   1   7
BRANCH   4  19
ATOM     19  C   UNL     1      44.651   4.082   8.860  0.00  0.00    +0.000 C 
BRANCH  19  20
ATOM     20  C   UNL     1      45.077   2.657   8.493  0.00  0.00    +0.000 C 
ATOM     21  O   UNL     1      44.318   1.697   8.644  0.00  0.00    +0.000 OA
ATOM     22  N   UNL     1      46.360   2.518   8.007  0.00  0.00    +0.000 N 
ATOM     23  C   UNL     1      46.950   1.196   7.691  0.00  0.00    +0.000 C 
ATOM     24  C   UNL     1      47.169   1.678   6.251  0.00  0.00    +0.000 C 
ATOM     25  C   UNL     1      46.669   3.041   6.782  0.00  0.00    +0.000 C 
ATOM     26  O   UNL     1      46.638   4.175   6.363  0.00  0.00    +0.000 OA
BRANCH  24  27
ATOM     27  O   UNL     1      48.518   1.632   5.732  0.00  0.00    +0.000 OA
ATOM     28  H   UNL     1      49.087   1.412   6.490  0.00  0.00    +0.000 HD
ENDBRANCH  24  27
ENDBRANCH  19  20
ENDBRANCH   4  19
TORSDOF 7
ENDMDL
MODEL 2
REMARK VINA RESULT:    -7.738      2.424      2.882
REMARK INTER + INTRA:         -10.979
REMARK INTER:                 -10.092
REMARK INTRA:                  -0.888
REMARK UNBOUND:                -0.302
REMARK  Name = 
REMARK  7 active torsions:
REMARK  status: ('A' for Active; 'I' for Inactive)
REMARK    1  A    between atoms: C_2  and  C_3
REMARK    2  A    between atoms: C_6  and  C_7
REMARK    3  A    between atoms: N_9  and  C_10
REMARK    4  A    between atoms: C_10  and  C_11
REMARK    5  A    between atoms: N_14  and  C_15
REMARK    6  A    between atoms: C_15  and  C_16
REMARK    7  A    between atoms: C_20  and  O_21
REMARK                            x       y       z     vdW  Elec       q    Type
REMARK                         _______ _______ _______ _____ _____    ______ ____
ROOT
ATOM      1  C   UNL     1      44.371   5.166  13.104  0.00  0.00    +0.000 C 
ATOM      2  C   UNL     1      45.324   4.017  12.733  0.00  0.00    +0.000 C 
ATOM      3  C   UNL     1      45.526   3.898  11.218  0.00  0.00    +0.000 C 
ATOM      4  N   UNL     1      44.249   3.770  10.491  0.00  0.00    +0.000 NA
ATOM      5  C   UNL     1      43.326   4.872  10.809  0.00  0.00    +0.000 C 
ATOM      6  C   UNL     1      43.071   4.965  12.315  0.00  0.00    +0.000 C 
ENDROOT
BRANCH   1   7
ATOM      7  C   UNL     1      45.027   6.530  12.831  0.00  0.00    +0.000 C 
BRANCH   7  10
ATOM      8  C   UNL     1      47.421   7.014  12.942  0.00  0.00    +0.000 C 
ATOM      9  O   UNL     1      47.534   6.947  11.723  0.00  0.00    +0.000 OA
ATOM     10  N   UNL     1      46.230   6.778  13.601  0.00  0.00    +0.000 N 
ATOM     11  H   UNL     1      46.163   6.994  14.588  0.00  0.00    +0.000 HD
BRANCH   8  15
ATOM     12  C   UNL     1      49.412   7.463  16.114  0.00  0.00    +0.000 C 
ATOM     13  C   UNL     1      49.029   8.898  15.746  0.00  0.00    +0.000 C 
ATOM     14  C   UNL     1      48.511   8.860  14.303  0.00  0.00    +0.000 C 
ATOM     15  C   UNL     1      48.573   7.399  13.856  0.00  0.00    +0.000 C 
ATOM     16  C   UNL     1      48.572   6.611  15.168  0.00  0.00    +0.000 C 
BRANCH  12  18
ATOM     17  N   UNL     1      51.985   7.048  15.738  0.00  0.00    +0.000 NA
ATOM     18  C   UNL     1      50.854   7.227  15.912  0.00  0.00    +0.000 C 
ENDBRANCH  12  18
ENDBRANCH   8  15
ENDBRANCH   7  10
ENDBRANCH   1   7
BRANCH   4  19
ATOM     19  C   UNL     1      44.542   3.708   9.037  0.00  0.00    +0.000 C 
BRANCH  19  20
ATOM     20  C   UNL     1      45.105   2.343   8.626  0.00  0.00    +0.000 C 
ATOM     21  O   UNL     1      44.462   1.304   8.790  0.00  0.00    +0.000 OA
ATOM     22  N   UNL     1      46.374   2.352   8.087  0.00  0.00    +0.000 N 
ATOM     23  C   UNL     1      47.090   1.107   7.724  0.00  0.00    +0.000 C 
ATOM     24  C   UNL     1      47.196   1.630   6.285  0.00  0.00    +0.000 C 
ATOM     25  C   UNL     1      46.573   2.923   6.861  0.00  0.00    +0.000 C 
ATOM     26  O   UNL     1      46.402   4.052   6.465  0.00  0.00    +0.000 OA
BRANCH  24  27
ATOM     27  O   UNL     1      48.519   1.739   5.712  0.00  0.00    +0.000 OA
ATOM     28  H   UNL     1      48.852   2.615   5.976  0.00  0.00    +0.000 HD
ENDBRANCH  24  27
ENDBRANCH  19  20
ENDBRANCH   4  19
TORSDOF 7
ENDMDL
MODEL 3
REMARK VINA RESULT:    -7.581      1.924      8.663
REMARK INTER + INTRA:         -10.763
REMARK INTER:                 -10.213
REMARK INTRA:                  -0.551
REMARK UNBOUND:                -0.302
REMARK  Name = 
REMARK  7 active torsions:
REMARK  status: ('A' for Active; 'I' for Inactive)
REMARK    1  A    between atoms: C_2  and  C_3
REMARK    2  A    between atoms: C_6  and  C_7
REMARK    3  A    between atoms: N_9  and  C_10
REMARK    4  A    between atoms: C_10  and  C_11
REMARK    5  A    between atoms: N_14  and  C_15
REMARK    6  A    between atoms: C_15  and  C_16
REMARK    7  A    between atoms: C_20  and  O_21
REMARK                            x       y       z     vdW  Elec       q    Type
REMARK                         _______ _______ _______ _____ _____    ______ ____
ROOT
ATOM      1  C   UNL     1      43.051   4.210  11.596  0.00  0.00    +0.000 C 
ATOM      2  C   UNL     1      43.084   5.305  12.676  0.00  0.00    +0.000 C 
ATOM      3  C   UNL     1      44.513   5.669  13.089  0.00  0.00    +0.000 C 
ATOM      4  N   UNL     1      45.291   4.491  13.519  0.00  0.00    +0.000 NA
ATOM      5  C   UNL     1      45.297   3.437  12.492  0.00  0.00    +0.000 C 
ATOM      6  C   UNL     1      43.874   3.022  12.113  0.00  0.00    +0.000 C 
ENDROOT
BRANCH   1   7
ATOM      7  C   UNL     1      43.569   4.753  10.253  0.00  0.00    +0.000 C 
BRANCH   7  10
ATOM      8  C   UNL     1      45.127   4.037   8.509  0.00  0.00    +0.000 C 
ATOM      9  O   UNL     1      45.609   5.161   8.422  0.00  0.00    +0.000 OA
ATOM     10  N   UNL     1      44.077   3.734   9.354  0.00  0.00    +0.000 N 
ATOM     11  H   UNL     1      43.823   2.765   9.495  0.00  0.00    +0.000 HD
BRANCH   8  15
ATOM     12  C   UNL     1      47.558   1.454   7.227  0.00  0.00    +0.000 C 
ATOM     13  C   UNL     1      47.342   2.355   6.009  0.00  0.00    +0.000 C 
ATOM     14  C   UNL     1      46.122   3.231   6.318  0.00  0.00    +0.000 C 
ATOM     15  C   UNL     1      45.657   2.849   7.724  0.00  0.00    +0.000 C 
ATOM     16  C   UNL     1      46.897   2.223   8.366  0.00  0.00    +0.000 C 
BRANCH  12  18
ATOM     17  N   UNL     1      46.446  -0.908   6.886  0.00  0.00    +0.000 NA
ATOM     18  C   UNL     1      46.927   0.135   7.033  0.00  0.00    +0.000 C 
ENDBRANCH  12  18
ENDBRANCH   8  15
ENDBRANCH   7  10
ENDBRANCH   1   7
BRANCH   4  19
ATOM     19  C   UNL     1      46.667   4.935  13.854  0.00  0.00    +0.000 C 
BRANCH  19  20
ATOM     20  C   UNL     1      47.299   4.063  14.944  0.00  0.00    +0.000 C 
ATOM     21  O   UNL     1      47.572   2.877  14.744  0.00  0.00    +0.000 OA
ATOM     22  N   UNL     1      47.519   4.680  16.156  0.00  0.00    +0.000 N 
ATOM     23  C   UNL     1      48.039   3.949  17.335  0.00  0.00    +0.000 C 
ATOM     24  C   UNL     1      49.220   4.928  17.377  0.00  0.00    +0.000 C 
ATOM     25  C   UNL     1      48.466   5.661  16.243  0.00  0.00    +0.000 C 
ATOM     26  O   UNL     1      48.568   6.730  15.687  0.00  0.00    +0.000 OA
BRANCH  24  27
ATOM     27  O   UNL     1      49.432   5.663  18.604  0.00  0.00    +0.000 OA
ATOM     28  H   UNL     1      49.806   5.023  19.235  0.00  0.00    +0.000 HD
ENDBRANCH  24  27
ENDBRANCH  19  20
ENDBRANCH   4  19
TORSDOF 7
ENDMDL
MODEL 4
REMARK VINA RESULT:    -7.045      3.431      5.171
REMARK INTER + INTRA:         -10.024
REMARK INTER:                  -9.584
REMARK INTRA:                  -0.440
REMARK UNBOUND:                -0.302
REMARK  Name = 
REMARK  7 active torsions:
REMARK  status: ('A' for Active; 'I' for Inactive)
REMARK    1  A    between atoms: C_2  and  C_3
REMARK    2  A    between atoms: C_6  and  C_7
REMARK    3  A    between atoms: N_9  and  C_10
REMARK    4  A    between atoms: C_10  and  C_11
REMARK    5  A    between atoms: N_14  and  C_15
REMARK    6  A    between atoms: C_15  and  C_16
REMARK    7  A    between atoms: C_20  and  O_21
REMARK                            x       y       z     vdW  Elec       q    Type
REMARK                         _______ _______ _______ _____ _____    ______ ____
ROOT
ATOM      1  C   UNL     1      49.368   8.773  13.072  0.00  0.00    +0.000 C 
ATOM      2  C   UNL     1      47.955   9.338  12.849  0.00  0.00    +0.000 C 
ATOM      3  C   UNL     1      46.863   8.360  13.294  0.00  0.00    +0.000 C 
ATOM      4  N   UNL     1      47.001   7.037  12.655  0.00  0.00    +0.000 NA
ATOM      5  C   UNL     1      48.338   6.461  12.875  0.00  0.00    +0.000 C 
ATOM      6  C   UNL     1      49.437   7.405  12.382  0.00  0.00    +0.000 C 
ENDROOT
BRANCH   1   7
ATOM      7  C   UNL     1      49.696   8.698  14.573  0.00  0.00    +0.000 C 
BRANCH   7  10
ATOM      8  C   UNL     1      49.149   7.070  16.314  0.00  0.00    +0.000 C 
ATOM      9  O   UNL     1      48.624   7.931  17.012  0.00  0.00    +0.000 OA
ATOM     10  N   UNL     1      49.755   7.350  15.104  0.00  0.00    +0.000 N 
ATOM     11  H   UNL     1      50.035   6.583  14.506  0.00  0.00    +0.000 HD
BRANCH   8  15
ATOM     12  C   UNL     1      47.844   3.629  17.136  0.00  0.00    +0.000 C 
ATOM     13  C   UNL     1      48.358   4.131  18.487  0.00  0.00    +0.000 C 
ATOM     14  C   UNL     1      49.208   5.374  18.202  0.00  0.00    +0.000 C 
ATOM     15  C   UNL     1      49.159   5.598  16.690  0.00  0.00    +0.000 C 
ATOM     16  C   UNL     1      47.887   4.869  16.250  0.00  0.00    +0.000 C 
BRANCH  12  18
ATOM     17  N   UNL     1      49.396   1.727  16.184  0.00  0.00    +0.000 NA
ATOM     18  C   UNL     1      48.706   2.557  16.603  0.00  0.00    +0.000 C 
ENDBRANCH  12  18
ENDBRANCH   8  15
ENDBRANCH   7  10
ENDBRANCH   1   7
BRANCH   4  19
ATOM     19  C   UNL     1      45.933   6.150  13.180  0.00  0.00    +0.000 C 
BRANCH  19  20
ATOM     20  C   UNL     1      44.886   5.823  12.111  0.00  0.00    +0.000 C 
ATOM     21  O   UNL     1      44.721   6.548  11.127  0.00  0.00    +0.000 OA
ATOM     22  N   UNL     1      44.134   4.689  12.330  0.00  0.00    +0.000 N 
ATOM     23  C   UNL     1      43.023   4.288  11.435  0.00  0.00    +0.000 C 
ATOM     24  C   UNL     1      43.746   2.956  11.194  0.00  0.00    +0.000 C 
ATOM     25  C   UNL     1      44.739   3.465  12.265  0.00  0.00    +0.000 C 
ATOM     26  O   UNL     1      45.644   2.982  12.904  0.00  0.00    +0.000 OA
BRANCH  24  27
ATOM     27  O   UNL     1      43.022   1.742  11.496  0.00  0.00    +0.000 OA
ATOM     28  H   UNL     1      43.590   1.011  11.195  0.00  0.00    +0.000 HD
ENDBRANCH  24  27
ENDBRANCH  19  20
ENDBRANCH   4  19
TORSDOF 7
ENDMDL
MODEL 5
REMARK VINA RESULT:    -6.572      3.348      8.846
REMARK INTER + INTRA:          -9.370
REMARK INTER:                  -8.731
REMARK INTRA:                  -0.639
REMARK UNBOUND:                -0.302
REMARK  Name = 
REMARK  7 active torsions:
REMARK  status: ('A' for Active; 'I' for Inactive)
REMARK    1  A    between atoms: C_2  and  C_3
REMARK    2  A    between atoms: C_6  and  C_7
REMARK    3  A    between atoms: N_9  and  C_10
REMARK    4  A    between atoms: C_10  and  C_11
REMARK    5  A    between atoms: N_14  and  C_15
REMARK    6  A    between atoms: C_15  and  C_16
REMARK    7  A    between atoms: C_20  and  O_21
REMARK                            x       y       z     vdW  Elec       q    Type
REMARK                         _______ _______ _______ _____ _____    ______ ____
ROOT
ATOM      1  C   UNL     1      48.131   8.232  12.168  0.00  0.00    +0.000 C 
ATOM      2  C   UNL     1      49.024   7.048  12.578  0.00  0.00    +0.000 C 
ATOM      3  C   UNL     1      48.864   6.688  14.058  0.00  0.00    +0.000 C 
ATOM      4  N   UNL     1      49.093   7.844  14.945  0.00  0.00    +0.000 NA
ATOM      5  C   UNL     1      48.231   8.983  14.590  0.00  0.00    +0.000 C 
ATOM      6  C   UNL     1      48.424   9.391  13.128  0.00  0.00    +0.000 C 
ENDROOT
BRANCH   1   7
ATOM      7  C   UNL     1      46.648   7.821  12.167  0.00  0.00    +0.000 C 
BRANCH   7  10
ATOM      8  C   UNL     1      45.822   5.525  12.320  0.00  0.00    +0.000 C 
ATOM      9  O   UNL     1      45.599   5.641  13.520  0.00  0.00    +0.000 OA
ATOM     10  N   UNL     1      46.387   6.531  11.560  0.00  0.00    +0.000 N 
ATOM     11  H   UNL     1      46.408   6.433  10.553  0.00  0.00    +0.000 HD
BRANCH   8  15
ATOM     12  C   UNL     1      44.132   3.316   9.773  0.00  0.00    +0.000 C 
ATOM     13  C   UNL     1      43.528   2.836  11.095  0.00  0.00    +0.000 C 
ATOM     14  C   UNL     1      44.389   3.432  12.215  0.00  0.00    +0.000 C 
ATOM     15  C   UNL     1      45.470   4.273  11.534  0.00  0.00    +0.000 C 
ATOM     16  C   UNL     1      44.879   4.589  10.158  0.00  0.00    +0.000 C 
BRANCH  12  18
ATOM     17  N   UNL     1      45.768   1.508   8.779  0.00  0.00    +0.000 NA
ATOM     18  C   UNL     1      45.046   2.307   9.208  0.00  0.00    +0.000 C 
ENDBRANCH  12  18
ENDBRANCH   8  15
ENDBRANCH   7  10
ENDBRANCH   1   7
BRANCH   4  19
ATOM     19  C   UNL     1      48.872   7.410  16.348  0.00  0.00    +0.000 C 
BRANCH  19  20
ATOM     20  C   UNL     1      49.614   6.107  16.665  0.00  0.00    +0.000 C 
ATOM     21  O   UNL     1      50.822   5.984  16.452  0.00  0.00    +0.000 OA
ATOM     22  N   UNL     1      48.844   5.086  17.180  0.00  0.00    +0.000 N 
ATOM     23  C   UNL     1      49.395   3.739  17.454  0.00  0.00    +0.000 C 
ATOM     24  C   UNL     1      48.969   3.902  18.920  0.00  0.00    +0.000 C 
ATOM     25  C   UNL     1      48.315   5.216  18.433  0.00  0.00    +0.000 C 
ATOM     26  O   UNL     1      47.546   6.024  18.900  0.00  0.00    +0.000 OA
BRANCH  24  27
ATOM     27  O   UNL     1      48.089   2.897  19.473  0.00  0.00    +0.000 OA
ATOM     28  H   UNL     1      48.375   2.772  20.395  0.00  0.00    +0.000 HD
ENDBRANCH  24  27
ENDBRANCH  19  20
ENDBRANCH   4  19
TORSDOF 7
ENDMDL
MODEL 6
REMARK VINA RESULT:    -5.725      5.652      7.831
REMARK INTER + INTRA:          -8.201
REMARK INTER:                  -7.877
REMARK INTRA:                  -0.324
REMARK UNBOUND:                -0.302
REMARK  Name = 
REMARK  7 active torsions:
REMARK  status: ('A' for Active; 'I' for Inactive)
REMARK    1  A    between atoms: C_2  and  C_3
REMARK    2  A    between atoms: C_6  and  C_7
REMARK    3  A    between atoms: N_9  and  C_10
REMARK    4  A    between atoms: C_10  and  C_11
REMARK    5  A    between atoms: N_14  and  C_15
REMARK    6  A    between atoms: C_15  and  C_16
REMARK    7  A    between atoms: C_20  and  O_21
REMARK                            x       y       z     vdW  Elec       q    Type
REMARK                         _______ _______ _______ _____ _____    ______ ____
ROOT
ATOM      1  C   UNL     1      49.183   9.285  12.835  0.00  0.00    +0.000 C 
ATOM      2  C   UNL     1      48.313   9.154  14.097  0.00  0.00    +0.000 C 
ATOM      3  C   UNL     1      47.639   7.781  14.196  0.00  0.00    +0.000 C 
ATOM      4  N   UNL     1      46.857   7.452  12.989  0.00  0.00    +0.000 NA
ATOM      5  C   UNL     1      47.673   7.545  11.767  0.00  0.00    +0.000 C 
ATOM      6  C   UNL     1      48.306   8.931  11.627  0.00  0.00    +0.000 C 
ENDROOT
BRANCH   1   7
ATOM      7  C   UNL     1      50.435   8.397  12.941  0.00  0.00    +0.000 C 
BRANCH   7  10
ATOM      8  C   UNL     1      52.152   8.477  11.201  0.00  0.00    +0.000 C 
ATOM      9  O   UNL     1      52.759   9.369  11.784  0.00  0.00    +0.000 OA
ATOM     10  N   UNL     1      50.960   7.953  11.664  0.00  0.00    +0.000 N 
ATOM     11  H   UNL     1      50.586   7.121  11.226  0.00  0.00    +0.000 HD
BRANCH   8  15
ATOM     12  C   UNL     1      53.947   6.031   8.960  0.00  0.00    +0.000 C 
ATOM     13  C   UNL     1      54.798   7.297   8.836  0.00  0.00    +0.000 C 
ATOM     14  C   UNL     1      53.975   8.443   9.435  0.00  0.00    +0.000 C 
ATOM     15  C   UNL     1      52.664   7.828   9.926  0.00  0.00    +0.000 C 
ATOM     16  C   UNL     1      52.998   6.346  10.112  0.00  0.00    +0.000 C 
BRANCH  12  18
ATOM     17  N   UNL     1      52.626   5.567   6.731  0.00  0.00    +0.000 NA
ATOM     18  C   UNL     1      53.206   5.762   7.714  0.00  0.00    +0.000 C 
ENDBRANCH  12  18
ENDBRANCH   8  15
ENDBRANCH   7  10
ENDBRANCH   1   7
BRANCH   4  19
ATOM     19  C   UNL     1      46.283   6.093  13.158  0.00  0.00    +0.000 C 
BRANCH  19  20
ATOM     20  C   UNL     1      45.049   5.881  12.275  0.00  0.00    +0.000 C 
ATOM     21  O   UNL     1      44.750   6.677  11.382  0.00  0.00    +0.000 OA
ATOM     22  N   UNL     1      44.293   4.763  12.555  0.00  0.00    +0.000 N 
ATOM     23  C   UNL     1      43.024   4.467  11.850  0.00  0.00    +0.000 C 
ATOM     24  C   UNL     1      43.628   3.128  11.402  0.00  0.00    +0.000 C 
ATOM     25  C   UNL     1      44.817   3.525  12.308  0.00  0.00    +0.000 C 
ATOM     26  O   UNL     1      45.795   2.965  12.745  0.00  0.00    +0.000 OA
BRANCH  24  27
ATOM     27  O   UNL     1      42.909   1.924  11.754  0.00  0.00    +0.000 OA
ATOM     28  H   UNL     1      43.275   1.221  11.188  0.00  0.00    +0.000 HD
ENDBRANCH  24  27
ENDBRANCH  19  20
ENDBRANCH   4  19
TORSDOF 7
ENDMDL
MODEL 7
REMARK VINA RESULT:    -5.557      3.421      5.305
REMARK INTER + INTRA:          -7.971
REMARK INTER:                  -7.546
REMARK INTRA:                  -0.424
REMARK UNBOUND:                -0.302
REMARK  Name = 
REMARK  7 active torsions:
REMARK  status: ('A' for Active; 'I' for Inactive)
REMARK    1  A    between atoms: C_2  and  C_3
REMARK    2  A    between atoms: C_6  and  C_7
REMARK    3  A    between atoms: N_9  and  C_10
REMARK    4  A    between atoms: C_10  and  C_11
REMARK    5  A    between atoms: N_14  and  C_15
REMARK    6  A    between atoms: C_15  and  C_16
REMARK    7  A    between atoms: C_20  and  O_21
REMARK                            x       y       z     vdW  Elec       q    Type
REMARK                         _______ _______ _______ _____ _____    ______ ____
ROOT
ATOM      1  C   UNL     1      49.354   9.391  13.025  0.00  0.00    +0.000 C 
ATOM      2  C   UNL     1      47.904   9.493  13.527  0.00  0.00    +0.000 C 
ATOM      3  C   UNL     1      47.236   8.120  13.651  0.00  0.00    +0.000 C 
ATOM      4  N   UNL     1      47.298   7.350  12.394  0.00  0.00    +0.000 NA
ATOM      5  C   UNL     1      48.680   7.216  11.903  0.00  0.00    +0.000 C 
ATOM      6  C   UNL     1      49.339   8.585  11.720  0.00  0.00    +0.000 C 
ENDROOT
BRANCH   1   7
ATOM      7  C   UNL     1      50.261   8.767  14.099  0.00  0.00    +0.000 C 
BRANCH   7  10
ATOM      8  C   UNL     1      49.552   7.481  16.054  0.00  0.00    +0.000 C 
ATOM      9  O   UNL     1      49.861   6.422  15.520  0.00  0.00    +0.000 OA
ATOM     10  N   UNL     1      49.665   8.704  15.419  0.00  0.00    +0.000 N 
ATOM     11  H   UNL     1      49.539   9.551  15.958  0.00  0.00    +0.000 HD
BRANCH   8  15
ATOM     12  C   UNL     1      49.527   8.213  19.754  0.00  0.00    +0.000 C 
ATOM     13  C   UNL     1      49.588   6.685  19.708  0.00  0.00    +0.000 C 
ATOM     14  C   UNL     1      49.264   6.273  18.268  0.00  0.00    +0.000 C 
ATOM     15  C   UNL     1      49.043   7.567  17.483  0.00  0.00    +0.000 C 
ATOM     16  C   UNL     1      49.777   8.628  18.307  0.00  0.00    +0.000 C 
BRANCH  12  18
ATOM     17  N   UNL     1      47.184   9.059  20.607  0.00  0.00    +0.000 NA
ATOM     18  C   UNL     1      48.211   8.681  20.226  0.00  0.00    +0.000 C 
ENDBRANCH  12  18
ENDBRANCH   8  15
ENDBRANCH   7  10
ENDBRANCH   1   7
BRANCH   4  19
ATOM     19  C   UNL     1      46.670   6.025  12.624  0.00  0.00    +0.000 C 
BRANCH  19  20
ATOM     20  C   UNL     1      45.641   5.685  11.541  0.00  0.00    +0.000 C 
ATOM     21  O   UNL     1      45.700   6.185  10.415  0.00  0.00    +0.000 OA
ATOM     22  N   UNL     1      44.643   4.810  11.912  0.00  0.00    +0.000 N 
ATOM     23  C   UNL     1      43.525   4.452  11.007  0.00  0.00    +0.000 C 
ATOM     24  C   UNL     1      43.945   2.981  11.129  0.00  0.00    +0.000 C 
ATOM     25  C   UNL     1      44.962   3.506  12.169  0.00  0.00    +0.000 C 
ATOM     26  O   UNL     1      45.697   3.006  12.988  0.00  0.00    +0.000 OA
BRANCH  24  27
ATOM     27  O   UNL     1      42.950   2.043  11.600  0.00  0.00    +0.000 OA
ATOM     28  H   UNL     1      43.350   1.596  12.367  0.00  0.00    +0.000 HD
ENDBRANCH  24  27
ENDBRANCH  19  20
ENDBRANCH   4  19
TORSDOF 7
ENDMDL
