MODEL 1
REMARK VINA RESULT:    -7.997      0.000      0.000
REMARK INTER + INTRA:         -13.075
REMARK INTER:                 -11.736
REMARK INTRA:                  -1.339
REMARK UNBOUND:                -1.339
REMARK  Name = 
REMARK  8 active torsions:
REMARK  status: ('A' for Active; 'I' for Inactive)
REMARK    1  A    between atoms: C_2  and  C_3
REMARK    2  A    between atoms: C_3  and  C_4
REMARK    3  A    between atoms: C_4  and  C_5
REMARK    4  A    between atoms: N_11  and  C_12
REMARK    5  A    between atoms: C_12  and  C_13
REMARK    6  A    between atoms: C_16  and  C_17
REMARK    7  A    between atoms: C_17  and  N_18
REMARK    8  A    between atoms: C_19  and  C_21
REMARK                            x       y       z     vdW  Elec       q    Type
REMARK                         _______ _______ _______ _____ _____    ______ ____
ROOT
ATOM      1  C   UNL     1      45.676   7.305  11.865  0.00  0.00    +0.000 A 
ATOM      2  C   UNL     1      46.653   6.317  12.047  0.00  0.00    +0.000 A 
ATOM      3  C   UNL     1      47.896   6.635  12.605  0.00  0.00    +0.000 A 
ATOM      4  C   UNL     1      48.181   7.945  13.013  0.00  0.00    +0.000 A 
ATOM      5  C   UNL     1      47.215   8.938  12.802  0.00  0.00    +0.000 A 
ATOM      6  C   UNL     1      45.969   8.619  12.250  0.00  0.00    +0.000 A 
ENDROOT
BRANCH   1   7
ATOM      7  C   UNL     1      44.322   6.942  11.313  0.00  0.00    +0.000 C 
BRANCH   7  10
ATOM      8  O   UNL     1      43.318   4.387  11.877  0.00  0.00    +0.000 OA
ATOM      9  C   UNL     1      43.898   4.579  10.812  0.00  0.00    +0.000 C 
ATOM     10  N   UNL     1      44.413   5.795  10.442  0.00  0.00    +0.000 N 
ATOM     11  H   UNL     1      44.833   5.913   9.530  0.00  0.00    +0.000 HD
BRANCH   9  12
ATOM     12  C   UNL     1      44.071   3.486   9.778  0.00  0.00    +0.000 C 
BRANCH  12  13
ATOM     13  C   UNL     1      44.619   4.025   8.455  0.00  0.00    +0.000 C 
BRANCH  13  14
ATOM     14  C   UNL     1      45.344   2.960   7.610  0.00  0.00    +0.000 C 
ATOM     15  C   UNL     1      45.874   1.811   8.481  0.00  0.00    +0.000 C 
ATOM     16  C   UNL     1      46.692   0.804   7.679  0.00  0.00    +0.000 C 
ATOM     17  C   UNL     1      47.831   1.483   6.933  0.00  0.00    +0.000 C 
ATOM     18  C   UNL     1      47.309   2.594   6.030  0.00  0.00    +0.000 C 
ATOM     19  C   UNL     1      46.489   3.615   6.814  0.00  0.00    +0.000 C 
ENDBRANCH  13  14
ENDBRANCH  12  13
ENDBRANCH   9  12
ENDBRANCH   7  10
ENDBRANCH   1   7
BRANCH   4  20
ATOM     20  C   UNL     1      49.494   8.280  13.677  0.00  0.00    +0.000 C 
BRANCH  20  21
ATOM     21  N   UNL     1      49.668   7.584  14.926  0.00  0.00    +0.000 N 
ATOM     22  C   UNL     1      49.100   8.052  16.084  0.00  0.00    +0.000 C 
ATOM     23  O   UNL     1      48.383   9.049  16.105  0.00  0.00    +0.000 OA
ATOM     24  H   UNL     1      50.426   6.912  14.979  0.00  0.00    +0.000 HD
BRANCH  22  25
ATOM     25  C   UNL     1      49.344   7.259  17.295  0.00  0.00    +0.000 A 
ATOM     26  C   UNL     1      49.984   7.835  18.387  0.00  0.00    +0.000 A 
ATOM     27  S   UNL     1      50.152   6.779  19.716  0.00  0.00    +0.000 S 
ATOM     28  C   UNL     1      49.420   5.501  18.864  0.00  0.00    +0.000 A 
ATOM     29  N   UNL     1      49.273   4.272  19.430  0.00  0.00    +0.000 NA
ATOM     30  C   UNL     1      48.715   3.397  18.663  0.00  0.00    +0.000 A 
ATOM     31  N   UNL     1      48.286   3.635  17.384  0.00  0.00    +0.000 N 
ATOM     32  C   UNL     1      48.391   4.866  16.780  0.00  0.00    +0.000 A 
ATOM     33  O   UNL     1      47.948   5.061  15.654  0.00  0.00    +0.000 OA
ATOM     34  C   UNL     1      49.026   5.884  17.594  0.00  0.00    +0.000 A 
ATOM     35  H   UNL     1      47.839   2.912  16.843  0.00  0.00    +0.000 HD
ENDBRANCH  22  25
ENDBRANCH  20  21
ENDBRANCH   4  20
TORSDOF 8
ENDMDL
MODEL 2
REMARK VINA RESULT:    -7.942      2.882      3.441
REMARK INTER + INTRA:         -12.996
REMARK INTER:                 -11.897
REMARK INTRA:                  -1.099
REMARK UNBOUND:                -1.339
REMARK  Name = 
REMARK  8 active torsions:
REMARK  status: ('A' for Active; 'I' for Inactive)
REMARK    1  A    between atoms: C_2  and  C_3
REMARK    2  A    between atoms: C_3  and  C_4
REMARK    3  A    between atoms: C_4  and  C_5
REMARK    4  A    between atoms: N_11  and  C_12
REMARK    5  A    between atoms: C_12  and  C_13
REMARK    6  A    between atoms: C_16  and  C_17
REMARK    7  A    between atoms: C_17  and  N_18
REMARK    8  A    between atoms: C_19  and  C_21
REMARK                            x       y       z     vdW  Elec       q    Type
REMARK                         _______ _______ _______ _____ _____    ______ ____
ROOT
ATOM      1  C   UNL     1      46.496   4.826  14.151  0.00  0.00    +0.000 A 
ATOM      2  C   UNL     1      46.760   4.219  15.385  0.00  0.00    +0.000 A 
ATOM      3  C   UNL     1      47.752   4.724  16.233  0.00  0.00    +0.000 A 
ATOM      4  C   UNL     1      48.485   5.863  15.874  0.00  0.00    +0.000 A 
ATOM      5  C   UNL     1      48.242   6.451  14.625  0.00  0.00    +0.000 A 
ATOM      6  C   UNL     1      47.246   5.949  13.780  0.00  0.00    +0.000 A 
ENDROOT
BRANCH   1   7
ATOM      7  C   UNL     1      45.391   4.305  13.269  0.00  0.00    +0.000 C 
BRANCH   7  10
ATOM      8  O   UNL     1      43.734   5.148  11.171  0.00  0.00    +0.000 OA
ATOM      9  C   UNL     1      44.881   4.791  10.919  0.00  0.00    +0.000 C 
ATOM     10  N   UNL     1      45.769   4.373  11.878  0.00  0.00    +0.000 N 
ATOM     11  H   UNL     1      46.720   4.142  11.624  0.00  0.00    +0.000 HD
BRANCH   9  12
ATOM     12  C   UNL     1      45.443   4.810   9.513  0.00  0.00    +0.000 C 
BRANCH  12  13
ATOM     13  C   UNL     1      44.538   4.073   8.521  0.00  0.00    +0.000 C 
BRANCH  13  14
ATOM     14  C   UNL     1      45.286   3.037   7.661  0.00  0.00    +0.000 C 
ATOM     15  C   UNL     1      45.796   1.860   8.507  0.00  0.00    +0.000 C 
ATOM     16  C   UNL     1      46.636   0.881   7.693  0.00  0.00    +0.000 C 
ATOM     17  C   UNL     1      47.792   1.585   6.999  0.00  0.00    +0.000 C 
ATOM     18  C   UNL     1      47.292   2.725   6.120  0.00  0.00    +0.000 C 
ATOM     19  C   UNL     1      46.450   3.719   6.916  0.00  0.00    +0.000 C 
ENDBRANCH  13  14
ENDBRANCH  12  13
ENDBRANCH   9  12
ENDBRANCH   7  10
ENDBRANCH   1   7
BRANCH   4  20
ATOM     20  C   UNL     1      49.509   6.452  16.813  0.00  0.00    +0.000 C 
BRANCH  20  21
ATOM     21  N   UNL     1      50.395   5.453  17.352  0.00  0.00    +0.000 N 
ATOM     22  C   UNL     1      51.739   5.472  17.072  0.00  0.00    +0.000 C 
ATOM     23  O   UNL     1      52.255   6.359  16.396  0.00  0.00    +0.000 OA
ATOM     24  H   UNL     1      49.972   4.602  17.707  0.00  0.00    +0.000 HD
BRANCH  22  25
ATOM     25  C   UNL     1      52.544   4.405  17.678  0.00  0.00    +0.000 A 
ATOM     26  C   UNL     1      53.754   4.710  18.292  0.00  0.00    +0.000 A 
ATOM     27  S   UNL     1      54.537   3.354  18.970  0.00  0.00    +0.000 S 
ATOM     28  C   UNL     1      53.312   2.305  18.426  0.00  0.00    +0.000 A 
ATOM     29  N   UNL     1      53.382   0.965  18.653  0.00  0.00    +0.000 NA
ATOM     30  C   UNL     1      52.393   0.292  18.171  0.00  0.00    +0.000 A 
ATOM     31  N   UNL     1      51.336   0.832  17.486  0.00  0.00    +0.000 N 
ATOM     32  C   UNL     1      51.211   2.182  17.254  0.00  0.00    +0.000 A 
ATOM     33  O   UNL     1      50.227   2.639  16.685  0.00  0.00    +0.000 OA
ATOM     34  C   UNL     1      52.306   2.984  17.762  0.00  0.00    +0.000 A 
ATOM     35  H   UNL     1      50.584   0.252  17.151  0.00  0.00    +0.000 HD
ENDBRANCH  22  25
ENDBRANCH  20  21
ENDBRANCH   4  20
TORSDOF 8
ENDMDL
MODEL 3
REMARK VINA RESULT:    -7.428      2.261      2.460
REMARK INTER + INTRA:         -12.240
REMARK INTER:                 -11.109
REMARK INTRA:                  -1.131
REMARK UNBOUND:                -1.339
REMARK  Name = 
REMARK  8 active torsions:
REMARK  status: ('A' for Active; 'I' for Inactive)
REMARK    1  A    between atoms: C_2  and  C_3
REMARK    2  A    between atoms: C_3  and  C_4
REMARK    3  A    between atoms: C_4  and  C_5
REMARK    4  A    between atoms: N_11  and  C_12
REMARK    5  A    between atoms: C_12  and  C_13
REMARK    6  A    between atoms: C_16  and  C_17
REMARK    7  A    between atoms: C_17  and  N_18
REMARK    8  A    between atoms: C_19  and  C_21
REMARK                            x       y       z     vdW  Elec       q    Type
REMARK                         _______ _______ _______ _____ _____    ______ ____
ROOT
ATOM      1  C   UNL     1      45.650   5.617  13.177  0.00  0.00    +0.000 A 
ATOM      2  C   UNL     1      45.767   6.936  12.718  0.00  0.00    +0.000 A 
ATOM      3  C   UNL     1      46.891   7.706  13.036  0.00  0.00    +0.000 A 
ATOM      4  C   UNL     1      47.933   7.166  13.801  0.00  0.00    +0.000 A 
ATOM      5  C   UNL     1      47.800   5.857  14.286  0.00  0.00    +0.000 A 
ATOM      6  C   UNL     1      46.679   5.085  13.963  0.00  0.00    +0.000 A 
ENDROOT
BRANCH   1   7
ATOM      7  C   UNL     1      44.461   4.780  12.786  0.00  0.00    +0.000 C 
BRANCH   7  10
ATOM      8  O   UNL     1      42.977   2.595  11.847  0.00  0.00    +0.000 OA
ATOM      9  C   UNL     1      43.946   2.981  11.200  0.00  0.00    +0.000 C 
ATOM     10  N   UNL     1      44.726   4.046  11.571  0.00  0.00    +0.000 N 
ATOM     11  H   UNL     1      45.479   4.358  10.974  0.00  0.00    +0.000 HD
BRANCH   9  12
ATOM     12  C   UNL     1      44.357   2.330   9.896  0.00  0.00    +0.000 C 
BRANCH  12  13
ATOM     13  C   UNL     1      44.810   3.358   8.856  0.00  0.00    +0.000 C 
BRANCH  13  14
ATOM     14  C   UNL     1      45.518   2.730   7.640  0.00  0.00    +0.000 C 
ATOM     15  C   UNL     1      46.370   1.518   8.043  0.00  0.00    +0.000 C 
ATOM     16  C   UNL     1      47.167   0.953   6.873  0.00  0.00    +0.000 C 
ATOM     17  C   UNL     1      48.029   2.024   6.220  0.00  0.00    +0.000 C 
ATOM     18  C   UNL     1      47.185   3.211   5.774  0.00  0.00    +0.000 C 
ATOM     19  C   UNL     1      46.379   3.794   6.932  0.00  0.00    +0.000 C 
ENDBRANCH  13  14
ENDBRANCH  12  13
ENDBRANCH   9  12
ENDBRANCH   7  10
ENDBRANCH   1   7
BRANCH   4  20
ATOM     20  C   UNL     1      49.178   7.969  14.091  0.00  0.00    +0.000 C 
BRANCH  20  21
ATOM     21  N   UNL     1      50.213   7.173  14.698  0.00  0.00    +0.000 N 
ATOM     22  C   UNL     1      50.927   7.638  15.773  0.00  0.00    +0.000 C 
ATOM     23  O   UNL     1      50.690   8.724  16.297  0.00  0.00    +0.000 OA
ATOM     24  H   UNL     1      50.577   6.396  14.156  0.00  0.00    +0.000 HD
BRANCH  22  25
ATOM     25  C   UNL     1      51.956   6.738  16.310  0.00  0.00    +0.000 A 
ATOM     26  C   UNL     1      53.302   7.032  16.125  0.00  0.00    +0.000 A 
ATOM     27  S   UNL     1      54.353   5.896  16.844  0.00  0.00    +0.000 S 
ATOM     28  C   UNL     1      53.049   4.948  17.386  0.00  0.00    +0.000 A 
ATOM     29  N   UNL     1      53.258   3.787  18.066  0.00  0.00    +0.000 NA
ATOM     30  C   UNL     1      52.178   3.166  18.400  0.00  0.00    +0.000 A 
ATOM     31  N   UNL     1      50.907   3.596  18.124  0.00  0.00    +0.000 N 
ATOM     32  C   UNL     1      50.647   4.774  17.462  0.00  0.00    +0.000 A 
ATOM     33  O   UNL     1      49.498   5.157  17.279  0.00  0.00    +0.000 OA
ATOM     34  C   UNL     1      51.828   5.505  17.049  0.00  0.00    +0.000 A 
ATOM     35  H   UNL     1      50.104   3.073  18.432  0.00  0.00    +0.000 HD
ENDBRANCH  22  25
ENDBRANCH  20  21
ENDBRANCH   4  20
TORSDOF 8
ENDMDL
MODEL 4
REMARK VINA RESULT:    -7.248      3.068      8.769
REMARK INTER + INTRA:         -11.977
REMARK INTER:                 -10.024
REMARK INTRA:                  -1.953
REMARK UNBOUND:                -1.339
REMARK  Name = 
REMARK  8 active torsions:
REMARK  status: ('A' for Active; 'I' for Inactive)
REMARK    1  A    between atoms: C_2  and  C_3
REMARK    2  A    between atoms: C_3  and  C_4
REMARK    3  A    between atoms: C_4  and  C_5
REMARK    4  A    between atoms: N_11  and  C_12
REMARK    5  A    between atoms: C_12  and  C_13
REMARK    6  A    between atoms: C_16  and  C_17
REMARK    7  A    between atoms: C_17  and  N_18
REMARK    8  A    between atoms: C_19  and  C_21
REMARK                            x       y       z     vdW  Elec       q    Type
REMARK                         _______ _______ _______ _____ _____    ______ ____
ROOT
ATOM      1  C   UNL     1      50.581   7.441  15.080  0.00  0.00    +0.000 A 
ATOM      2  C   UNL     1      50.804   8.139  13.886  0.00  0.00    +0.000 A 
ATOM      3  C   UNL     1      49.803   8.229  12.913  0.00  0.00    +0.000 A 
ATOM      4  C   UNL     1      48.548   7.640  13.123  0.00  0.00    +0.000 A 
ATOM      5  C   UNL     1      48.338   6.915  14.304  0.00  0.00    +0.000 A 
ATOM      6  C   UNL     1      49.337   6.831  15.280  0.00  0.00    +0.000 A 
ENDROOT
BRANCH   1   7
ATOM      7  C   UNL     1      51.647   7.395  16.143  0.00  0.00    +0.000 C 
BRANCH   7  10
ATOM      8  O   UNL     1      51.412   7.388  18.936  0.00  0.00    +0.000 OA
ATOM      9  C   UNL     1      51.401   6.318  18.333  0.00  0.00    +0.000 C 
ATOM     10  N   UNL     1      51.500   6.220  16.969  0.00  0.00    +0.000 N 
ATOM     11  H   UNL     1      51.430   5.319  16.517  0.00  0.00    +0.000 HD
BRANCH   9  12
ATOM     12  C   UNL     1      51.243   4.991  19.046  0.00  0.00    +0.000 C 
BRANCH  12  13
ATOM     13  C   UNL     1      49.833   4.806  19.611  0.00  0.00    +0.000 C 
BRANCH  13  14
ATOM     14  C   UNL     1      48.918   3.950  18.714  0.00  0.00    +0.000 C 
ATOM     15  C   UNL     1      49.727   3.140  17.689  0.00  0.00    +0.000 C 
ATOM     16  C   UNL     1      48.834   2.375  16.719  0.00  0.00    +0.000 C 
ATOM     17  C   UNL     1      47.853   3.302  16.018  0.00  0.00    +0.000 C 
ATOM     18  C   UNL     1      47.013   4.076  17.027  0.00  0.00    +0.000 C 
ATOM     19  C   UNL     1      47.888   4.852  18.008  0.00  0.00    +0.000 C 
ENDBRANCH  13  14
ENDBRANCH  12  13
ENDBRANCH   9  12
ENDBRANCH   7  10
ENDBRANCH   1   7
BRANCH   4  20
ATOM     20  C   UNL     1      47.443   7.791  12.107  0.00  0.00    +0.000 C 
BRANCH  20  21
ATOM     21  N   UNL     1      46.766   6.546  11.848  0.00  0.00    +0.000 N 
ATOM     22  C   UNL     1      45.400   6.495  11.718  0.00  0.00    +0.000 C 
ATOM     23  O   UNL     1      44.699   7.503  11.768  0.00  0.00    +0.000 OA
ATOM     24  H   UNL     1      47.281   5.692  12.033  0.00  0.00    +0.000 HD
BRANCH  22  25
ATOM     25  C   UNL     1      44.821   5.172  11.454  0.00  0.00    +0.000 A 
ATOM     26  C   UNL     1      44.061   4.538  12.430  0.00  0.00    +0.000 A 
ATOM     27  S   UNL     1      43.441   3.026  11.937  0.00  0.00    +0.000 S 
ATOM     28  C   UNL     1      44.205   3.144  10.421  0.00  0.00    +0.000 A 
ATOM     29  N   UNL     1      44.102   2.145   9.502  0.00  0.00    +0.000 NA
ATOM     30  C   UNL     1      44.745   2.364   8.406  0.00  0.00    +0.000 A 
ATOM     31  N   UNL     1      45.478   3.489   8.137  0.00  0.00    +0.000 N 
ATOM     32  C   UNL     1      45.591   4.535   9.025  0.00  0.00    +0.000 A 
ATOM     33  O   UNL     1      46.210   5.551   8.732  0.00  0.00    +0.000 OA
ATOM     34  C   UNL     1      44.899   4.333  10.283  0.00  0.00    +0.000 A 
ATOM     35  H   UNL     1      45.942   3.608   7.251  0.00  0.00    +0.000 HD
ENDBRANCH  22  25
ENDBRANCH  20  21
ENDBRANCH   4  20
TORSDOF 8
ENDMDL
MODEL 5
REMARK VINA RESULT:    -7.107      2.951      8.619
REMARK INTER + INTRA:         -11.769
REMARK INTER:                 -10.128
REMARK INTRA:                  -1.641
REMARK UNBOUND:                -1.339
REMARK  Name = 
REMARK  8 active torsions:
REMARK  status: ('A' for Active; 'I' for Inactive)
REMARK    1  A    between atoms: C_2  and  C_3
REMARK    2  A    between atoms: C_3  and  C_4
REMARK    3  A    between atoms: C_4  and  C_5
REMARK    4  A    between atoms: N_11  and  C_12
REMARK    5  A    between atoms: C_12  and  C_13
REMARK    6  A    between atoms: C_16  and  C_17
REMARK    7  A    between atoms: C_17  and  N_18
REMARK    8  A    between atoms: C_19  and  C_21
REMARK                            x       y       z     vdW  Elec       q    Type
REMARK                         _______ _______ _______ _____ _____    ______ ____
ROOT
ATOM      1  C   UNL     1      49.032   8.288  15.861  0.00  0.00    +0.000 A 
ATOM      2  C   UNL     1      48.931   7.024  15.268  0.00  0.00    +0.000 A 
ATOM      3  C   UNL     1      48.398   6.878  13.982  0.00  0.00    +0.000 A 
ATOM      4  C   UNL     1      47.975   7.998  13.254  0.00  0.00    +0.000 A 
ATOM      5  C   UNL     1      48.047   9.259  13.862  0.00  0.00    +0.000 A 
ATOM      6  C   UNL     1      48.586   9.405  15.144  0.00  0.00    +0.000 A 
ENDROOT
BRANCH   1   7
ATOM      7  C   UNL     1      49.656   8.440  17.224  0.00  0.00    +0.000 C 
BRANCH   7  10
ATOM      8  O   UNL     1      47.356   8.528  18.824  0.00  0.00    +0.000 OA
ATOM      9  C   UNL     1      48.074   7.533  18.864  0.00  0.00    +0.000 C 
ATOM     10  N   UNL     1      49.212   7.393  18.112  0.00  0.00    +0.000 N 
ATOM     11  H   UNL     1      49.737   6.529  18.142  0.00  0.00    +0.000 HD
BRANCH   9  12
ATOM     12  C   UNL     1      47.748   6.338  19.735  0.00  0.00    +0.000 C 
BRANCH  12  13
ATOM     13  C   UNL     1      48.937   5.384  19.873  0.00  0.00    +0.000 C 
BRANCH  13  14
ATOM     14  C   UNL     1      48.769   4.074  19.079  0.00  0.00    +0.000 C 
ATOM     15  C   UNL     1      49.986   3.794  18.184  0.00  0.00    +0.000 C 
ATOM     16  C   UNL     1      49.790   2.562  17.307  0.00  0.00    +0.000 C 
ATOM     17  C   UNL     1      48.523   2.672  16.472  0.00  0.00    +0.000 C 
ATOM     18  C   UNL     1      47.303   2.903  17.355  0.00  0.00    +0.000 C 
ATOM     19  C   UNL     1      47.477   4.133  18.241  0.00  0.00    +0.000 C 
ENDBRANCH  13  14
ENDBRANCH  12  13
ENDBRANCH   9  12
ENDBRANCH   7  10
ENDBRANCH   1   7
BRANCH   4  20
ATOM     20  C   UNL     1      47.461   7.854  11.842  0.00  0.00    +0.000 C 
BRANCH  20  21
ATOM     21  N   UNL     1      46.784   6.601  11.632  0.00  0.00    +0.000 N 
ATOM     22  C   UNL     1      45.414   6.525  11.637  0.00  0.00    +0.000 C 
ATOM     23  O   UNL     1      44.703   7.518  11.771  0.00  0.00    +0.000 OA
ATOM     24  H   UNL     1      47.330   5.754  11.752  0.00  0.00    +0.000 HD
BRANCH  22  25
ATOM     25  C   UNL     1      44.835   5.195  11.410  0.00  0.00    +0.000 A 
ATOM     26  C   UNL     1      44.091   4.580  12.411  0.00  0.00    +0.000 A 
ATOM     27  S   UNL     1      43.468   3.057  11.961  0.00  0.00    +0.000 S 
ATOM     28  C   UNL     1      44.210   3.143  10.432  0.00  0.00    +0.000 A 
ATOM     29  N   UNL     1      44.096   2.124   9.537  0.00  0.00    +0.000 NA
ATOM     30  C   UNL     1      44.723   2.319   8.427  0.00  0.00    +0.000 A 
ATOM     31  N   UNL     1      45.450   3.440   8.123  0.00  0.00    +0.000 N 
ATOM     32  C   UNL     1      45.572   4.505   8.985  0.00  0.00    +0.000 A 
ATOM     33  O   UNL     1      46.183   5.516   8.662  0.00  0.00    +0.000 OA
ATOM     34  C   UNL     1      44.898   4.330  10.257  0.00  0.00    +0.000 A 
ATOM     35  H   UNL     1      45.900   3.540   7.228  0.00  0.00    +0.000 HD
ENDBRANCH  22  25
ENDBRANCH  20  21
ENDBRANCH   4  20
TORSDOF 8
ENDMDL
MODEL 6
REMARK VINA RESULT:    -6.931      5.420     10.224
REMARK INTER + INTRA:         -11.511
REMARK INTER:                 -10.522
REMARK INTRA:                  -0.990
REMARK UNBOUND:                -1.339
REMARK  Name = 
REMARK  8 active torsions:
REMARK  status: ('A' for Active; 'I' for Inactive)
REMARK    1  A    between atoms: C_2  and  C_3
REMARK    2  A    between atoms: C_3  and  C_4
REMARK    3  A    between atoms: C_4  and  C_5
REMARK    4  A    between atoms: N_11  and  C_12
REMARK    5  A    between atoms: C_12  and  C_13
REMARK    6  A    between atoms: C_16  and  C_17
REMARK    7  A    between atoms: C_17  and  N_18
REMARK    8  A    between atoms: C_19  and  C_21
REMARK                            x       y       z     vdW  Elec       q    Type
REMARK                         _______ _______ _______ _____ _____    ______ ____
ROOT
ATOM      1  C   UNL     1      51.536   2.851  17.721  0.00  0.00    +0.000 A 
ATOM      2  C   UNL     1      50.955   4.089  18.025  0.00  0.00    +0.000 A 
ATOM      3  C   UNL     1      49.606   4.334  17.748  0.00  0.00    +0.000 A 
ATOM      4  C   UNL     1      48.801   3.336  17.182  0.00  0.00    +0.000 A 
ATOM      5  C   UNL     1      49.391   2.108  16.849  0.00  0.00    +0.000 A 
ATOM      6  C   UNL     1      50.739   1.862  17.132  0.00  0.00    +0.000 A 
ENDROOT
BRANCH   1   7
ATOM      7  C   UNL     1      52.976   2.581  18.071  0.00  0.00    +0.000 C 
BRANCH   7  10
ATOM      8  O   UNL     1      54.762   0.668  17.068  0.00  0.00    +0.000 OA
ATOM      9  C   UNL     1      54.036   0.370  18.012  0.00  0.00    +0.000 C 
ATOM     10  N   UNL     1      53.139   1.239  18.578  0.00  0.00    +0.000 N 
ATOM     11  H   UNL     1      52.604   0.962  19.389  0.00  0.00    +0.000 HD
BRANCH   9  12
ATOM     12  C   UNL     1      54.086  -0.993  18.671  0.00  0.00    +0.000 C 
BRANCH  12  13
ATOM     13  C   UNL     1      55.001  -1.963  17.919  0.00  0.00    +0.000 C 
BRANCH  13  14
ATOM     14  C   UNL     1      54.565  -3.436  18.039  0.00  0.00    +0.000 C 
ATOM     15  C   UNL     1      54.325  -4.070  16.661  0.00  0.00    +0.000 C 
ATOM     16  C   UNL     1      53.785  -5.492  16.763  0.00  0.00    +0.000 C 
ATOM     17  C   UNL     1      52.521  -5.547  17.608  0.00  0.00    +0.000 C 
ATOM     18  C   UNL     1      52.762  -4.962  18.994  0.00  0.00    +0.000 C 
ATOM     19  C   UNL     1      53.302  -3.537  18.916  0.00  0.00    +0.000 C 
ENDBRANCH  13  14
ENDBRANCH  12  13
ENDBRANCH   9  12
ENDBRANCH   7  10
ENDBRANCH   1   7
BRANCH   4  20
ATOM     20  C   UNL     1      47.330   3.570  16.944  0.00  0.00    +0.000 C 
BRANCH  20  21
ATOM     21  N   UNL     1      47.093   4.573  15.938  0.00  0.00    +0.000 N 
ATOM     22  C   UNL     1      47.074   4.251  14.604  0.00  0.00    +0.000 C 
ATOM     23  O   UNL     1      47.209   3.096  14.208  0.00  0.00    +0.000 OA
ATOM     24  H   UNL     1      47.210   5.543  16.214  0.00  0.00    +0.000 HD
BRANCH  22  25
ATOM     25  C   UNL     1      46.821   5.355  13.670  0.00  0.00    +0.000 A 
ATOM     26  C   UNL     1      47.836   6.254  13.364  0.00  0.00    +0.000 A 
ATOM     27  S   UNL     1      47.373   7.450  12.239  0.00  0.00    +0.000 S 
ATOM     28  C   UNL     1      45.787   6.839  12.157  0.00  0.00    +0.000 A 
ATOM     29  N   UNL     1      44.844   7.433  11.377  0.00  0.00    +0.000 NA
ATOM     30  C   UNL     1      43.684   6.872  11.426  0.00  0.00    +0.000 A 
ATOM     31  N   UNL     1      43.376   5.769  12.178  0.00  0.00    +0.000 N 
ATOM     32  C   UNL     1      44.303   5.120  12.961  0.00  0.00    +0.000 A 
ATOM     33  O   UNL     1      44.010   4.104  13.579  0.00  0.00    +0.000 OA
ATOM     34  C   UNL     1      45.622   5.721  12.955  0.00  0.00    +0.000 A 
ATOM     35  H   UNL     1      42.454   5.366  12.156  0.00  0.00    +0.000 HD
ENDBRANCH  22  25
ENDBRANCH  20  21
ENDBRANCH   4  20
TORSDOF 8
ENDMDL
MODEL 7
REMARK VINA RESULT:    -6.871      3.922      9.388
REMARK INTER + INTRA:         -11.423
REMARK INTER:                  -9.415
REMARK INTRA:                  -2.008
REMARK UNBOUND:                -1.339
REMARK  Name = 
REMARK  8 active torsions:
REMARK  status: ('A' for Active; 'I' for Inactive)
REMARK    1  A    between atoms: C_2  and  C_3
REMARK    2  A    between atoms: C_3  and  C_4
REMARK    3  A    between atoms: C_4  and  C_5
REMARK    4  A    between atoms: N_11  and  C_12
REMARK    5  A    between atoms: C_12  and  C_13
REMARK    6  A    between atoms: C_16  and  C_17
REMARK    7  A    between atoms: C_17  and  N_18
REMARK    8  A    between atoms: C_19  and  C_21
REMARK                            x       y       z     vdW  Elec       q    Type
REMARK                         _______ _______ _______ _____ _____    ______ ____
ROOT
ATOM      1  C   UNL     1      51.459   3.664  17.771  0.00  0.00    +0.000 A 
ATOM      2  C   UNL     1      50.637   4.798  17.801  0.00  0.00    +0.000 A 
ATOM      3  C   UNL     1      49.283   4.708  17.460  0.00  0.00    +0.000 A 
ATOM      4  C   UNL     1      48.717   3.477  17.103  0.00  0.00    +0.000 A 
ATOM      5  C   UNL     1      49.548   2.349  17.042  0.00  0.00    +0.000 A 
ATOM      6  C   UNL     1      50.901   2.438  17.389  0.00  0.00    +0.000 A 
ENDROOT
BRANCH   1   7
ATOM      7  C   UNL     1      52.903   3.762  18.190  0.00  0.00    +0.000 C 
BRANCH   7  10
ATOM      8  O   UNL     1      53.545   6.117  19.568  0.00  0.00    +0.000 OA
ATOM      9  C   UNL     1      53.795   6.040  18.369  0.00  0.00    +0.000 C 
ATOM     10  N   UNL     1      53.528   4.927  17.612  0.00  0.00    +0.000 N 
ATOM     11  H   UNL     1      53.805   4.895  16.640  0.00  0.00    +0.000 HD
BRANCH   9  12
ATOM     12  C   UNL     1      54.461   7.168  17.609  0.00  0.00    +0.000 C 
BRANCH  12  13
ATOM     13  C   UNL     1      53.522   8.360  17.409  0.00  0.00    +0.000 C 
BRANCH  13  14
ATOM     14  C   UNL     1      52.084   7.954  17.035  0.00  0.00    +0.000 C 
ATOM     15  C   UNL     1      51.948   7.669  15.531  0.00  0.00    +0.000 C 
ATOM     16  C   UNL     1      50.509   7.375  15.124  0.00  0.00    +0.000 C 
ATOM     17  C   UNL     1      49.572   8.498  15.544  0.00  0.00    +0.000 C 
ATOM     18  C   UNL     1      49.665   8.757  17.043  0.00  0.00    +0.000 C 
ATOM     19  C   UNL     1      51.099   9.055  17.473  0.00  0.00    +0.000 C 
ENDBRANCH  13  14
ENDBRANCH  12  13
ENDBRANCH   9  12
ENDBRANCH   7  10
ENDBRANCH   1   7
BRANCH   4  20
ATOM     20  C   UNL     1      47.243   3.361  16.800  0.00  0.00    +0.000 C 
BRANCH  20  21
ATOM     21  N   UNL     1      46.801   4.352  15.853  0.00  0.00    +0.000 N 
ATOM     22  C   UNL     1      46.856   4.117  14.502  0.00  0.00    +0.000 C 
ATOM     23  O   UNL     1      47.236   3.044  14.039  0.00  0.00    +0.000 OA
ATOM     24  H   UNL     1      46.708   5.304  16.190  0.00  0.00    +0.000 HD
BRANCH  22  25
ATOM     25  C   UNL     1      46.376   5.199  13.633  0.00  0.00    +0.000 A 
ATOM     26  C   UNL     1      47.156   6.334  13.440  0.00  0.00    +0.000 A 
ATOM     27  S   UNL     1      46.457   7.469  12.376  0.00  0.00    +0.000 S 
ATOM     28  C   UNL     1      45.068   6.507  12.173  0.00  0.00    +0.000 A 
ATOM     29  N   UNL     1      44.036   6.920  11.387  0.00  0.00    +0.000 NA
ATOM     30  C   UNL     1      43.044   6.097  11.338  0.00  0.00    +0.000 A 
ATOM     31  N   UNL     1      42.986   4.898  11.997  0.00  0.00    +0.000 N 
ATOM     32  C   UNL     1      44.014   4.429  12.782  0.00  0.00    +0.000 A 
ATOM     33  O   UNL     1      43.953   3.327  13.314  0.00  0.00    +0.000 OA
ATOM     34  C   UNL     1      45.150   5.324  12.884  0.00  0.00    +0.000 A 
ATOM     35  H   UNL     1      42.188   4.291  11.902  0.00  0.00    +0.000 HD
ENDBRANCH  22  25
ENDBRANCH  20  21
ENDBRANCH   4  20
TORSDOF 8
ENDMDL
MODEL 8
REMARK VINA RESULT:    -6.867      4.332      6.513
REMARK INTER + INTRA:         -11.418
REMARK INTER:                 -10.155
REMARK INTRA:                  -1.263
REMARK UNBOUND:                -1.339
REMARK  Name = 
REMARK  8 active torsions:
REMARK  status: ('A' for Active; 'I' for Inactive)
REMARK    1  A    between atoms: C_2  and  C_3
REMARK    2  A    between atoms: C_3  and  C_4
REMARK    3  A    between atoms: C_4  and  C_5
REMARK    4  A    between atoms: N_11  and  C_12
REMARK    5  A    between atoms: C_12  and  C_13
REMARK    6  A    between atoms: C_16  and  C_17
REMARK    7  A    between atoms: C_17  and  N_18
REMARK    8  A    between atoms: C_19  and  C_21
REMARK                            x       y       z     vdW  Elec       q    Type
REMARK                         _______ _______ _______ _____ _____    ______ ____
ROOT
ATOM      1  C   UNL     1      45.553   6.769  12.608  0.00  0.00    +0.000 A 
ATOM      2  C   UNL     1      45.463   8.162  12.494  0.00  0.00    +0.000 A 
ATOM      3  C   UNL     1      46.614   8.958  12.517  0.00  0.00    +0.000 A 
ATOM      4  C   UNL     1      47.882   8.374  12.632  0.00  0.00    +0.000 A 
ATOM      5  C   UNL     1      47.969   6.982  12.777  0.00  0.00    +0.000 A 
ATOM      6  C   UNL     1      46.819   6.186  12.748  0.00  0.00    +0.000 A 
ENDROOT
BRANCH   1   7
ATOM      7  C   UNL     1      44.312   5.918  12.530  0.00  0.00    +0.000 C 
BRANCH   7  10
ATOM      8  O   UNL     1      43.805   3.163  12.634  0.00  0.00    +0.000 OA
ATOM      9  C   UNL     1      44.124   3.672  11.563  0.00  0.00    +0.000 C 
ATOM     10  N   UNL     1      44.381   5.010  11.410  0.00  0.00    +0.000 N 
ATOM     11  H   UNL     1      44.586   5.387  10.495  0.00  0.00    +0.000 HD
BRANCH   9  12
ATOM     12  C   UNL     1      44.232   2.864  10.287  0.00  0.00    +0.000 C 
BRANCH  12  13
ATOM     13  C   UNL     1      44.731   3.708   9.111  0.00  0.00    +0.000 C 
BRANCH  13  14
ATOM     14  C   UNL     1      45.967   3.114   8.409  0.00  0.00    +0.000 C 
ATOM     15  C   UNL     1      46.117   3.649   6.976  0.00  0.00    +0.000 C 
ATOM     16  C   UNL     1      47.268   2.988   6.227  0.00  0.00    +0.000 C 
ATOM     17  C   UNL     1      47.131   1.472   6.224  0.00  0.00    +0.000 C 
ATOM     18  C   UNL     1      47.029   0.928   7.644  0.00  0.00    +0.000 C 
ATOM     19  C   UNL     1      45.880   1.576   8.412  0.00  0.00    +0.000 C 
ENDBRANCH  13  14
ENDBRANCH  12  13
ENDBRANCH   9  12
ENDBRANCH   7  10
ENDBRANCH   1   7
BRANCH   4  20
ATOM     20  C   UNL     1      49.131   9.221  12.589  0.00  0.00    +0.000 C 
BRANCH  20  21
ATOM     21  N   UNL     1      49.965   8.907  11.458  0.00  0.00    +0.000 N 
ATOM     22  C   UNL     1      51.265   8.498  11.627  0.00  0.00    +0.000 C 
ATOM     23  O   UNL     1      51.761   8.335  12.739  0.00  0.00    +0.000 OA
ATOM     24  H   UNL     1      49.664   9.249  10.552  0.00  0.00    +0.000 HD
BRANCH  22  25
ATOM     25  C   UNL     1      52.019   8.204  10.402  0.00  0.00    +0.000 A 
ATOM     26  C   UNL     1      52.418   6.901  10.128  0.00  0.00    +0.000 A 
ATOM     27  S   UNL     1      53.253   6.740   8.648  0.00  0.00    +0.000 S 
ATOM     28  C   UNL     1      53.152   8.411   8.345  0.00  0.00    +0.000 A 
ATOM     29  N   UNL     1      53.706   8.958   7.229  0.00  0.00    +0.000 NA
ATOM     30  C   UNL     1      53.566  10.237   7.139  0.00  0.00    +0.000 A 
ATOM     31  N   UNL     1      52.920  11.023   8.056  0.00  0.00    +0.000 N 
ATOM     32  C   UNL     1      52.324  10.512   9.186  0.00  0.00    +0.000 A 
ATOM     33  O   UNL     1      51.706  11.234   9.959  0.00  0.00    +0.000 OA
ATOM     34  C   UNL     1      52.466   9.078   9.345  0.00  0.00    +0.000 A 
ATOM     35  H   UNL     1      52.828  12.016   7.917  0.00  0.00    +0.000 HD
ENDBRANCH  22  25
ENDBRANCH  20  21
ENDBRANCH   4  20
TORSDOF 8
ENDMDL
MODEL 9
REMARK VINA RESULT:    -6.334      5.589      7.941
REMARK INTER + INTRA:         -10.635
REMARK INTER:                  -9.473
REMARK INTRA:                  -1.162
REMARK UNBOUND:                -1.339
REMARK  Name = 
REMARK  8 active torsions:
REMARK  status: ('A' for Active; 'I' for Inactive)
REMARK    1  A    between atoms: C_2  and  C_3
REMARK    2  A    between atoms: C_3  and  C_4
REMARK    3  A    between atoms: C_4  and  C_5
REMARK    4  A    between atoms: N_11  and  C_12
REMARK    5  A    between atoms: C_12  and  C_13
REMARK    6  A    between atoms: C_16  and  C_17
REMARK    7  A    between atoms: C_17  and  N_18
REMARK    8  A    between atoms: C_19  and  C_21
REMARK                            x       y       z     vdW  Elec       q    Type
REMARK                         _______ _______ _______ _____ _____    ______ ____
ROOT
ATOM      1  C   UNL     1      48.865   3.326  17.278  0.00  0.00    +0.000 A 
ATOM      2  C   UNL     1      49.563   2.133  17.052  0.00  0.00    +0.000 A 
ATOM      3  C   UNL     1      50.932   2.042  17.326  0.00  0.00    +0.000 A 
ATOM      4  C   UNL     1      51.628   3.138  17.853  0.00  0.00    +0.000 A 
ATOM      5  C   UNL     1      50.936   4.341  18.049  0.00  0.00    +0.000 A 
ATOM      6  C   UNL     1      49.565   4.430  17.781  0.00  0.00    +0.000 A 
ENDROOT
BRANCH   1   7
ATOM      7  C   UNL     1      47.381   3.398  17.029  0.00  0.00    +0.000 C 
BRANCH   7  10
ATOM      8  O   UNL     1      47.298   3.198  14.234  0.00  0.00    +0.000 OA
ATOM      9  C   UNL     1      47.058   4.280  14.763  0.00  0.00    +0.000 C 
ATOM     10  N   UNL     1      47.063   4.473  16.121  0.00  0.00    +0.000 N 
ATOM     11  H   UNL     1      46.804   5.371  16.508  0.00  0.00    +0.000 HD
BRANCH   9  12
ATOM     12  C   UNL     1      46.695   5.510  13.958  0.00  0.00    +0.000 C 
BRANCH  12  13
ATOM     13  C   UNL     1      46.826   5.272  12.451  0.00  0.00    +0.000 C 
BRANCH  13  14
ATOM     14  C   UNL     1      45.474   5.252  11.713  0.00  0.00    +0.000 C 
ATOM     15  C   UNL     1      44.644   6.509  12.015  0.00  0.00    +0.000 C 
ATOM     16  C   UNL     1      43.258   6.455  11.383  0.00  0.00    +0.000 C 
ATOM     17  C   UNL     1      42.505   5.201  11.802  0.00  0.00    +0.000 C 
ATOM     18  C   UNL     1      43.300   3.945  11.464  0.00  0.00    +0.000 C 
ATOM     19  C   UNL     1      44.693   3.978  12.088  0.00  0.00    +0.000 C 
ENDBRANCH  13  14
ENDBRANCH  12  13
ENDBRANCH   9  12
ENDBRANCH   7  10
ENDBRANCH   1   7
BRANCH   4  20
ATOM     20  C   UNL     1      53.089   3.025  18.214  0.00  0.00    +0.000 C 
BRANCH  20  21
ATOM     21  N   UNL     1      53.485   1.665  18.470  0.00  0.00    +0.000 N 
ATOM     22  C   UNL     1      54.738   1.368  18.947  0.00  0.00    +0.000 C 
ATOM     23  O   UNL     1      55.558   2.241  19.221  0.00  0.00    +0.000 OA
ATOM     24  H   UNL     1      52.929   0.932  18.042  0.00  0.00    +0.000 HD
BRANCH  22  25
ATOM     25  C   UNL     1      55.029  -0.053  19.173  0.00  0.00    +0.000 A 
ATOM     26  C   UNL     1      55.418  -0.491  20.434  0.00  0.00    +0.000 A 
ATOM     27  S   UNL     1      55.681  -2.175  20.520  0.00  0.00    +0.000 S 
ATOM     28  C   UNL     1      55.331  -2.371  18.866  0.00  0.00    +0.000 A 
ATOM     29  N   UNL     1      55.401  -3.594  18.273  0.00  0.00    +0.000 NA
ATOM     30  C   UNL     1      55.125  -3.589  17.013  0.00  0.00    +0.000 A 
ATOM     31  N   UNL     1      54.782  -2.478  16.288  0.00  0.00    +0.000 N 
ATOM     32  C   UNL     1      54.675  -1.227  16.850  0.00  0.00    +0.000 A 
ATOM     33  O   UNL     1      54.313  -0.263  16.186  0.00  0.00    +0.000 OA
ATOM     34  C   UNL     1      54.990  -1.173  18.264  0.00  0.00    +0.000 A 
ATOM     35  H   UNL     1      54.559  -2.546  15.309  0.00  0.00    +0.000 HD
ENDBRANCH  22  25
ENDBRANCH  20  21
ENDBRANCH   4  20
TORSDOF 8
ENDMDL
