MODEL 1
REMARK VINA RESULT:    -8.843      0.000      0.000
REMARK INTER + INTRA:         -12.239
REMARK INTER:                 -11.428
REMARK INTRA:                  -0.811
REMARK UNBOUND:                -0.811
REMARK  Name = 
REMARK  7 active torsions:
REMARK  status: ('A' for Active; 'I' for Inactive)
REMARK    1  A    between atoms: C_1  and  C_2
REMARK    2  A    between atoms: C_2  and  N_3
REMARK    3  A    between atoms: C_2  and  C_17
REMARK    4  A    between atoms: C_4  and  C_6
REMARK    5  A    between atoms: N_12  and  C_13
REMARK    6  A    between atoms: C_20  and  C_21
REMARK    7  A    between atoms: C_21  and  N_22
REMARK                            x       y       z     vdW  Elec       q    Type
REMARK                         _______ _______ _______ _____ _____    ______ ____
ROOT
ATOM      1  C   UNL     1      45.643   8.775  12.955  0.00  0.00    +0.000 C 
ATOM      2  C   UNL     1      46.759   7.744  12.759  0.00  0.00    +0.000 C 
ENDROOT
BRANCH   2   3
ATOM      3  C   UNL     1      46.203   6.513  12.056  0.00  0.00    +0.000 A 
ATOM      4  C   UNL     1      46.194   6.486  10.652  0.00  0.00    +0.000 A 
ATOM      5  C   UNL     1      45.594   5.433   9.961  0.00  0.00    +0.000 A 
ATOM      6  C   UNL     1      44.980   4.384  10.653  0.00  0.00    +0.000 A 
ATOM      7  C   UNL     1      45.029   4.376  12.051  0.00  0.00    +0.000 A 
ATOM      8  C   UNL     1      45.622   5.435  12.746  0.00  0.00    +0.000 A 
BRANCH   6   9
ATOM      9  C   UNL     1      44.220   3.313   9.905  0.00  0.00    +0.000 C 
BRANCH   9  10
ATOM     10  N   UNL     1      45.062   2.148   9.672  0.00  0.00    +0.000 N 
ATOM     11  C   UNL     1      45.721   2.205   8.428  0.00  0.00    +0.000 A 
ATOM     12  C   UNL     1      46.566   1.158   8.072  0.00  0.00    +0.000 A 
ATOM     13  C   UNL     1      47.249   1.209   6.855  0.00  0.00    +0.000 A 
ATOM     14  C   UNL     1      47.073   2.305   6.023  0.00  0.00    +0.000 A 
ATOM     15  C   UNL     1      46.224   3.307   6.451  0.00  0.00    +0.000 A 
ATOM     16  N   UNL     1      45.558   3.279   7.626  0.00  0.00    +0.000 NA
ATOM     17  H   UNL     1      44.541   1.281   9.736  0.00  0.00    +0.000 HD
ENDBRANCH   9  10
ENDBRANCH   6   9
ENDBRANCH   2   3
BRANCH   2  18
ATOM     18  N   UNL     1      47.371   7.407  14.029  0.00  0.00    +0.000 N 
ATOM     19  C   UNL     1      48.684   7.034  14.156  0.00  0.00    +0.000 C 
ATOM     20  O   UNL     1      49.402   6.779  13.193  0.00  0.00    +0.000 OA
ATOM     21  H   UNL     1      46.925   7.808  14.842  0.00  0.00    +0.000 HD
BRANCH  19  22
ATOM     22  C   UNL     1      49.176   6.917  15.534  0.00  0.00    +0.000 A 
ATOM     23  C   UNL     1      50.001   7.896  16.070  0.00  0.00    +0.000 A 
ATOM     24  S   UNL     1      50.480   7.576  17.677  0.00  0.00    +0.000 S 
ATOM     25  C   UNL     1      49.562   6.142  17.725  0.00  0.00    +0.000 A 
ATOM     26  N   UNL     1      49.508   5.380  18.848  0.00  0.00    +0.000 NA
ATOM     27  C   UNL     1      48.754   4.334  18.751  0.00  0.00    +0.000 A 
ATOM     28  N   UNL     1      48.047   3.956  17.629  0.00  0.00    +0.000 N 
ATOM     29  C   UNL     1      47.252   2.748  17.615  0.00  0.00    +0.000 C 
ATOM     30  C   UNL     1      48.107   4.697  16.454  0.00  0.00    +0.000 A 
ATOM     31  O   UNL     1      47.541   4.345  15.423  0.00  0.00    +0.000 OA
ATOM     32  C   UNL     1      48.925   5.896  16.526  0.00  0.00    +0.000 A 
ENDBRANCH  19  22
ENDBRANCH   2  18
TORSDOF 5
ENDMDL
MODEL 2
REMARK VINA RESULT:    -8.377      2.241      2.931
REMARK INTER + INTRA:         -11.637
REMARK INTER:                 -10.520
REMARK INTRA:                  -1.117
REMARK UNBOUND:                -0.811
REMARK  Name = 
REMARK  7 active torsions:
REMARK  status: ('A' for Active; 'I' for Inactive)
REMARK    1  A    between atoms: C_1  and  C_2
REMARK    2  A    between atoms: C_2  and  N_3
REMARK    3  A    between atoms: C_2  and  C_17
REMARK    4  A    between atoms: C_4  and  C_6
REMARK    5  A    between atoms: N_12  and  C_13
REMARK    6  A    between atoms: C_20  and  C_21
REMARK    7  A    between atoms: C_21  and  N_22
REMARK                            x       y       z     vdW  Elec       q    Type
REMARK                         _______ _______ _______ _____ _____    ______ ____
ROOT
ATOM      1  C   UNL     1      47.862   8.579  13.936  0.00  0.00    +0.000 C 
ATOM      2  C   UNL     1      47.967   7.051  13.903  0.00  0.00    +0.000 C 
ENDROOT
BRANCH   2   3
ATOM      3  C   UNL     1      46.854   6.478  13.036  0.00  0.00    +0.000 A 
ATOM      4  C   UNL     1      46.492   5.133  13.207  0.00  0.00    +0.000 A 
ATOM      5  C   UNL     1      45.559   4.530  12.362  0.00  0.00    +0.000 A 
ATOM      6  C   UNL     1      44.969   5.253  11.320  0.00  0.00    +0.000 A 
ATOM      7  C   UNL     1      45.285   6.608  11.174  0.00  0.00    +0.000 A 
ATOM      8  C   UNL     1      46.227   7.211  12.014  0.00  0.00    +0.000 A 
BRANCH   6   9
ATOM      9  C   UNL     1      44.058   4.565  10.330  0.00  0.00    +0.000 C 
BRANCH   9  10
ATOM     10  N   UNL     1      44.463   3.180  10.131  0.00  0.00    +0.000 N 
ATOM     11  C   UNL     1      45.307   3.025   9.013  0.00  0.00    +0.000 A 
ATOM     12  C   UNL     1      45.777   1.752   8.704  0.00  0.00    +0.000 A 
ATOM     13  C   UNL     1      46.636   1.583   7.617  0.00  0.00    +0.000 A 
ATOM     14  C   UNL     1      47.006   2.688   6.864  0.00  0.00    +0.000 A 
ATOM     15  C   UNL     1      46.503   3.918   7.241  0.00  0.00    +0.000 A 
ATOM     16  N   UNL     1      45.676   4.104   8.291  0.00  0.00    +0.000 NA
ATOM     17  H   UNL     1      43.667   2.558  10.039  0.00  0.00    +0.000 HD
ENDBRANCH   9  10
ENDBRANCH   6   9
ENDBRANCH   2   3
BRANCH   2  18
ATOM     18  N   UNL     1      47.934   6.509  15.247  0.00  0.00    +0.000 N 
ATOM     19  C   UNL     1      49.054   6.347  16.020  0.00  0.00    +0.000 C 
ATOM     20  O   UNL     1      50.194   6.475  15.580  0.00  0.00    +0.000 OA
ATOM     21  H   UNL     1      47.051   6.605  15.729  0.00  0.00    +0.000 HD
BRANCH  19  22
ATOM     22  C   UNL     1      48.808   5.966  17.417  0.00  0.00    +0.000 A 
ATOM     23  C   UNL     1      49.104   4.684  17.858  0.00  0.00    +0.000 A 
ATOM     24  S   UNL     1      48.733   4.430  19.504  0.00  0.00    +0.000 S 
ATOM     25  C   UNL     1      48.209   6.039  19.694  0.00  0.00    +0.000 A 
ATOM     26  N   UNL     1      47.780   6.501  20.897  0.00  0.00    +0.000 NA
ATOM     27  C   UNL     1      47.436   7.748  20.902  0.00  0.00    +0.000 A 
ATOM     28  N   UNL     1      47.464   8.592  19.812  0.00  0.00    +0.000 N 
ATOM     29  C   UNL     1      47.031   9.968  19.916  0.00  0.00    +0.000 C 
ATOM     30  C   UNL     1      47.868   8.141  18.560  0.00  0.00    +0.000 A 
ATOM     31  O   UNL     1      47.839   8.855  17.561  0.00  0.00    +0.000 OA
ATOM     32  C   UNL     1      48.287   6.751  18.514  0.00  0.00    +0.000 A 
ENDBRANCH  19  22
ENDBRANCH   2  18
TORSDOF 5
ENDMDL
MODEL 3
REMARK VINA RESULT:    -8.055      2.367      3.535
REMARK INTER + INTRA:         -11.220
REMARK INTER:                 -10.012
REMARK INTRA:                  -1.208
REMARK UNBOUND:                -0.811
REMARK  Name = 
REMARK  7 active torsions:
REMARK  status: ('A' for Active; 'I' for Inactive)
REMARK    1  A    between atoms: C_1  and  C_2
REMARK    2  A    between atoms: C_2  and  N_3
REMARK    3  A    between atoms: C_2  and  C_17
REMARK    4  A    between atoms: C_4  and  C_6
REMARK    5  A    between atoms: N_12  and  C_13
REMARK    6  A    between atoms: C_20  and  C_21
REMARK    7  A    between atoms: C_21  and  N_22
REMARK                            x       y       z     vdW  Elec       q    Type
REMARK                         _______ _______ _______ _____ _____    ______ ____
ROOT
ATOM      1  C   UNL     1      47.152   4.411  15.125  0.00  0.00    +0.000 C 
ATOM      2  C   UNL     1      46.851   5.600  14.207  0.00  0.00    +0.000 C 
ENDROOT
BRANCH   2   3
ATOM      3  C   UNL     1      46.069   5.126  12.991  0.00  0.00    +0.000 A 
ATOM      4  C   UNL     1      45.540   3.825  12.995  0.00  0.00    +0.000 A 
ATOM      5  C   UNL     1      44.913   3.304  11.863  0.00  0.00    +0.000 A 
ATOM      6  C   UNL     1      44.805   4.064  10.694  0.00  0.00    +0.000 A 
ATOM      7  C   UNL     1      45.282   5.379  10.696  0.00  0.00    +0.000 A 
ATOM      8  C   UNL     1      45.919   5.900  11.827  0.00  0.00    +0.000 A 
BRANCH   6   9
ATOM      9  C   UNL     1      44.242   3.452   9.432  0.00  0.00    +0.000 C 
BRANCH   9  10
ATOM     10  N   UNL     1      44.908   3.990   8.254  0.00  0.00    +0.000 N 
ATOM     11  C   UNL     1      45.831   3.082   7.700  0.00  0.00    +0.000 A 
ATOM     12  C   UNL     1      46.541   3.461   6.564  0.00  0.00    +0.000 A 
ATOM     13  C   UNL     1      47.440   2.564   5.985  0.00  0.00    +0.000 A 
ATOM     14  C   UNL     1      47.609   1.309   6.551  0.00  0.00    +0.000 A 
ATOM     15  C   UNL     1      46.861   1.006   7.673  0.00  0.00    +0.000 A 
ATOM     16  N   UNL     1      45.983   1.856   8.246  0.00  0.00    +0.000 NA
ATOM     17  H   UNL     1      45.377   4.869   8.449  0.00  0.00    +0.000 HD
ENDBRANCH   9  10
ENDBRANCH   6   9
ENDBRANCH   2   3
BRANCH   2  18
ATOM     18  N   UNL     1      48.078   6.274  13.827  0.00  0.00    +0.000 N 
ATOM     19  C   UNL     1      48.229   7.636  13.862  0.00  0.00    +0.000 C 
ATOM     20  O   UNL     1      47.291   8.408  14.041  0.00  0.00    +0.000 OA
ATOM     21  H   UNL     1      48.916   5.714  13.898  0.00  0.00    +0.000 HD
BRANCH  19  22
ATOM     22  C   UNL     1      49.594   8.124  13.628  0.00  0.00    +0.000 A 
ATOM     23  C   UNL     1      49.856   9.004  12.588  0.00  0.00    +0.000 A 
ATOM     24  S   UNL     1      51.501   9.445  12.469  0.00  0.00    +0.000 S 
ATOM     25  C   UNL     1      51.908   8.512  13.834  0.00  0.00    +0.000 A 
ATOM     26  N   UNL     1      53.183   8.472  14.302  0.00  0.00    +0.000 NA
ATOM     27  C   UNL     1      53.345   7.744  15.359  0.00  0.00    +0.000 A 
ATOM     28  N   UNL     1      52.353   7.031  16.000  0.00  0.00    +0.000 N 
ATOM     29  C   UNL     1      52.644   6.222  17.164  0.00  0.00    +0.000 C 
ATOM     30  C   UNL     1      51.046   7.026  15.527  0.00  0.00    +0.000 A 
ATOM     31  O   UNL     1      50.161   6.347  16.041  0.00  0.00    +0.000 OA
ATOM     32  C   UNL     1      50.815   7.851  14.354  0.00  0.00    +0.000 A 
ENDBRANCH  19  22
ENDBRANCH   2  18
TORSDOF 5
ENDMDL
MODEL 4
REMARK VINA RESULT:    -7.782      2.288      4.169
REMARK INTER + INTRA:         -10.868
REMARK INTER:                  -9.857
REMARK INTRA:                  -1.011
REMARK UNBOUND:                -0.811
REMARK  Name = 
REMARK  7 active torsions:
REMARK  status: ('A' for Active; 'I' for Inactive)
REMARK    1  A    between atoms: C_1  and  C_2
REMARK    2  A    between atoms: C_2  and  N_3
REMARK    3  A    between atoms: C_2  and  C_17
REMARK    4  A    between atoms: C_4  and  C_6
REMARK    5  A    between atoms: N_12  and  C_13
REMARK    6  A    between atoms: C_20  and  C_21
REMARK    7  A    between atoms: C_21  and  N_22
REMARK                            x       y       z     vdW  Elec       q    Type
REMARK                         _______ _______ _______ _____ _____    ______ ____
ROOT
ATOM      1  C   UNL     1      47.430   3.951  15.560  0.00  0.00    +0.000 C 
ATOM      2  C   UNL     1      47.132   5.221  14.755  0.00  0.00    +0.000 C 
ENDROOT
BRANCH   2   3
ATOM      3  C   UNL     1      46.487   4.847  13.428  0.00  0.00    +0.000 A 
ATOM      4  C   UNL     1      46.351   5.838  12.443  0.00  0.00    +0.000 A 
ATOM      5  C   UNL     1      45.667   5.577  11.254  0.00  0.00    +0.000 A 
ATOM      6  C   UNL     1      45.093   4.322  11.023  0.00  0.00    +0.000 A 
ATOM      7  C   UNL     1      45.267   3.313  11.976  0.00  0.00    +0.000 A 
ATOM      8  C   UNL     1      45.945   3.576  13.171  0.00  0.00    +0.000 A 
BRANCH   6   9
ATOM      9  C   UNL     1      44.245   4.083   9.796  0.00  0.00    +0.000 C 
BRANCH   9  10
ATOM     10  N   UNL     1      44.951   4.495   8.591  0.00  0.00    +0.000 N 
ATOM     11  C   UNL     1      45.706   3.447   8.028  0.00  0.00    +0.000 A 
ATOM     12  C   UNL     1      46.432   3.696   6.867  0.00  0.00    +0.000 A 
ATOM     13  C   UNL     1      47.164   2.663   6.280  0.00  0.00    +0.000 A 
ATOM     14  C   UNL     1      47.156   1.405   6.866  0.00  0.00    +0.000 A 
ATOM     15  C   UNL     1      46.404   1.237   8.013  0.00  0.00    +0.000 A 
ATOM     16  N   UNL     1      45.684   2.220   8.593  0.00  0.00    +0.000 NA
ATOM     17  H   UNL     1      45.554   5.293   8.755  0.00  0.00    +0.000 HD
ENDBRANCH   9  10
ENDBRANCH   6   9
ENDBRANCH   2   3
BRANCH   2  18
ATOM     18  N   UNL     1      48.339   5.999  14.566  0.00  0.00    +0.000 N 
ATOM     19  C   UNL     1      48.946   6.704  15.573  0.00  0.00    +0.000 C 
ATOM     20  O   UNL     1      48.424   6.883  16.670  0.00  0.00    +0.000 OA
ATOM     21  H   UNL     1      48.919   5.713  13.789  0.00  0.00    +0.000 HD
BRANCH  19  22
ATOM     22  C   UNL     1      50.259   7.273  15.243  0.00  0.00    +0.000 A 
ATOM     23  C   UNL     1      51.377   6.939  15.995  0.00  0.00    +0.000 A 
ATOM     24  S   UNL     1      52.804   7.712  15.467  0.00  0.00    +0.000 S 
ATOM     25  C   UNL     1      51.983   8.481  14.188  0.00  0.00    +0.000 A 
ATOM     26  N   UNL     1      52.642   9.284  13.313  0.00  0.00    +0.000 NA
ATOM     27  C   UNL     1      51.901   9.782  12.378  0.00  0.00    +0.000 A 
ATOM     28  N   UNL     1      50.546   9.568  12.229  0.00  0.00    +0.000 N 
ATOM     29  C   UNL     1      49.800  10.196  11.161  0.00  0.00    +0.000 C 
ATOM     30  C   UNL     1      49.837   8.777  13.127  0.00  0.00    +0.000 A 
ATOM     31  O   UNL     1      48.621   8.625  13.054  0.00  0.00    +0.000 OA
ATOM     32  C   UNL     1      50.638   8.177  14.181  0.00  0.00    +0.000 A 
ENDBRANCH  19  22
ENDBRANCH   2  18
TORSDOF 5
ENDMDL
MODEL 5
REMARK VINA RESULT:    -7.193      3.293      4.585
REMARK INTER + INTRA:         -10.107
REMARK INTER:                  -9.096
REMARK INTRA:                  -1.011
REMARK UNBOUND:                -0.811
REMARK  Name = 
REMARK  7 active torsions:
REMARK  status: ('A' for Active; 'I' for Inactive)
REMARK    1  A    between atoms: C_1  and  C_2
REMARK    2  A    between atoms: C_2  and  N_3
REMARK    3  A    between atoms: C_2  and  C_17
REMARK    4  A    between atoms: C_4  and  C_6
REMARK    5  A    between atoms: N_12  and  C_13
REMARK    6  A    between atoms: C_20  and  C_21
REMARK    7  A    between atoms: C_21  and  N_22
REMARK                            x       y       z     vdW  Elec       q    Type
REMARK                         _______ _______ _______ _____ _____    ______ ____
ROOT
ATOM      1  C   UNL     1      48.220   6.346  14.884  0.00  0.00    +0.000 C 
ATOM      2  C   UNL     1      47.684   7.105  13.665  0.00  0.00    +0.000 C 
ENDROOT
BRANCH   2   3
ATOM      3  C   UNL     1      46.885   6.157  12.782  0.00  0.00    +0.000 A 
ATOM      4  C   UNL     1      46.501   6.591  11.503  0.00  0.00    +0.000 A 
ATOM      5  C   UNL     1      45.674   5.805  10.699  0.00  0.00    +0.000 A 
ATOM      6  C   UNL     1      45.202   4.570  11.155  0.00  0.00    +0.000 A 
ATOM      7  C   UNL     1      45.621   4.106  12.406  0.00  0.00    +0.000 A 
ATOM      8  C   UNL     1      46.442   4.896  13.216  0.00  0.00    +0.000 A 
BRANCH   6   9
ATOM      9  C   UNL     1      44.205   3.782  10.337  0.00  0.00    +0.000 C 
BRANCH   9  10
ATOM     10  N   UNL     1      44.731   2.465  10.009  0.00  0.00    +0.000 N 
ATOM     11  C   UNL     1      45.453   2.463   8.799  0.00  0.00    +0.000 A 
ATOM     12  C   UNL     1      46.019   1.269   8.362  0.00  0.00    +0.000 A 
ATOM     13  C   UNL     1      46.761   1.253   7.179  0.00  0.00    +0.000 A 
ATOM     14  C   UNL     1      46.922   2.430   6.462  0.00  0.00    +0.000 A 
ATOM     15  C   UNL     1      46.335   3.574   6.967  0.00  0.00    +0.000 A 
ATOM     16  N   UNL     1      45.619   3.612   8.110  0.00  0.00    +0.000 NA
ATOM     17  H   UNL     1      44.001   1.762   9.965  0.00  0.00    +0.000 HD
ENDBRANCH   9  10
ENDBRANCH   6   9
ENDBRANCH   2   3
BRANCH   2  18
ATOM     18  N   UNL     1      48.769   7.732  12.938  0.00  0.00    +0.000 N 
ATOM     19  C   UNL     1      48.978   9.086  12.919  0.00  0.00    +0.000 C 
ATOM     20  O   UNL     1      48.166   9.893  13.363  0.00  0.00    +0.000 OA
ATOM     21  H   UNL     1      49.569   7.139  12.761  0.00  0.00    +0.000 HD
BRANCH  19  22
ATOM     22  C   UNL     1      50.232   9.523  12.291  0.00  0.00    +0.000 A 
ATOM     23  C   UNL     1      50.207  10.336  11.167  0.00  0.00    +0.000 A 
ATOM     24  S   UNL     1      51.761  10.723  10.575  0.00  0.00    +0.000 S 
ATOM     25  C   UNL     1      52.517   9.855  11.830  0.00  0.00    +0.000 A 
ATOM     26  N   UNL     1      53.871   9.806  11.933  0.00  0.00    +0.000 NA
ATOM     27  C   UNL     1      54.309   9.133  12.947  0.00  0.00    +0.000 A 
ATOM     28  N   UNL     1      53.524   8.485  13.878  0.00  0.00    +0.000 N 
ATOM     29  C   UNL     1      54.114   7.734  14.964  0.00  0.00    +0.000 C 
ATOM     30  C   UNL     1      52.137   8.490  13.783  0.00  0.00    +0.000 A 
ATOM     31  O   UNL     1      51.420   7.866  14.560  0.00  0.00    +0.000 OA
ATOM     32  C   UNL     1      51.602   9.256  12.670  0.00  0.00    +0.000 A 
ENDBRANCH  19  22
ENDBRANCH   2  18
TORSDOF 5
ENDMDL
MODEL 6
REMARK VINA RESULT:    -7.115      1.713      2.850
REMARK INTER + INTRA:         -10.005
REMARK INTER:                  -8.749
REMARK INTRA:                  -1.256
REMARK UNBOUND:                -0.811
REMARK  Name = 
REMARK  7 active torsions:
REMARK  status: ('A' for Active; 'I' for Inactive)
REMARK    1  A    between atoms: C_1  and  C_2
REMARK    2  A    between atoms: C_2  and  N_3
REMARK    3  A    between atoms: C_2  and  C_17
REMARK    4  A    between atoms: C_4  and  C_6
REMARK    5  A    between atoms: N_12  and  C_13
REMARK    6  A    between atoms: C_20  and  C_21
REMARK    7  A    between atoms: C_21  and  N_22
REMARK                            x       y       z     vdW  Elec       q    Type
REMARK                         _______ _______ _______ _____ _____    ______ ____
ROOT
ATOM      1  C   UNL     1      48.638  10.427  14.817  0.00  0.00    +0.000 C 
ATOM      2  C   UNL     1      49.070   9.014  14.409  0.00  0.00    +0.000 C 
ENDROOT
BRANCH   2   3
ATOM      3  C   UNL     1      48.042   8.418  13.458  0.00  0.00    +0.000 A 
ATOM      4  C   UNL     1      46.704   8.825  13.571  0.00  0.00    +0.000 A 
ATOM      5  C   UNL     1      45.706   8.226  12.800  0.00  0.00    +0.000 A 
ATOM      6  C   UNL     1      46.018   7.199  11.903  0.00  0.00    +0.000 A 
ATOM      7  C   UNL     1      47.356   6.822  11.746  0.00  0.00    +0.000 A 
ATOM      8  C   UNL     1      48.355   7.415  12.524  0.00  0.00    +0.000 A 
BRANCH   6   9
ATOM      9  C   UNL     1      44.921   6.466  11.166  0.00  0.00    +0.000 C 
BRANCH   9  10
ATOM     10  N   UNL     1      45.379   6.035   9.853  0.00  0.00    +0.000 N 
ATOM     11  C   UNL     1      45.133   4.666   9.624  0.00  0.00    +0.000 A 
ATOM     12  C   UNL     1      45.516   4.115   8.404  0.00  0.00    +0.000 A 
ATOM     13  C   UNL     1      45.256   2.768   8.148  0.00  0.00    +0.000 A 
ATOM     14  C   UNL     1      44.619   2.002   9.115  0.00  0.00    +0.000 A 
ATOM     15  C   UNL     1      44.264   2.626  10.296  0.00  0.00    +0.000 A 
ATOM     16  N   UNL     1      44.501   3.928  10.561  0.00  0.00    +0.000 NA
ATOM     17  H   UNL     1      46.365   6.227   9.710  0.00  0.00    +0.000 HD
ENDBRANCH   9  10
ENDBRANCH   6   9
ENDBRANCH   2   3
BRANCH   2  18
ATOM     18  N   UNL     1      49.264   8.184  15.581  0.00  0.00    +0.000 N 
ATOM     19  C   UNL     1      50.463   7.600  15.898  0.00  0.00    +0.000 C 
ATOM     20  O   UNL     1      51.420   7.580  15.129  0.00  0.00    +0.000 OA
ATOM     21  H   UNL     1      48.617   8.349  16.339  0.00  0.00    +0.000 HD
BRANCH  19  22
ATOM     22  C   UNL     1      50.522   6.955  17.216  0.00  0.00    +0.000 A 
ATOM     23  C   UNL     1      51.373   7.442  18.198  0.00  0.00    +0.000 A 
ATOM     24  S   UNL     1      51.311   6.552  19.653  0.00  0.00    +0.000 S 
ATOM     25  C   UNL     1      50.109   5.515  19.034  0.00  0.00    +0.000 A 
ATOM     26  N   UNL     1      49.578   4.523  19.794  0.00  0.00    +0.000 NA
ATOM     27  C   UNL     1      48.658   3.829  19.206  0.00  0.00    +0.000 A 
ATOM     28  N   UNL     1      48.215   4.018  17.914  0.00  0.00    +0.000 N 
ATOM     29  C   UNL     1      47.197   3.167  17.338  0.00  0.00    +0.000 C 
ATOM     30  C   UNL     1      48.761   5.004  17.100  0.00  0.00    +0.000 A 
ATOM     31  O   UNL     1      48.430   5.148  15.926  0.00  0.00    +0.000 OA
ATOM     32  C   UNL     1      49.782   5.824  17.730  0.00  0.00    +0.000 A 
ENDBRANCH  19  22
ENDBRANCH   2  18
TORSDOF 5
ENDMDL
MODEL 7
REMARK VINA RESULT:    -7.097      2.857      9.201
REMARK INTER + INTRA:          -9.982
REMARK INTER:                  -8.975
REMARK INTRA:                  -1.007
REMARK UNBOUND:                -0.811
REMARK  Name = 
REMARK  7 active torsions:
REMARK  status: ('A' for Active; 'I' for Inactive)
REMARK    1  A    between atoms: C_1  and  C_2
REMARK    2  A    between atoms: C_2  and  N_3
REMARK    3  A    between atoms: C_2  and  C_17
REMARK    4  A    between atoms: C_4  and  C_6
REMARK    5  A    between atoms: N_12  and  C_13
REMARK    6  A    between atoms: C_20  and  C_21
REMARK    7  A    between atoms: C_21  and  N_22
REMARK                            x       y       z     vdW  Elec       q    Type
REMARK                         _______ _______ _______ _____ _____    ______ ____
ROOT
ATOM      1  C   UNL     1      48.876   7.754  11.155  0.00  0.00    +0.000 C 
ATOM      2  C   UNL     1      47.757   7.869  12.195  0.00  0.00    +0.000 C 
ENDROOT
BRANCH   2   3
ATOM      3  C   UNL     1      48.360   8.065  13.579  0.00  0.00    +0.000 A 
ATOM      4  C   UNL     1      49.530   7.365  13.910  0.00  0.00    +0.000 A 
ATOM      5  C   UNL     1      50.058   7.423  15.201  0.00  0.00    +0.000 A 
ATOM      6  C   UNL     1      49.427   8.176  16.196  0.00  0.00    +0.000 A 
ATOM      7  C   UNL     1      48.290   8.919  15.863  0.00  0.00    +0.000 A 
ATOM      8  C   UNL     1      47.754   8.854  14.573  0.00  0.00    +0.000 A 
BRANCH   6   9
ATOM      9  C   UNL     1      49.928   8.134  17.621  0.00  0.00    +0.000 C 
BRANCH   9  10
ATOM     10  N   UNL     1      48.815   8.129  18.560  0.00  0.00    +0.000 N 
ATOM     11  C   UNL     1      48.766   6.948  19.327  0.00  0.00    +0.000 A 
ATOM     12  C   UNL     1      47.753   6.806  20.271  0.00  0.00    +0.000 A 
ATOM     13  C   UNL     1      47.705   5.655  21.058  0.00  0.00    +0.000 A 
ATOM     14  C   UNL     1      48.668   4.671  20.885  0.00  0.00    +0.000 A 
ATOM     15  C   UNL     1      49.644   4.890  19.933  0.00  0.00    +0.000 A 
ATOM     16  N   UNL     1      49.713   5.999  19.165  0.00  0.00    +0.000 NA
ATOM     17  H   UNL     1      47.923   8.266  18.097  0.00  0.00    +0.000 HD
ENDBRANCH   9  10
ENDBRANCH   6   9
ENDBRANCH   2   3
BRANCH   2  18
ATOM     18  N   UNL     1      46.895   6.705  12.145  0.00  0.00    +0.000 N 
ATOM     19  C   UNL     1      45.592   6.752  11.723  0.00  0.00    +0.000 C 
ATOM     20  O   UNL     1      44.992   7.805  11.524  0.00  0.00    +0.000 OA
ATOM     21  H   UNL     1      47.372   5.817  12.070  0.00  0.00    +0.000 HD
BRANCH  19  22
ATOM     22  C   UNL     1      44.934   5.449  11.557  0.00  0.00    +0.000 A 
ATOM     23  C   UNL     1      44.116   4.944  12.558  0.00  0.00    +0.000 A 
ATOM     24  S   UNL     1      43.457   3.414  12.188  0.00  0.00    +0.000 S 
ATOM     25  C   UNL     1      44.206   3.398  10.658  0.00  0.00    +0.000 A 
ATOM     26  N   UNL     1      44.024   2.362   9.798  0.00  0.00    +0.000 NA
ATOM     27  C   UNL     1      44.631   2.493   8.663  0.00  0.00    +0.000 A 
ATOM     28  N   UNL     1      45.422   3.562   8.296  0.00  0.00    +0.000 N 
ATOM     29  C   UNL     1      46.081   3.600   7.009  0.00  0.00    +0.000 C 
ATOM     30  C   UNL     1      45.653   4.622   9.166  0.00  0.00    +0.000 A 
ATOM     31  O   UNL     1      46.406   5.551   8.887  0.00  0.00    +0.000 OA
ATOM     32  C   UNL     1      44.969   4.526  10.444  0.00  0.00    +0.000 A 
ENDBRANCH  19  22
ENDBRANCH   2  18
TORSDOF 5
ENDMDL
MODEL 8
REMARK VINA RESULT:    -6.667      3.162      8.956
REMARK INTER + INTRA:          -9.427
REMARK INTER:                  -8.455
REMARK INTRA:                  -0.972
REMARK UNBOUND:                -0.811
REMARK  Name = 
REMARK  7 active torsions:
REMARK  status: ('A' for Active; 'I' for Inactive)
REMARK    1  A    between atoms: C_1  and  C_2
REMARK    2  A    between atoms: C_2  and  N_3
REMARK    3  A    between atoms: C_2  and  C_17
REMARK    4  A    between atoms: C_4  and  C_6
REMARK    5  A    between atoms: N_12  and  C_13
REMARK    6  A    between atoms: C_20  and  C_21
REMARK    7  A    between atoms: C_21  and  N_22
REMARK                            x       y       z     vdW  Elec       q    Type
REMARK                         _______ _______ _______ _____ _____    ______ ____
ROOT
ATOM      1  C   UNL     1      48.379   7.753  11.382  0.00  0.00    +0.000 C 
ATOM      2  C   UNL     1      47.567   7.455  12.646  0.00  0.00    +0.000 C 
ENDROOT
BRANCH   2   3
ATOM      3  C   UNL     1      48.507   7.254  13.826  0.00  0.00    +0.000 A 
ATOM      4  C   UNL     1      48.133   6.359  14.841  0.00  0.00    +0.000 A 
ATOM      5  C   UNL     1      48.905   6.224  15.996  0.00  0.00    +0.000 A 
ATOM      6  C   UNL     1      50.065   6.985  16.171  0.00  0.00    +0.000 A 
ATOM      7  C   UNL     1      50.475   7.840  15.143  0.00  0.00    +0.000 A 
ATOM      8  C   UNL     1      49.697   7.984  13.989  0.00  0.00    +0.000 A 
BRANCH   6   9
ATOM      9  C   UNL     1      50.827   6.931  17.476  0.00  0.00    +0.000 C 
BRANCH   9  10
ATOM     10  N   UNL     1      50.846   5.576  18.008  0.00  0.00    +0.000 N 
ATOM     11  C   UNL     1      52.091   4.945  17.821  0.00  0.00    +0.000 A 
ATOM     12  C   UNL     1      52.256   3.643  18.286  0.00  0.00    +0.000 A 
ATOM     13  C   UNL     1      53.491   3.011  18.133  0.00  0.00    +0.000 A 
ATOM     14  C   UNL     1      54.533   3.692  17.522  0.00  0.00    +0.000 A 
ATOM     15  C   UNL     1      54.292   4.984  17.095  0.00  0.00    +0.000 A 
ATOM     16  N   UNL     1      53.107   5.616  17.237  0.00  0.00    +0.000 NA
ATOM     17  H   UNL     1      50.113   4.998  17.609  0.00  0.00    +0.000 HD
ENDBRANCH   9  10
ENDBRANCH   6   9
ENDBRANCH   2   3
BRANCH   2  18
ATOM     18  N   UNL     1      46.709   6.304  12.441  0.00  0.00    +0.000 N 
ATOM     19  C   UNL     1      45.519   6.365  11.763  0.00  0.00    +0.000 C 
ATOM     20  O   UNL     1      44.992   7.424  11.433  0.00  0.00    +0.000 OA
ATOM     21  H   UNL     1      47.175   5.408  12.476  0.00  0.00    +0.000 HD
BRANCH  19  22
ATOM     22  C   UNL     1      44.883   5.071  11.488  0.00  0.00    +0.000 A 
ATOM     23  C   UNL     1      44.061   4.477  12.435  0.00  0.00    +0.000 A 
ATOM     24  S   UNL     1      43.429   2.972  11.938  0.00  0.00    +0.000 S 
ATOM     25  C   UNL     1      44.195   3.086  10.421  0.00  0.00    +0.000 A 
ATOM     26  N   UNL     1      44.038   2.119   9.480  0.00  0.00    +0.000 NA
ATOM     27  C   UNL     1      44.657   2.347   8.367  0.00  0.00    +0.000 A 
ATOM     28  N   UNL     1      45.436   3.452   8.095  0.00  0.00    +0.000 N 
ATOM     29  C   UNL     1      46.109   3.601   6.824  0.00  0.00    +0.000 C 
ATOM     30  C   UNL     1      45.641   4.444   9.048  0.00  0.00    +0.000 A 
ATOM     31  O   UNL     1      46.383   5.402   8.853  0.00  0.00    +0.000 OA
ATOM     32  C   UNL     1      44.944   4.239  10.306  0.00  0.00    +0.000 A 
ENDBRANCH  19  22
ENDBRANCH   2  18
TORSDOF 5
ENDMDL
MODEL 9
REMARK VINA RESULT:    -6.529      2.306      3.219
REMARK INTER + INTRA:          -9.249
REMARK INTER:                  -8.151
REMARK INTRA:                  -1.098
REMARK UNBOUND:                -0.811
REMARK  Name = 
REMARK  7 active torsions:
REMARK  status: ('A' for Active; 'I' for Inactive)
REMARK    1  A    between atoms: C_1  and  C_2
REMARK    2  A    between atoms: C_2  and  N_3
REMARK    3  A    between atoms: C_2  and  C_17
REMARK    4  A    between atoms: C_4  and  C_6
REMARK    5  A    between atoms: N_12  and  C_13
REMARK    6  A    between atoms: C_20  and  C_21
REMARK    7  A    between atoms: C_21  and  N_22
REMARK                            x       y       z     vdW  Elec       q    Type
REMARK                         _______ _______ _______ _____ _____    ______ ____
ROOT
ATOM      1  C   UNL     1      48.355   9.529  15.430  0.00  0.00    +0.000 C 
ATOM      2  C   UNL     1      48.896   8.267  14.749  0.00  0.00    +0.000 C 
ENDROOT
BRANCH   2   3
ATOM      3  C   UNL     1      47.872   7.741  13.753  0.00  0.00    +0.000 A 
ATOM      4  C   UNL     1      47.017   8.656  13.120  0.00  0.00    +0.000 A 
ATOM      5  C   UNL     1      45.988   8.215  12.286  0.00  0.00    +0.000 A 
ATOM      6  C   UNL     1      45.782   6.849  12.070  0.00  0.00    +0.000 A 
ATOM      7  C   UNL     1      46.661   5.931  12.655  0.00  0.00    +0.000 A 
ATOM      8  C   UNL     1      47.686   6.371  13.498  0.00  0.00    +0.000 A 
BRANCH   6   9
ATOM      9  C   UNL     1      44.591   6.371  11.272  0.00  0.00    +0.000 C 
BRANCH   9  10
ATOM     10  N   UNL     1      44.407   4.935  11.427  0.00  0.00    +0.000 N 
ATOM     11  C   UNL     1      44.796   4.219  10.277  0.00  0.00    +0.000 A 
ATOM     12  C   UNL     1      44.679   2.831  10.284  0.00  0.00    +0.000 A 
ATOM     13  C   UNL     1      45.085   2.103   9.165  0.00  0.00    +0.000 A 
ATOM     14  C   UNL     1      45.598   2.775   8.065  0.00  0.00    +0.000 A 
ATOM     15  C   UNL     1      45.689   4.151   8.140  0.00  0.00    +0.000 A 
ATOM     16  N   UNL     1      45.308   4.875   9.214  0.00  0.00    +0.000 NA
ATOM     17  H   UNL     1      43.450   4.695  11.664  0.00  0.00    +0.000 HD
ENDBRANCH   9  10
ENDBRANCH   6   9
ENDBRANCH   2   3
BRANCH   2  18
ATOM     18  N   UNL     1      49.248   7.266  15.737  0.00  0.00    +0.000 N 
ATOM     19  C   UNL     1      50.522   7.093  16.211  0.00  0.00    +0.000 C 
ATOM     20  O   UNL     1      51.501   7.643  15.712  0.00  0.00    +0.000 OA
ATOM     21  H   UNL     1      48.490   6.962  16.332  0.00  0.00    +0.000 HD
BRANCH  19  22
ATOM     22  C   UNL     1      50.654   6.167  17.343  0.00  0.00    +0.000 A 
ATOM     23  C   UNL     1      51.564   5.120  17.291  0.00  0.00    +0.000 A 
ATOM     24  S   UNL     1      51.559   4.146  18.692  0.00  0.00    +0.000 S 
ATOM     25  C   UNL     1      50.376   5.120  19.434  0.00  0.00    +0.000 A 
ATOM     26  N   UNL     1      49.933   4.853  20.691  0.00  0.00    +0.000 NA
ATOM     27  C   UNL     1      49.052   5.688  21.139  0.00  0.00    +0.000 A 
ATOM     28  N   UNL     1      48.552   6.772  20.449  0.00  0.00    +0.000 N 
ATOM     29  C   UNL     1      47.545   7.632  21.032  0.00  0.00    +0.000 C 
ATOM     30  C   UNL     1      48.961   7.054  19.151  0.00  0.00    +0.000 A 
ATOM     31  O   UNL     1      48.481   7.973  18.493  0.00  0.00    +0.000 OA
ATOM     32  C   UNL     1      49.969   6.154  18.616  0.00  0.00    +0.000 A 
ENDBRANCH  19  22
ENDBRANCH   2  18
TORSDOF 5
ENDMDL
