MODEL 1
REMARK VINA RESULT:    -8.471      0.000      0.000
REMARK INTER + INTRA:         -15.638
REMARK INTER:                 -13.918
REMARK INTRA:                  -1.720
REMARK UNBOUND:                -1.720
REMARK  Name = 
REMARK  12 active torsions:
REMARK  status: ('A' for Active; 'I' for Inactive)
REMARK    1  A    between atoms: N_1  and  CA_2
REMARK    2  A    between atoms: CA_2  and  C_3
REMARK    3  A    between atoms: CA_2  and  C_5
REMARK    4  A    between atoms: C_3  and  O_4
REMARK    5  A    between atoms: C_5  and  C_6
REMARK    6  A    between atoms: C_6  and  N_7
REMARK    7  A    between atoms: C_6  and  C_20
REMARK    8  A    between atoms: C_8  and  C_10
REMARK    9  A    between atoms: C_23  and  C_24
REMARK   10  A    between atoms: C_24  and  O_25
REMARK   11  A    between atoms: O_25  and  C_26
REMARK   12  A    between atoms: C_26  and  C_27
REMARK                            x       y       z     vdW  Elec       q    Type
REMARK                         _______ _______ _______ _____ _____    ______ ____
ROOT
ATOM      1  C   UNL     1      46.591   7.633  12.847  0.00  0.00    +0.000 C 
ENDROOT
BRANCH   1   2
ATOM      2  C   UNL     1      45.754   6.471  12.311  0.00  0.00    +0.000 A 
ATOM      3  C   UNL     1      45.180   5.538  13.189  0.00  0.00    +0.000 A 
ATOM      4  C   UNL     1      44.518   4.402  12.700  0.00  0.00    +0.000 A 
ATOM      5  C   UNL     1      44.398   4.176  11.323  0.00  0.00    +0.000 A 
ATOM      6  C   UNL     1      44.923   5.132  10.446  0.00  0.00    +0.000 A 
ATOM      7  C   UNL     1      45.587   6.266  10.932  0.00  0.00    +0.000 A 
BRANCH   5   8
ATOM      8  C   UNL     1      43.773   2.904  10.794  0.00  0.00    +0.000 C 
BRANCH   8   9
ATOM      9  O   UNL     1      44.032   2.771   9.398  0.00  0.00    +0.000 OA
BRANCH   9  10
ATOM     10  C   UNL     1      44.949   1.697   9.137  0.00  0.00    +0.000 C 
BRANCH  10  11
ATOM     11  C   UNL     1      45.870   2.069   8.014  0.00  0.00    +0.000 A 
ATOM     12  C   UNL     1      45.949   3.372   7.492  0.00  0.00    +0.000 A 
ATOM     13  C   UNL     1      46.837   3.670   6.461  0.00  0.00    +0.000 A 
ATOM     14  C   UNL     1      47.657   2.676   5.949  0.00  0.00    +0.000 A 
ATOM     15  C   UNL     1      47.591   1.395   6.491  0.00  0.00    +0.000 A 
ATOM     16  N   UNL     1      46.718   1.079   7.526  0.00  0.00    +0.000 N 
ATOM     17  O   UNL     1      46.723  -0.098   8.012  0.00  0.00    +0.000 OA
ENDBRANCH  10  11
ENDBRANCH   9  10
ENDBRANCH   8   9
ENDBRANCH   5   8
ENDBRANCH   1   2
BRANCH   1  18
ATOM     18  N   UNL     1      47.123   7.298  14.159  0.00  0.00    +0.000 N 
ATOM     19  C   UNL     1      48.305   6.619  14.345  0.00  0.00    +0.000 C 
ATOM     20  O   UNL     1      49.031   6.276  13.419  0.00  0.00    +0.000 OA
ATOM     21  H   UNL     1      46.473   7.360  14.933  0.00  0.00    +0.000 HD
BRANCH  19  22
ATOM     22  C   UNL     1      48.683   6.379  15.744  0.00  0.00    +0.000 A 
ATOM     23  C   UNL     1      49.352   7.355  16.470  0.00  0.00    +0.000 A 
ATOM     24  S   UNL     1      49.674   6.897  18.083  0.00  0.00    +0.000 S 
ATOM     25  C   UNL     1      48.990   5.357  17.843  0.00  0.00    +0.000 A 
ATOM     26  N   UNL     1      48.979   4.425  18.834  0.00  0.00    +0.000 NA
ATOM     27  C   UNL     1      48.467   3.288  18.491  0.00  0.00    +0.000 A 
ATOM     28  N   UNL     1      47.952   3.003  17.255  0.00  0.00    +0.000 N 
ATOM     29  C   UNL     1      47.878   3.933  16.248  0.00  0.00    +0.000 A 
ATOM     30  O   UNL     1      47.305   3.684  15.195  0.00  0.00    +0.000 OA
ATOM     31  C   UNL     1      48.485   5.211  16.563  0.00  0.00    +0.000 A 
ATOM     32  H   UNL     1      47.538   2.104  17.055  0.00  0.00    +0.000 HD
ENDBRANCH  19  22
ENDBRANCH   1  18
BRANCH   1  33
ATOM     33  C   UNL     1      45.776   8.948  12.914  0.00  0.00    +0.000 C 
BRANCH  33  34
ATOM     34  CA  UNL     1      46.330  10.093  12.060  0.00  0.00    +0.000 C 
BRANCH  34  35
ATOM     35  N   UNL     1      45.401  11.241  12.128  0.00  0.00    +0.000 NA
ATOM     36  H1  UNL     1      44.451  10.865  12.172  0.00  0.00    +0.000 HD
ATOM     37  H2  UNL     1      45.427  11.735  11.231  0.00  0.00    +0.000 HD
ENDBRANCH  34  35
BRANCH  34  38
ATOM     38  C   UNL     1      47.740  10.544  12.485  0.00  0.00    +0.000 C 
BRANCH  38  39
ATOM     39  O   UNL     1      47.913  10.322  13.886  0.00  0.00    +0.000 OA
ATOM     40  H   UNL     1      48.844  10.520  14.092  0.00  0.00    +0.000 HD
ENDBRANCH  38  39
ENDBRANCH  34  38
ENDBRANCH  33  34
ENDBRANCH   1  33
TORSDOF 12
ENDMDL
MODEL 2
REMARK VINA RESULT:    -8.248      1.723      2.063
REMARK INTER + INTRA:         -15.272
REMARK INTER:                 -12.856
REMARK INTRA:                  -2.416
REMARK UNBOUND:                -1.720
REMARK  Name = 
REMARK  12 active torsions:
REMARK  status: ('A' for Active; 'I' for Inactive)
REMARK    1  A    between atoms: N_1  and  CA_2
REMARK    2  A    between atoms: CA_2  and  C_3
REMARK    3  A    between atoms: CA_2  and  C_5
REMARK    4  A    between atoms: C_3  and  O_4
REMARK    5  A    between atoms: C_5  and  C_6
REMARK    6  A    between atoms: C_6  and  N_7
REMARK    7  A    between atoms: C_6  and  C_20
REMARK    8  A    between atoms: C_8  and  C_10
REMARK    9  A    between atoms: C_23  and  C_24
REMARK   10  A    between atoms: C_24  and  O_25
REMARK   11  A    between atoms: O_25  and  C_26
REMARK   12  A    between atoms: C_26  and  C_27
REMARK                            x       y       z     vdW  Elec       q    Type
REMARK                         _______ _______ _______ _____ _____    ______ ____
ROOT
ATOM      1  C   UNL     1      48.039   6.811  13.257  0.00  0.00    +0.000 C 
ENDROOT
BRANCH   1   2
ATOM      2  C   UNL     1      47.016   5.844  12.661  0.00  0.00    +0.000 A 
ATOM      3  C   UNL     1      46.299   6.185  11.504  0.00  0.00    +0.000 A 
ATOM      4  C   UNL     1      45.271   5.360  11.023  0.00  0.00    +0.000 A 
ATOM      5  C   UNL     1      44.943   4.166  11.678  0.00  0.00    +0.000 A 
ATOM      6  C   UNL     1      45.692   3.797  12.802  0.00  0.00    +0.000 A 
ATOM      7  C   UNL     1      46.717   4.622  13.284  0.00  0.00    +0.000 A 
BRANCH   5   8
ATOM      8  C   UNL     1      43.772   3.324  11.221  0.00  0.00    +0.000 C 
BRANCH   8   9
ATOM      9  O   UNL     1      43.815   3.145   9.807  0.00  0.00    +0.000 OA
BRANCH   9  10
ATOM     10  C   UNL     1      44.586   1.986   9.451  0.00  0.00    +0.000 C 
BRANCH  10  11
ATOM     11  C   UNL     1      45.575   2.337   8.380  0.00  0.00    +0.000 A 
ATOM     12  C   UNL     1      45.784   3.655   7.936  0.00  0.00    +0.000 A 
ATOM     13  C   UNL     1      46.730   3.930   6.952  0.00  0.00    +0.000 A 
ATOM     14  C   UNL     1      47.480   2.897   6.409  0.00  0.00    +0.000 A 
ATOM     15  C   UNL     1      47.284   1.598   6.874  0.00  0.00    +0.000 A 
ATOM     16  N   UNL     1      46.351   1.305   7.862  0.00  0.00    +0.000 N 
ATOM     17  O   UNL     1      46.238   0.107   8.279  0.00  0.00    +0.000 OA
ENDBRANCH  10  11
ENDBRANCH   9  10
ENDBRANCH   8   9
ENDBRANCH   5   8
ENDBRANCH   1   2
BRANCH   1  18
ATOM     18  N   UNL     1      47.933   6.814  14.708  0.00  0.00    +0.000 N 
ATOM     19  C   UNL     1      49.025   6.793  15.547  0.00  0.00    +0.000 C 
ATOM     20  O   UNL     1      50.180   6.813  15.139  0.00  0.00    +0.000 OA
ATOM     21  H   UNL     1      47.025   6.580  15.090  0.00  0.00    +0.000 HD
BRANCH  19  22
ATOM     22  C   UNL     1      48.719   6.808  16.983  0.00  0.00    +0.000 A 
ATOM     23  C   UNL     1      48.362   7.991  17.615  0.00  0.00    +0.000 A 
ATOM     24  S   UNL     1      48.017   7.795  19.275  0.00  0.00    +0.000 S 
ATOM     25  C   UNL     1      48.397   6.136  19.217  0.00  0.00    +0.000 A 
ATOM     26  N   UNL     1      48.352   5.360  20.333  0.00  0.00    +0.000 NA
ATOM     27  C   UNL     1      48.710   4.133  20.144  0.00  0.00    +0.000 A 
ATOM     28  N   UNL     1      49.093   3.607  18.939  0.00  0.00    +0.000 N 
ATOM     29  C   UNL     1      49.085   4.333  17.774  0.00  0.00    +0.000 A 
ATOM     30  O   UNL     1      49.319   3.804  16.694  0.00  0.00    +0.000 OA
ATOM     31  C   UNL     1      48.740   5.731  17.939  0.00  0.00    +0.000 A 
ATOM     32  H   UNL     1      49.334   2.630  18.847  0.00  0.00    +0.000 HD
ENDBRANCH  19  22
ENDBRANCH   1  18
BRANCH   1  33
ATOM     33  C   UNL     1      47.870   8.246  12.700  0.00  0.00    +0.000 C 
BRANCH  33  34
ATOM     34  CA  UNL     1      49.180   8.974  12.385  0.00  0.00    +0.000 C 
BRANCH  34  35
ATOM     35  N   UNL     1      49.710   9.577  13.626  0.00  0.00    +0.000 NA
ATOM     36  H1  UNL     1      50.622   9.152  13.809  0.00  0.00    +0.000 HD
ATOM     37  H2  UNL     1      49.133   9.266  14.413  0.00  0.00    +0.000 HD
ENDBRANCH  34  35
BRANCH  34  38
ATOM     38  C   UNL     1      50.250   8.060  11.758  0.00  0.00    +0.000 C 
BRANCH  38  39
ATOM     39  O   UNL     1      51.361   7.940  12.649  0.00  0.00    +0.000 OA
ATOM     40  H   UNL     1      52.001   7.340  12.225  0.00  0.00    +0.000 HD
ENDBRANCH  38  39
ENDBRANCH  34  38
ENDBRANCH  33  34
ENDBRANCH   1  33
TORSDOF 12
ENDMDL
MODEL 3
REMARK VINA RESULT:    -7.685      2.141      2.956
REMARK INTER + INTRA:         -14.347
REMARK INTER:                 -11.747
REMARK INTRA:                  -2.601
REMARK UNBOUND:                -1.720
REMARK  Name = 
REMARK  12 active torsions:
REMARK  status: ('A' for Active; 'I' for Inactive)
REMARK    1  A    between atoms: N_1  and  CA_2
REMARK    2  A    between atoms: CA_2  and  C_3
REMARK    3  A    between atoms: CA_2  and  C_5
REMARK    4  A    between atoms: C_3  and  O_4
REMARK    5  A    between atoms: C_5  and  C_6
REMARK    6  A    between atoms: C_6  and  N_7
REMARK    7  A    between atoms: C_6  and  C_20
REMARK    8  A    between atoms: C_8  and  C_10
REMARK    9  A    between atoms: C_23  and  C_24
REMARK   10  A    between atoms: C_24  and  O_25
REMARK   11  A    between atoms: O_25  and  C_26
REMARK   12  A    between atoms: C_26  and  C_27
REMARK                            x       y       z     vdW  Elec       q    Type
REMARK                         _______ _______ _______ _____ _____    ______ ____
ROOT
ATOM      1  C   UNL     1      47.844   7.333  13.513  0.00  0.00    +0.000 C 
ENDROOT
BRANCH   1   2
ATOM      2  C   UNL     1      46.756   6.455  12.894  0.00  0.00    +0.000 A 
ATOM      3  C   UNL     1      46.236   5.358  13.597  0.00  0.00    +0.000 A 
ATOM      4  C   UNL     1      45.331   4.476  12.989  0.00  0.00    +0.000 A 
ATOM      5  C   UNL     1      44.909   4.675  11.668  0.00  0.00    +0.000 A 
ATOM      6  C   UNL     1      45.386   5.799  10.982  0.00  0.00    +0.000 A 
ATOM      7  C   UNL     1      46.292   6.679  11.587  0.00  0.00    +0.000 A 
BRANCH   5   8
ATOM      8  C   UNL     1      44.012   3.673  10.977  0.00  0.00    +0.000 C 
BRANCH   8   9
ATOM      9  O   UNL     1      44.783   2.579  10.483  0.00  0.00    +0.000 OA
BRANCH   9  10
ATOM     10  C   UNL     1      44.442   2.272   9.122  0.00  0.00    +0.000 C 
BRANCH  10  11
ATOM     11  C   UNL     1      45.679   2.256   8.274  0.00  0.00    +0.000 A 
ATOM     12  C   UNL     1      46.389   1.078   7.982  0.00  0.00    +0.000 A 
ATOM     13  C   UNL     1      47.520   1.114   7.171  0.00  0.00    +0.000 A 
ATOM     14  C   UNL     1      47.947   2.322   6.639  0.00  0.00    +0.000 A 
ATOM     15  C   UNL     1      47.222   3.479   6.911  0.00  0.00    +0.000 A 
ATOM     16  N   UNL     1      46.085   3.462   7.711  0.00  0.00    +0.000 N 
ATOM     17  O   UNL     1      45.435   4.541   7.899  0.00  0.00    +0.000 OA
ENDBRANCH  10  11
ENDBRANCH   9  10
ENDBRANCH   8   9
ENDBRANCH   5   8
ENDBRANCH   1   2
BRANCH   1  18
ATOM     18  N   UNL     1      47.911   7.104  14.948  0.00  0.00    +0.000 N 
ATOM     19  C   UNL     1      49.086   6.856  15.621  0.00  0.00    +0.000 C 
ATOM     20  O   UNL     1      50.181   6.851  15.071  0.00  0.00    +0.000 OA
ATOM     21  H   UNL     1      47.035   6.882  15.405  0.00  0.00    +0.000 HD
BRANCH  19  22
ATOM     22  C   UNL     1      48.955   6.657  17.069  0.00  0.00    +0.000 A 
ATOM     23  C   UNL     1      49.314   5.448  17.650  0.00  0.00    +0.000 A 
ATOM     24  S   UNL     1      49.115   5.426  19.346  0.00  0.00    +0.000 S 
ATOM     25  C   UNL     1      48.482   7.007  19.350  0.00  0.00    +0.000 A 
ATOM     26  N   UNL     1      48.059   7.596  20.500  0.00  0.00    +0.000 NA
ATOM     27  C   UNL     1      47.560   8.778  20.341  0.00  0.00    +0.000 A 
ATOM     28  N   UNL     1      47.461   9.431  19.141  0.00  0.00    +0.000 N 
ATOM     29  C   UNL     1      47.940   8.904  17.967  0.00  0.00    +0.000 A 
ATOM     30  O   UNL     1      47.944   9.560  16.932  0.00  0.00    +0.000 OA
ATOM     31  C   UNL     1      48.463   7.557  18.081  0.00  0.00    +0.000 A 
ATOM     32  H   UNL     1      47.089  10.368  19.084  0.00  0.00    +0.000 HD
ENDBRANCH  19  22
ENDBRANCH   1  18
BRANCH   1  33
ATOM     33  C   UNL     1      47.612   8.835  13.216  0.00  0.00    +0.000 C 
BRANCH  33  34
ATOM     34  CA  UNL     1      48.887   9.651  12.985  0.00  0.00    +0.000 C 
BRANCH  34  35
ATOM     35  N   UNL     1      49.506   9.964  14.290  0.00  0.00    +0.000 NA
ATOM     36  H1  UNL     1      48.808  10.459  14.850  0.00  0.00    +0.000 HD
ATOM     37  H2  UNL     1      50.241  10.661  14.144  0.00  0.00    +0.000 HD
ENDBRANCH  34  35
BRANCH  34  38
ATOM     38  C   UNL     1      49.913   8.938  12.084  0.00  0.00    +0.000 C 
BRANCH  38  39
ATOM     39  O   UNL     1      51.054   8.563  12.860  0.00  0.00    +0.000 OA
ATOM     40  H   UNL     1      51.839   8.898  12.390  0.00  0.00    +0.000 HD
ENDBRANCH  38  39
ENDBRANCH  34  38
ENDBRANCH  33  34
ENDBRANCH   1  33
TORSDOF 12
ENDMDL
MODEL 4
REMARK VINA RESULT:    -7.576      2.934      4.755
REMARK INTER + INTRA:         -14.168
REMARK INTER:                 -12.025
REMARK INTRA:                  -2.143
REMARK UNBOUND:                -1.720
REMARK  Name = 
REMARK  12 active torsions:
REMARK  status: ('A' for Active; 'I' for Inactive)
REMARK    1  A    between atoms: N_1  and  CA_2
REMARK    2  A    between atoms: CA_2  and  C_3
REMARK    3  A    between atoms: CA_2  and  C_5
REMARK    4  A    between atoms: C_3  and  O_4
REMARK    5  A    between atoms: C_5  and  C_6
REMARK    6  A    between atoms: C_6  and  N_7
REMARK    7  A    between atoms: C_6  and  C_20
REMARK    8  A    between atoms: C_8  and  C_10
REMARK    9  A    between atoms: C_23  and  C_24
REMARK   10  A    between atoms: C_24  and  O_25
REMARK   11  A    between atoms: O_25  and  C_26
REMARK   12  A    between atoms: C_26  and  C_27
REMARK                            x       y       z     vdW  Elec       q    Type
REMARK                         _______ _______ _______ _____ _____    ______ ____
ROOT
ATOM      1  C   UNL     1      47.362   5.888  14.657  0.00  0.00    +0.000 C 
ENDROOT
BRANCH   1   2
ATOM      2  C   UNL     1      46.407   5.245  13.651  0.00  0.00    +0.000 A 
ATOM      3  C   UNL     1      45.397   6.002  13.038  0.00  0.00    +0.000 A 
ATOM      4  C   UNL     1      44.441   5.393  12.211  0.00  0.00    +0.000 A 
ATOM      5  C   UNL     1      44.478   4.015  11.963  0.00  0.00    +0.000 A 
ATOM      6  C   UNL     1      45.516   3.266  12.532  0.00  0.00    +0.000 A 
ATOM      7  C   UNL     1      46.470   3.872  13.359  0.00  0.00    +0.000 A 
BRANCH   5   8
ATOM      8  C   UNL     1      43.392   3.340  11.155  0.00  0.00    +0.000 C 
BRANCH   8   9
ATOM      9  O   UNL     1      43.968   2.579  10.095  0.00  0.00    +0.000 OA
BRANCH   9  10
ATOM     10  C   UNL     1      44.569   3.430   9.107  0.00  0.00    +0.000 C 
BRANCH  10  11
ATOM     11  C   UNL     1      45.655   2.691   8.383  0.00  0.00    +0.000 A 
ATOM     12  C   UNL     1      45.752   1.289   8.381  0.00  0.00    +0.000 A 
ATOM     13  C   UNL     1      46.768   0.650   7.675  0.00  0.00    +0.000 A 
ATOM     14  C   UNL     1      47.688   1.402   6.959  0.00  0.00    +0.000 A 
ATOM     15  C   UNL     1      47.567   2.789   6.945  0.00  0.00    +0.000 A 
ATOM     16  N   UNL     1      46.555   3.445   7.636  0.00  0.00    +0.000 N 
ATOM     17  O   UNL     1      46.465   4.713   7.560  0.00  0.00    +0.000 OA
ENDBRANCH  10  11
ENDBRANCH   9  10
ENDBRANCH   8   9
ENDBRANCH   5   8
ENDBRANCH   1   2
BRANCH   1  18
ATOM     18  N   UNL     1      48.452   6.548  13.955  0.00  0.00    +0.000 N 
ATOM     19  C   UNL     1      48.528   7.912  13.786  0.00  0.00    +0.000 C 
ATOM     20  O   UNL     1      47.703   8.689  14.252  0.00  0.00    +0.000 OA
ATOM     21  H   UNL     1      49.032   5.955  13.373  0.00  0.00    +0.000 HD
BRANCH  19  22
ATOM     22  C   UNL     1      49.708   8.394  13.057  0.00  0.00    +0.000 A 
ATOM     23  C   UNL     1      49.570   9.003  11.817  0.00  0.00    +0.000 A 
ATOM     24  S   UNL     1      51.054   9.519  11.148  0.00  0.00    +0.000 S 
ATOM     25  C   UNL     1      51.933   8.886  12.461  0.00  0.00    +0.000 A 
ATOM     26  N   UNL     1      53.291   8.950  12.501  0.00  0.00    +0.000 NA
ATOM     27  C   UNL     1      53.822   8.387  13.537  0.00  0.00    +0.000 A 
ATOM     28  N   UNL     1      53.118   7.780  14.543  0.00  0.00    +0.000 N 
ATOM     29  C   UNL     1      51.747   7.755  14.581  0.00  0.00    +0.000 A 
ATOM     30  O   UNL     1      51.147   7.310  15.552  0.00  0.00    +0.000 OA
ATOM     31  C   UNL     1      51.102   8.327  13.416  0.00  0.00    +0.000 A 
ATOM     32  H   UNL     1      53.588   7.384  15.344  0.00  0.00    +0.000 HD
ENDBRANCH  19  22
ENDBRANCH   1  18
BRANCH   1  33
ATOM     33  C   UNL     1      47.917   4.855  15.667  0.00  0.00    +0.000 C 
BRANCH  33  34
ATOM     34  CA  UNL     1      48.531   5.458  16.934  0.00  0.00    +0.000 C 
BRANCH  34  35
ATOM     35  N   UNL     1      48.283   6.915  16.948  0.00  0.00    +0.000 NA
ATOM     36  H1  UNL     1      47.863   7.147  17.852  0.00  0.00    +0.000 HD
ATOM     37  H2  UNL     1      47.542   7.126  16.273  0.00  0.00    +0.000 HD
ENDBRANCH  34  35
BRANCH  34  38
ATOM     38  C   UNL     1      47.990   4.830  18.233  0.00  0.00    +0.000 C 
BRANCH  38  39
ATOM     39  O   UNL     1      46.561   4.853  18.217  0.00  0.00    +0.000 OA
ATOM     40  H   UNL     1      46.265   3.951  18.001  0.00  0.00    +0.000 HD
ENDBRANCH  38  39
ENDBRANCH  34  38
ENDBRANCH  33  34
ENDBRANCH   1  33
TORSDOF 12
ENDMDL
MODEL 5
REMARK VINA RESULT:    -7.452      2.449      4.997
REMARK INTER + INTRA:         -13.964
REMARK INTER:                 -12.205
REMARK INTRA:                  -1.759
REMARK UNBOUND:                -1.720
REMARK  Name = 
REMARK  12 active torsions:
REMARK  status: ('A' for Active; 'I' for Inactive)
REMARK    1  A    between atoms: N_1  and  CA_2
REMARK    2  A    between atoms: CA_2  and  C_3
REMARK    3  A    between atoms: CA_2  and  C_5
REMARK    4  A    between atoms: C_3  and  O_4
REMARK    5  A    between atoms: C_5  and  C_6
REMARK    6  A    between atoms: C_6  and  N_7
REMARK    7  A    between atoms: C_6  and  C_20
REMARK    8  A    between atoms: C_8  and  C_10
REMARK    9  A    between atoms: C_23  and  C_24
REMARK   10  A    between atoms: C_24  and  O_25
REMARK   11  A    between atoms: O_25  and  C_26
REMARK   12  A    between atoms: C_26  and  C_27
REMARK                            x       y       z     vdW  Elec       q    Type
REMARK                         _______ _______ _______ _____ _____    ______ ____
ROOT
ATOM      1  C   UNL     1      47.247   5.225  15.007  0.00  0.00    +0.000 C 
ENDROOT
BRANCH   1   2
ATOM      2  C   UNL     1      46.330   5.018  13.800  0.00  0.00    +0.000 A 
ATOM      3  C   UNL     1      45.612   6.092  13.254  0.00  0.00    +0.000 A 
ATOM      4  C   UNL     1      44.676   5.888  12.230  0.00  0.00    +0.000 A 
ATOM      5  C   UNL     1      44.444   4.607  11.713  0.00  0.00    +0.000 A 
ATOM      6  C   UNL     1      45.197   3.541  12.219  0.00  0.00    +0.000 A 
ATOM      7  C   UNL     1      46.131   3.743  13.244  0.00  0.00    +0.000 A 
BRANCH   5   8
ATOM      8  C   UNL     1      43.366   4.367  10.680  0.00  0.00    +0.000 C 
BRANCH   8   9
ATOM      9  O   UNL     1      43.784   3.366   9.754  0.00  0.00    +0.000 OA
BRANCH   9  10
ATOM     10  C   UNL     1      44.583   3.928   8.702  0.00  0.00    +0.000 C 
BRANCH  10  11
ATOM     11  C   UNL     1      45.573   2.915   8.211  0.00  0.00    +0.000 A 
ATOM     12  C   UNL     1      45.459   1.540   8.487  0.00  0.00    +0.000 A 
ATOM     13  C   UNL     1      46.395   0.638   7.990  0.00  0.00    +0.000 A 
ATOM     14  C   UNL     1      47.447   1.095   7.209  0.00  0.00    +0.000 A 
ATOM     15  C   UNL     1      47.537   2.454   6.919  0.00  0.00    +0.000 A 
ATOM     16  N   UNL     1      46.607   3.370   7.399  0.00  0.00    +0.000 N 
ATOM     17  O   UNL     1      46.712   4.597   7.073  0.00  0.00    +0.000 OA
ENDBRANCH  10  11
ENDBRANCH   9  10
ENDBRANCH   8   9
ENDBRANCH   5   8
ENDBRANCH   1   2
BRANCH   1  18
ATOM     18  N   UNL     1      48.441   5.951  14.604  0.00  0.00    +0.000 N 
ATOM     19  C   UNL     1      49.041   6.913  15.384  0.00  0.00    +0.000 C 
ATOM     20  O   UNL     1      48.641   7.208  16.504  0.00  0.00    +0.000 OA
ATOM     21  H   UNL     1      48.680   5.907  13.621  0.00  0.00    +0.000 HD
BRANCH  19  22
ATOM     22  C   UNL     1      50.243   7.531  14.812  0.00  0.00    +0.000 A 
ATOM     23  C   UNL     1      51.419   7.599  15.548  0.00  0.00    +0.000 A 
ATOM     24  S   UNL     1      52.709   8.325  14.697  0.00  0.00    +0.000 S 
ATOM     25  C   UNL     1      51.721   8.631  13.345  0.00  0.00    +0.000 A 
ATOM     26  N   UNL     1      52.200   9.284  12.252  0.00  0.00    +0.000 NA
ATOM     27  C   UNL     1      51.323   9.484  11.323  0.00  0.00    +0.000 A 
ATOM     28  N   UNL     1      50.016   9.078  11.381  0.00  0.00    +0.000 N 
ATOM     29  C   UNL     1      49.509   8.355  12.432  0.00  0.00    +0.000 A 
ATOM     30  O   UNL     1      48.370   7.905  12.400  0.00  0.00    +0.000 OA
ATOM     31  C   UNL     1      50.438   8.147  13.525  0.00  0.00    +0.000 A 
ATOM     32  H   UNL     1      49.385   9.237  10.610  0.00  0.00    +0.000 HD
ENDBRANCH  19  22
ENDBRANCH   1  18
BRANCH   1  33
ATOM     33  C   UNL     1      47.630   3.883  15.676  0.00  0.00    +0.000 C 
BRANCH  33  34
ATOM     34  CA  UNL     1      47.681   3.917  17.207  0.00  0.00    +0.000 C 
BRANCH  34  35
ATOM     35  N   UNL     1      46.789   2.870  17.746  0.00  0.00    +0.000 NA
ATOM     36  H1  UNL     1      46.445   3.197  18.653  0.00  0.00    +0.000 HD
ATOM     37  H2  UNL     1      47.353   2.049  17.980  0.00  0.00    +0.000 HD
ENDBRANCH  34  35
BRANCH  34  38
ATOM     38  C   UNL     1      49.101   3.728  17.774  0.00  0.00    +0.000 C 
BRANCH  38  39
ATOM     39  O   UNL     1      49.751   2.654  17.090  0.00  0.00    +0.000 OA
ATOM     40  H   UNL     1      50.205   2.120  17.767  0.00  0.00    +0.000 HD
ENDBRANCH  38  39
ENDBRANCH  34  38
ENDBRANCH  33  34
ENDBRANCH   1  33
TORSDOF 12
ENDMDL
MODEL 6
REMARK VINA RESULT:    -7.270      1.679      2.391
REMARK INTER + INTRA:         -13.666
REMARK INTER:                 -12.284
REMARK INTRA:                  -1.382
REMARK UNBOUND:                -1.720
REMARK  Name = 
REMARK  12 active torsions:
REMARK  status: ('A' for Active; 'I' for Inactive)
REMARK    1  A    between atoms: N_1  and  CA_2
REMARK    2  A    between atoms: CA_2  and  C_3
REMARK    3  A    between atoms: CA_2  and  C_5
REMARK    4  A    between atoms: C_3  and  O_4
REMARK    5  A    between atoms: C_5  and  C_6
REMARK    6  A    between atoms: C_6  and  N_7
REMARK    7  A    between atoms: C_6  and  C_20
REMARK    8  A    between atoms: C_8  and  C_10
REMARK    9  A    between atoms: C_23  and  C_24
REMARK   10  A    between atoms: C_24  and  O_25
REMARK   11  A    between atoms: O_25  and  C_26
REMARK   12  A    between atoms: C_26  and  C_27
REMARK                            x       y       z     vdW  Elec       q    Type
REMARK                         _______ _______ _______ _____ _____    ______ ____
ROOT
ATOM      1  C   UNL     1      46.548   7.769  12.828  0.00  0.00    +0.000 C 
ENDROOT
BRANCH   1   2
ATOM      2  C   UNL     1      45.730   6.575  12.334  0.00  0.00    +0.000 A 
ATOM      3  C   UNL     1      45.282   5.594  13.232  0.00  0.00    +0.000 A 
ATOM      4  C   UNL     1      44.641   4.434  12.771  0.00  0.00    +0.000 A 
ATOM      5  C   UNL     1      44.416   4.232  11.404  0.00  0.00    +0.000 A 
ATOM      6  C   UNL     1      44.815   5.234  10.511  0.00  0.00    +0.000 A 
ATOM      7  C   UNL     1      45.458   6.391  10.969  0.00  0.00    +0.000 A 
BRANCH   5   8
ATOM      8  C   UNL     1      43.815   2.940  10.896  0.00  0.00    +0.000 C 
BRANCH   8   9
ATOM      9  O   UNL     1      44.014   2.824   9.489  0.00  0.00    +0.000 OA
BRANCH   9  10
ATOM     10  C   UNL     1      44.858   1.705   9.171  0.00  0.00    +0.000 C 
BRANCH  10  11
ATOM     11  C   UNL     1      45.834   2.086   8.098  0.00  0.00    +0.000 A 
ATOM     12  C   UNL     1      45.954   3.398   7.607  0.00  0.00    +0.000 A 
ATOM     13  C   UNL     1      46.892   3.704   6.624  0.00  0.00    +0.000 A 
ATOM     14  C   UNL     1      47.721   2.708   6.129  0.00  0.00    +0.000 A 
ATOM     15  C   UNL     1      47.612   1.417   6.641  0.00  0.00    +0.000 A 
ATOM     16  N   UNL     1      46.689   1.094   7.629  0.00  0.00    +0.000 N 
ATOM     17  O   UNL     1      46.656  -0.093   8.090  0.00  0.00    +0.000 OA
ENDBRANCH  10  11
ENDBRANCH   9  10
ENDBRANCH   8   9
ENDBRANCH   5   8
ENDBRANCH   1   2
BRANCH   1  18
ATOM     18  N   UNL     1      47.255   7.415  14.050  0.00  0.00    +0.000 N 
ATOM     19  C   UNL     1      48.485   6.798  14.061  0.00  0.00    +0.000 C 
ATOM     20  O   UNL     1      49.108   6.535  13.040  0.00  0.00    +0.000 OA
ATOM     21  H   UNL     1      46.702   7.409  14.899  0.00  0.00    +0.000 HD
BRANCH  19  22
ATOM     22  C   UNL     1      49.044   6.528  15.392  0.00  0.00    +0.000 A 
ATOM     23  C   UNL     1      48.396   5.666  16.266  0.00  0.00    +0.000 A 
ATOM     24  S   UNL     1      49.220   5.460  17.748  0.00  0.00    +0.000 S 
ATOM     25  C   UNL     1      50.432   6.567  17.295  0.00  0.00    +0.000 A 
ATOM     26  N   UNL     1      51.444   6.893  18.141  0.00  0.00    +0.000 NA
ATOM     27  C   UNL     1      52.263   7.780  17.677  0.00  0.00    +0.000 A 
ATOM     28  N   UNL     1      52.171   8.357  16.438  0.00  0.00    +0.000 N 
ATOM     29  C   UNL     1      51.208   8.006  15.525  0.00  0.00    +0.000 A 
ATOM     30  O   UNL     1      51.223   8.453  14.384  0.00  0.00    +0.000 OA
ATOM     31  C   UNL     1      50.233   7.052  16.014  0.00  0.00    +0.000 A 
ATOM     32  H   UNL     1      52.859   9.023  16.119  0.00  0.00    +0.000 HD
ENDBRANCH  19  22
ENDBRANCH   1  18
BRANCH   1  33
ATOM     33  C   UNL     1      45.664   9.018  13.058  0.00  0.00    +0.000 C 
BRANCH  33  34
ATOM     34  CA  UNL     1      45.304   9.795  11.788  0.00  0.00    +0.000 C 
BRANCH  34  35
ATOM     35  N   UNL     1      43.834   9.831  11.641  0.00  0.00    +0.000 NA
ATOM     36  H1  UNL     1      43.573  10.790  11.398  0.00  0.00    +0.000 HD
ATOM     37  H2  UNL     1      43.411   9.689  12.563  0.00  0.00    +0.000 HD
ENDBRANCH  34  35
BRANCH  34  38
ATOM     38  C   UNL     1      45.860  11.232  11.773  0.00  0.00    +0.000 C 
BRANCH  38  39
ATOM     39  O   UNL     1      47.069  11.271  11.012  0.00  0.00    +0.000 OA
ATOM     40  H   UNL     1      47.804  11.156  11.642  0.00  0.00    +0.000 HD
ENDBRANCH  38  39
ENDBRANCH  34  38
ENDBRANCH  33  34
ENDBRANCH   1  33
TORSDOF 12
ENDMDL
MODEL 7
REMARK VINA RESULT:    -6.032      2.901      4.358
REMARK INTER + INTRA:         -11.631
REMARK INTER:                 -10.215
REMARK INTRA:                  -1.416
REMARK UNBOUND:                -1.720
REMARK  Name = 
REMARK  12 active torsions:
REMARK  status: ('A' for Active; 'I' for Inactive)
REMARK    1  A    between atoms: N_1  and  CA_2
REMARK    2  A    between atoms: CA_2  and  C_3
REMARK    3  A    between atoms: CA_2  and  C_5
REMARK    4  A    between atoms: C_3  and  O_4
REMARK    5  A    between atoms: C_5  and  C_6
REMARK    6  A    between atoms: C_6  and  N_7
REMARK    7  A    between atoms: C_6  and  C_20
REMARK    8  A    between atoms: C_8  and  C_10
REMARK    9  A    between atoms: C_23  and  C_24
REMARK   10  A    between atoms: C_24  and  O_25
REMARK   11  A    between atoms: O_25  and  C_26
REMARK   12  A    between atoms: C_26  and  C_27
REMARK                            x       y       z     vdW  Elec       q    Type
REMARK                         _______ _______ _______ _____ _____    ______ ____
ROOT
ATOM      1  C   UNL     1      50.094   7.771  14.396  0.00  0.00    +0.000 C 
ENDROOT
BRANCH   1   2
ATOM      2  C   UNL     1      48.750   7.718  13.667  0.00  0.00    +0.000 A 
ATOM      3  C   UNL     1      47.803   8.738  13.839  0.00  0.00    +0.000 A 
ATOM      4  C   UNL     1      46.522   8.636  13.274  0.00  0.00    +0.000 A 
ATOM      5  C   UNL     1      46.161   7.518  12.511  0.00  0.00    +0.000 A 
ATOM      6  C   UNL     1      47.122   6.524  12.294  0.00  0.00    +0.000 A 
ATOM      7  C   UNL     1      48.400   6.624  12.859  0.00  0.00    +0.000 A 
BRANCH   5   8
ATOM      8  C   UNL     1      44.752   7.357  11.985  0.00  0.00    +0.000 C 
BRANCH   8   9
ATOM      9  O   UNL     1      44.761   6.604  10.774  0.00  0.00    +0.000 OA
BRANCH   9  10
ATOM     10  C   UNL     1      44.111   5.335  10.943  0.00  0.00    +0.000 C 
BRANCH  10  11
ATOM     11  C   UNL     1      44.614   4.359   9.922  0.00  0.00    +0.000 A 
ATOM     12  C   UNL     1      45.519   4.716   8.906  0.00  0.00    +0.000 A 
ATOM     13  C   UNL     1      45.972   3.767   7.995  0.00  0.00    +0.000 A 
ATOM     14  C   UNL     1      45.534   2.454   8.092  0.00  0.00    +0.000 A 
ATOM     15  C   UNL     1      44.659   2.104   9.117  0.00  0.00    +0.000 A 
ATOM     16  N   UNL     1      44.202   3.036  10.043  0.00  0.00    +0.000 N 
ATOM     17  O   UNL     1      43.432   2.657  10.984  0.00  0.00    +0.000 OA
ENDBRANCH  10  11
ENDBRANCH   9  10
ENDBRANCH   8   9
ENDBRANCH   5   8
ENDBRANCH   1   2
BRANCH   1  18
ATOM     18  N   UNL     1      49.882   7.702  15.833  0.00  0.00    +0.000 N 
ATOM     19  C   UNL     1      49.459   6.564  16.482  0.00  0.00    +0.000 C 
ATOM     20  O   UNL     1      49.268   5.499  15.906  0.00  0.00    +0.000 OA
ATOM     21  H   UNL     1      49.813   8.589  16.317  0.00  0.00    +0.000 HD
BRANCH  19  22
ATOM     22  C   UNL     1      49.310   6.685  17.938  0.00  0.00    +0.000 A 
ATOM     23  C   UNL     1      49.875   5.742  18.785  0.00  0.00    +0.000 A 
ATOM     24  S   UNL     1      49.615   6.076  20.439  0.00  0.00    +0.000 S 
ATOM     25  C   UNL     1      48.683   7.453  20.074  0.00  0.00    +0.000 A 
ATOM     26  N   UNL     1      48.105   8.197  21.055  0.00  0.00    +0.000 NA
ATOM     27  C   UNL     1      47.390   9.184  20.624  0.00  0.00    +0.000 A 
ATOM     28  N   UNL     1      47.214   9.506  19.305  0.00  0.00    +0.000 N 
ATOM     29  C   UNL     1      47.836   8.828  18.286  0.00  0.00    +0.000 A 
ATOM     30  O   UNL     1      47.753   9.212  17.125  0.00  0.00    +0.000 OA
ATOM     31  C   UNL     1      48.609   7.678  18.711  0.00  0.00    +0.000 A 
ATOM     32  H   UNL     1      46.668  10.309  19.030  0.00  0.00    +0.000 HD
ENDBRANCH  19  22
ENDBRANCH   1  18
BRANCH   1  33
ATOM     33  C   UNL     1      50.899   9.041  14.029  0.00  0.00    +0.000 C 
BRANCH  33  34
ATOM     34  CA  UNL     1      51.986   8.831  12.970  0.00  0.00    +0.000 C 
BRANCH  34  35
ATOM     35  N   UNL     1      52.885   7.743  13.406  0.00  0.00    +0.000 NA
ATOM     36  H1  UNL     1      53.690   8.176  13.866  0.00  0.00    +0.000 HD
ATOM     37  H2  UNL     1      53.288   7.300  12.575  0.00  0.00    +0.000 HD
ENDBRANCH  34  35
BRANCH  34  38
ATOM     38  C   UNL     1      51.421   8.507  11.573  0.00  0.00    +0.000 C 
BRANCH  38  39
ATOM     39  O   UNL     1      51.982   7.278  11.103  0.00  0.00    +0.000 OA
ATOM     40  H   UNL     1      51.238   6.721  10.812  0.00  0.00    +0.000 HD
ENDBRANCH  38  39
ENDBRANCH  34  38
ENDBRANCH  33  34
ENDBRANCH   1  33
TORSDOF 12
ENDMDL
