MODEL 1
REMARK VINA RESULT:    -8.315      0.000      0.000
REMARK INTER + INTRA:         -13.671
REMARK INTER:                 -12.204
REMARK INTRA:                  -1.467
REMARK UNBOUND:                -1.467
REMARK  Name = 
REMARK  9 active torsions:
REMARK  status: ('A' for Active; 'I' for Inactive)
REMARK    1  A    between atoms: C_1  and  O_2
REMARK    2  A    between atoms: O_2  and  C_3
REMARK    3  A    between atoms: C_10  and  C_11
REMARK    4  A    between atoms: N_13  and  C_14
REMARK    5  A    between atoms: C_14  and  C_15
REMARK    6  A    between atoms: C_18  and  C_19
REMARK    7  A    between atoms: C_19  and  N_20
REMARK    8  A    between atoms: N_20  and  C_21
REMARK    9  A    between atoms: C_21  and  C_22
REMARK                            x       y       z     vdW  Elec       q    Type
REMARK                         _______ _______ _______ _____ _____    ______ ____
ROOT
ATOM      1  C   UNL     1      47.100   8.272  13.343  0.00  0.00    +0.000 C 
ENDROOT
BRANCH   1   2
ATOM      2  C   UNL     1      46.231   7.413  12.457  0.00  0.00    +0.000 A 
ATOM      3  C   UNL     1      46.798   6.601  11.464  0.00  0.00    +0.000 A 
ATOM      4  C   UNL     1      45.993   5.780  10.668  0.00  0.00    +0.000 A 
ATOM      5  C   UNL     1      44.600   5.755  10.838  0.00  0.00    +0.000 A 
ATOM      6  C   UNL     1      44.031   6.605  11.796  0.00  0.00    +0.000 A 
ATOM      7  C   UNL     1      44.836   7.428  12.592  0.00  0.00    +0.000 A 
BRANCH   5   8
ATOM      8  C   UNL     1      43.735   4.836  10.002  0.00  0.00    +0.000 C 
BRANCH   8   9
ATOM      9  N   UNL     1      44.455   4.359   8.822  0.00  0.00    +0.000 NA
ATOM     10  H   UNL     1      45.405   4.728   8.844  0.00  0.00    +0.000 HD
BRANCH   9  11
ATOM     11  C   UNL     1      44.511   2.899   8.777  0.00  0.00    +0.000 C 
BRANCH  11  12
ATOM     12  C   UNL     1      45.755   2.429   8.061  0.00  0.00    +0.000 A 
ATOM     13  C   UNL     1      46.157   1.091   8.106  0.00  0.00    +0.000 A 
ATOM     14  C   UNL     1      47.309   0.718   7.426  0.00  0.00    +0.000 A 
ATOM     15  N   UNL     1      48.072   1.571   6.712  0.00  0.00    +0.000 NA
ATOM     16  C   UNL     1      47.668   2.857   6.678  0.00  0.00    +0.000 A 
ATOM     17  C   UNL     1      46.532   3.326   7.320  0.00  0.00    +0.000 A 
ENDBRANCH  11  12
ENDBRANCH   9  11
ENDBRANCH   8   9
ENDBRANCH   5   8
ENDBRANCH   1   2
BRANCH   1  20
ATOM     18  C   UNL     1      48.720   6.931  14.626  0.00  0.00    +0.000 C 
ATOM     19  O   UNL     1      49.526   6.951  13.698  0.00  0.00    +0.000 OA
ATOM     20  N   UNL     1      47.508   7.557  14.524  0.00  0.00    +0.000 N 
ATOM     21  H   UNL     1      46.840   7.492  15.280  0.00  0.00    +0.000 HD
BRANCH  18  29
ATOM     22  C   UNL     1      47.284   4.270  16.269  0.00  0.00    +0.000 A 
ATOM     23  N   UNL     1      46.937   3.263  17.096  0.00  0.00    +0.000 NA
ATOM     24  C   UNL     1      47.658   3.090  18.207  0.00  0.00    +0.000 A 
ATOM     25  N   UNL     1      48.703   3.810  18.605  0.00  0.00    +0.000 NA
ATOM     26  C   UNL     1      49.021   4.795  17.747  0.00  0.00    +0.000 A 
ATOM     27  S   UNL     1      50.329   5.820  18.095  0.00  0.00    +0.000 S 
ATOM     28  C   UNL     1      50.088   6.695  16.661  0.00  0.00    +0.000 A 
ATOM     29  C   UNL     1      49.023   6.239  15.891  0.00  0.00    +0.000 A 
ATOM     30  C   UNL     1      48.382   5.102  16.550  0.00  0.00    +0.000 A 
BRANCH  22  32
ATOM     31  C   UNL     1      47.034   3.644  14.027  0.00  0.00    +0.000 C 
ATOM     32  O   UNL     1      46.556   4.436  15.110  0.00  0.00    +0.000 OA
ENDBRANCH  22  32
ENDBRANCH  18  29
ENDBRANCH   1  20
TORSDOF 8
ENDMDL
MODEL 2
REMARK VINA RESULT:    -7.838      1.577      2.088
REMARK INTER + INTRA:         -12.970
REMARK INTER:                 -11.731
REMARK INTRA:                  -1.240
REMARK UNBOUND:                -1.467
REMARK  Name = 
REMARK  9 active torsions:
REMARK  status: ('A' for Active; 'I' for Inactive)
REMARK    1  A    between atoms: C_1  and  O_2
REMARK    2  A    between atoms: O_2  and  C_3
REMARK    3  A    between atoms: C_10  and  C_11
REMARK    4  A    between atoms: N_13  and  C_14
REMARK    5  A    between atoms: C_14  and  C_15
REMARK    6  A    between atoms: C_18  and  C_19
REMARK    7  A    between atoms: C_19  and  N_20
REMARK    8  A    between atoms: N_20  and  C_21
REMARK    9  A    between atoms: C_21  and  C_22
REMARK                            x       y       z     vdW  Elec       q    Type
REMARK                         _______ _______ _______ _____ _____    ______ ____
ROOT
ATOM      1  C   UNL     1      48.003   6.919  13.160  0.00  0.00    +0.000 C 
ENDROOT
BRANCH   1   2
ATOM      2  C   UNL     1      46.884   6.078  12.594  0.00  0.00    +0.000 A 
ATOM      3  C   UNL     1      46.349   5.009  13.325  0.00  0.00    +0.000 A 
ATOM      4  C   UNL     1      45.289   4.254  12.811  0.00  0.00    +0.000 A 
ATOM      5  C   UNL     1      44.743   4.544  11.552  0.00  0.00    +0.000 A 
ATOM      6  C   UNL     1      45.313   5.581  10.801  0.00  0.00    +0.000 A 
ATOM      7  C   UNL     1      46.374   6.336  11.314  0.00  0.00    +0.000 A 
BRANCH   5   8
ATOM      8  C   UNL     1      43.569   3.751  11.015  0.00  0.00    +0.000 C 
BRANCH   8   9
ATOM      9  N   UNL     1      43.772   3.390   9.613  0.00  0.00    +0.000 NA
ATOM     10  H   UNL     1      44.268   4.147   9.145  0.00  0.00    +0.000 HD
BRANCH   9  11
ATOM     11  C   UNL     1      44.547   2.157   9.479  0.00  0.00    +0.000 C 
BRANCH  11  12
ATOM     12  C   UNL     1      45.631   2.312   8.441  0.00  0.00    +0.000 A 
ATOM     13  C   UNL     1      45.891   3.548   7.840  0.00  0.00    +0.000 A 
ATOM     14  C   UNL     1      46.903   3.629   6.892  0.00  0.00    +0.000 A 
ATOM     15  N   UNL     1      47.665   2.583   6.512  0.00  0.00    +0.000 NA
ATOM     16  C   UNL     1      47.402   1.399   7.104  0.00  0.00    +0.000 A 
ATOM     17  C   UNL     1      46.417   1.218   8.062  0.00  0.00    +0.000 A 
ENDBRANCH  11  12
ENDBRANCH   9  11
ENDBRANCH   8   9
ENDBRANCH   5   8
ENDBRANCH   1   2
BRANCH   1  20
ATOM     18  C   UNL     1      49.072   6.961  15.379  0.00  0.00    +0.000 C 
ATOM     19  O   UNL     1      50.194   6.929  14.878  0.00  0.00    +0.000 OA
ATOM     20  N   UNL     1      47.948   6.957  14.599  0.00  0.00    +0.000 N 
ATOM     21  H   UNL     1      47.034   6.939  15.028  0.00  0.00    +0.000 HD
BRANCH  18  29
ATOM     22  C   UNL     1      48.914   4.546  17.826  0.00  0.00    +0.000 A 
ATOM     23  N   UNL     1      48.835   3.824  18.961  0.00  0.00    +0.000 NA
ATOM     24  C   UNL     1      48.651   4.482  20.110  0.00  0.00    +0.000 A 
ATOM     25  N   UNL     1      48.532   5.797  20.271  0.00  0.00    +0.000 NA
ATOM     26  C   UNL     1      48.629   6.479  19.116  0.00  0.00    +0.000 A 
ATOM     27  S   UNL     1      48.499   8.171  19.129  0.00  0.00    +0.000 S 
ATOM     28  C   UNL     1      48.711   8.249  17.447  0.00  0.00    +0.000 A 
ATOM     29  C   UNL     1      48.884   7.010  16.840  0.00  0.00    +0.000 A 
ATOM     30  C   UNL     1      48.828   5.950  17.845  0.00  0.00    +0.000 A 
BRANCH  22  32
ATOM     31  C   UNL     1      48.534   2.577  16.619  0.00  0.00    +0.000 C 
ATOM     32  O   UNL     1      49.128   3.872  16.643  0.00  0.00    +0.000 OA
ENDBRANCH  22  32
ENDBRANCH  18  29
ENDBRANCH   1  20
TORSDOF 8
ENDMDL
MODEL 3
REMARK VINA RESULT:    -7.778      2.060      3.469
REMARK INTER + INTRA:         -12.882
REMARK INTER:                 -11.739
REMARK INTRA:                  -1.143
REMARK UNBOUND:                -1.467
REMARK  Name = 
REMARK  9 active torsions:
REMARK  status: ('A' for Active; 'I' for Inactive)
REMARK    1  A    between atoms: C_1  and  O_2
REMARK    2  A    between atoms: O_2  and  C_3
REMARK    3  A    between atoms: C_10  and  C_11
REMARK    4  A    between atoms: N_13  and  C_14
REMARK    5  A    between atoms: C_14  and  C_15
REMARK    6  A    between atoms: C_18  and  C_19
REMARK    7  A    between atoms: C_19  and  N_20
REMARK    8  A    between atoms: N_20  and  C_21
REMARK    9  A    between atoms: C_21  and  C_22
REMARK                            x       y       z     vdW  Elec       q    Type
REMARK                         _______ _______ _______ _____ _____    ______ ____
ROOT
ATOM      1  C   UNL     1      47.430   3.266  14.872  0.00  0.00    +0.000 C 
ENDROOT
BRANCH   1   2
ATOM      2  C   UNL     1      46.775   3.945  13.694  0.00  0.00    +0.000 A 
ATOM      3  C   UNL     1      47.075   5.277  13.375  0.00  0.00    +0.000 A 
ATOM      4  C   UNL     1      46.492   5.892  12.262  0.00  0.00    +0.000 A 
ATOM      5  C   UNL     1      45.590   5.195  11.445  0.00  0.00    +0.000 A 
ATOM      6  C   UNL     1      45.253   3.881  11.794  0.00  0.00    +0.000 A 
ATOM      7  C   UNL     1      45.834   3.265  12.908  0.00  0.00    +0.000 A 
BRANCH   5   8
ATOM      8  C   UNL     1      44.992   5.850  10.217  0.00  0.00    +0.000 C 
BRANCH   8   9
ATOM      9  N   UNL     1      45.581   5.314   8.991  0.00  0.00    +0.000 NA
ATOM     10  H   UNL     1      46.567   5.113   9.158  0.00  0.00    +0.000 HD
BRANCH   9  11
ATOM     11  C   UNL     1      44.910   4.088   8.561  0.00  0.00    +0.000 C 
BRANCH  11  12
ATOM     12  C   UNL     1      45.902   3.104   7.989  0.00  0.00    +0.000 A 
ATOM     13  C   UNL     1      46.920   3.516   7.124  0.00  0.00    +0.000 A 
ATOM     14  C   UNL     1      47.804   2.565   6.632  0.00  0.00    +0.000 A 
ATOM     15  N   UNL     1      47.747   1.253   6.940  0.00  0.00    +0.000 NA
ATOM     16  C   UNL     1      46.760   0.873   7.777  0.00  0.00    +0.000 A 
ATOM     17  C   UNL     1      45.832   1.747   8.324  0.00  0.00    +0.000 A 
ENDBRANCH  11  12
ENDBRANCH   9  11
ENDBRANCH   8   9
ENDBRANCH   5   8
ENDBRANCH   1   2
BRANCH   1  20
ATOM     18  C   UNL     1      47.367   4.148  17.171  0.00  0.00    +0.000 C 
ATOM     19  O   UNL     1      46.611   3.249  17.533  0.00  0.00    +0.000 OA
ATOM     20  N   UNL     1      47.811   4.221  15.879  0.00  0.00    +0.000 N 
ATOM     21  H   UNL     1      48.396   4.992  15.588  0.00  0.00    +0.000 HD
BRANCH  18  29
ATOM     22  C   UNL     1      50.479   5.379  17.974  0.00  0.00    +0.000 A 
ATOM     23  N   UNL     1      51.551   6.042  18.453  0.00  0.00    +0.000 NA
ATOM     24  C   UNL     1      51.342   6.981  19.381  0.00  0.00    +0.000 A 
ATOM     25  N   UNL     1      50.175   7.349  19.900  0.00  0.00    +0.000 NA
ATOM     26  C   UNL     1      49.133   6.672  19.386  0.00  0.00    +0.000 A 
ATOM     27  S   UNL     1      47.562   7.008  19.935  0.00  0.00    +0.000 S 
ATOM     28  C   UNL     1      46.896   5.847  18.892  0.00  0.00    +0.000 A 
ATOM     29  C   UNL     1      47.836   5.182  18.110  0.00  0.00    +0.000 A 
ATOM     30  C   UNL     1      49.178   5.677  18.415  0.00  0.00    +0.000 A 
BRANCH  22  32
ATOM     31  C   UNL     1      51.067   3.158  17.527  0.00  0.00    +0.000 C 
ATOM     32  O   UNL     1      50.690   4.426  17.000  0.00  0.00    +0.000 OA
ENDBRANCH  22  32
ENDBRANCH  18  29
ENDBRANCH   1  20
TORSDOF 8
ENDMDL
MODEL 4
REMARK VINA RESULT:    -7.535      2.073      3.450
REMARK INTER + INTRA:         -12.526
REMARK INTER:                 -11.237
REMARK INTRA:                  -1.289
REMARK UNBOUND:                -1.467
REMARK  Name = 
REMARK  9 active torsions:
REMARK  status: ('A' for Active; 'I' for Inactive)
REMARK    1  A    between atoms: C_1  and  O_2
REMARK    2  A    between atoms: O_2  and  C_3
REMARK    3  A    between atoms: C_10  and  C_11
REMARK    4  A    between atoms: N_13  and  C_14
REMARK    5  A    between atoms: C_14  and  C_15
REMARK    6  A    between atoms: C_18  and  C_19
REMARK    7  A    between atoms: C_19  and  N_20
REMARK    8  A    between atoms: N_20  and  C_21
REMARK    9  A    between atoms: C_21  and  C_22
REMARK                            x       y       z     vdW  Elec       q    Type
REMARK                         _______ _______ _______ _____ _____    ______ ____
ROOT
ATOM      1  C   UNL     1      47.384   3.892  15.151  0.00  0.00    +0.000 C 
ENDROOT
BRANCH   1   2
ATOM      2  C   UNL     1      46.725   4.286  13.852  0.00  0.00    +0.000 A 
ATOM      3  C   UNL     1      45.991   3.353  13.107  0.00  0.00    +0.000 A 
ATOM      4  C   UNL     1      45.352   3.730  11.921  0.00  0.00    +0.000 A 
ATOM      5  C   UNL     1      45.437   5.048  11.446  0.00  0.00    +0.000 A 
ATOM      6  C   UNL     1      46.213   5.966  12.165  0.00  0.00    +0.000 A 
ATOM      7  C   UNL     1      46.853   5.589  13.351  0.00  0.00    +0.000 A 
BRANCH   5   8
ATOM      8  C   UNL     1      44.711   5.464  10.184  0.00  0.00    +0.000 C 
BRANCH   8   9
ATOM      9  N   UNL     1      45.453   5.059   8.990  0.00  0.00    +0.000 NA
ATOM     10  H   UNL     1      46.409   4.828   9.257  0.00  0.00    +0.000 HD
BRANCH   9  11
ATOM     11  C   UNL     1      44.844   3.899   8.343  0.00  0.00    +0.000 C 
BRANCH  11  12
ATOM     12  C   UNL     1      45.901   2.958   7.817  0.00  0.00    +0.000 A 
ATOM     13  C   UNL     1      45.954   1.622   8.226  0.00  0.00    +0.000 A 
ATOM     14  C   UNL     1      46.949   0.804   7.706  0.00  0.00    +0.000 A 
ATOM     15  N   UNL     1      47.876   1.217   6.818  0.00  0.00    +0.000 NA
ATOM     16  C   UNL     1      47.808   2.508   6.433  0.00  0.00    +0.000 A 
ATOM     17  C   UNL     1      46.852   3.401   6.891  0.00  0.00    +0.000 A 
ENDBRANCH  11  12
ENDBRANCH   9  11
ENDBRANCH   8   9
ENDBRANCH   5   8
ENDBRANCH   1   2
BRANCH   1  20
ATOM     18  C   UNL     1      48.572   5.175  16.886  0.00  0.00    +0.000 C 
ATOM     19  O   UNL     1      49.474   4.341  16.936  0.00  0.00    +0.000 OA
ATOM     20  N   UNL     1      47.513   5.022  16.034  0.00  0.00    +0.000 N 
ATOM     21  H   UNL     1      46.759   5.695  16.038  0.00  0.00    +0.000 HD
BRANCH  18  29
ATOM     22  C   UNL     1      48.622   8.548  16.203  0.00  0.00    +0.000 A 
ATOM     23  N   UNL     1      48.623   9.896  16.220  0.00  0.00    +0.000 NA
ATOM     24  C   UNL     1      48.633  10.507  17.408  0.00  0.00    +0.000 A 
ATOM     25  N   UNL     1      48.642   9.930  18.606  0.00  0.00    +0.000 NA
ATOM     26  C   UNL     1      48.629   8.587  18.544  0.00  0.00    +0.000 A 
ATOM     27  S   UNL     1      48.641   7.681  19.980  0.00  0.00    +0.000 S 
ATOM     28  C   UNL     1      48.612   6.221  19.116  0.00  0.00    +0.000 A 
ATOM     29  C   UNL     1      48.592   6.380  17.734  0.00  0.00    +0.000 A 
ATOM     30  C   UNL     1      48.609   7.802  17.395  0.00  0.00    +0.000 A 
BRANCH  22  32
ATOM     31  C   UNL     1      49.882   7.667  14.439  0.00  0.00    +0.000 C 
ATOM     32  O   UNL     1      48.588   7.915  14.979  0.00  0.00    +0.000 OA
ENDBRANCH  22  32
ENDBRANCH  18  29
ENDBRANCH   1  20
TORSDOF 8
ENDMDL
MODEL 5
REMARK VINA RESULT:    -7.508      2.178      2.954
REMARK INTER + INTRA:         -12.486
REMARK INTER:                 -11.299
REMARK INTRA:                  -1.187
REMARK UNBOUND:                -1.467
REMARK  Name = 
REMARK  9 active torsions:
REMARK  status: ('A' for Active; 'I' for Inactive)
REMARK    1  A    between atoms: C_1  and  O_2
REMARK    2  A    between atoms: O_2  and  C_3
REMARK    3  A    between atoms: C_10  and  C_11
REMARK    4  A    between atoms: N_13  and  C_14
REMARK    5  A    between atoms: C_14  and  C_15
REMARK    6  A    between atoms: C_18  and  C_19
REMARK    7  A    between atoms: C_19  and  N_20
REMARK    8  A    between atoms: N_20  and  C_21
REMARK    9  A    between atoms: C_21  and  C_22
REMARK                            x       y       z     vdW  Elec       q    Type
REMARK                         _______ _______ _______ _____ _____    ______ ____
ROOT
ATOM      1  C   UNL     1      47.660   7.242  13.507  0.00  0.00    +0.000 C 
ENDROOT
BRANCH   1   2
ATOM      2  C   UNL     1      46.591   6.434  12.811  0.00  0.00    +0.000 A 
ATOM      3  C   UNL     1      45.689   7.046  11.931  0.00  0.00    +0.000 A 
ATOM      4  C   UNL     1      44.722   6.288  11.260  0.00  0.00    +0.000 A 
ATOM      5  C   UNL     1      44.627   4.903  11.461  0.00  0.00    +0.000 A 
ATOM      6  C   UNL     1      45.497   4.302  12.380  0.00  0.00    +0.000 A 
ATOM      7  C   UNL     1      46.464   5.059  13.052  0.00  0.00    +0.000 A 
BRANCH   5   8
ATOM      8  C   UNL     1      43.606   4.080  10.704  0.00  0.00    +0.000 C 
BRANCH   8   9
ATOM      9  N   UNL     1      44.256   3.129   9.802  0.00  0.00    +0.000 NA
ATOM     10  H   UNL     1      43.566   2.449   9.486  0.00  0.00    +0.000 HD
BRANCH   9  11
ATOM     11  C   UNL     1      44.835   3.798   8.639  0.00  0.00    +0.000 C 
BRANCH  11  12
ATOM     12  C   UNL     1      45.874   2.925   7.977  0.00  0.00    +0.000 A 
ATOM     13  C   UNL     1      46.781   3.449   7.051  0.00  0.00    +0.000 A 
ATOM     14  C   UNL     1      47.716   2.598   6.477  0.00  0.00    +0.000 A 
ATOM     15  N   UNL     1      47.810   1.282   6.760  0.00  0.00    +0.000 NA
ATOM     16  C   UNL     1      46.929   0.794   7.657  0.00  0.00    +0.000 A 
ATOM     17  C   UNL     1      45.962   1.563   8.287  0.00  0.00    +0.000 A 
ENDBRANCH  11  12
ENDBRANCH   9  11
ENDBRANCH   8   9
ENDBRANCH   5   8
ENDBRANCH   1   2
BRANCH   1  20
ATOM     18  C   UNL     1      48.911   6.644  15.543  0.00  0.00    +0.000 C 
ATOM     19  O   UNL     1      49.979   6.665  14.936  0.00  0.00    +0.000 OA
ATOM     20  N   UNL     1      47.730   6.916  14.908  0.00  0.00    +0.000 N 
ATOM     21  H   UNL     1      46.857   6.850  15.413  0.00  0.00    +0.000 HD
BRANCH  18  29
ATOM     22  C   UNL     1      47.952   8.443  18.316  0.00  0.00    +0.000 A 
ATOM     23  N   UNL     1      47.627   8.903  19.541  0.00  0.00    +0.000 NA
ATOM     24  C   UNL     1      47.791   8.082  20.582  0.00  0.00    +0.000 A 
ATOM     25  N   UNL     1      48.249   6.833  20.554  0.00  0.00    +0.000 NA
ATOM     26  C   UNL     1      48.550   6.411  19.313  0.00  0.00    +0.000 A 
ATOM     27  S   UNL     1      49.153   4.840  19.085  0.00  0.00    +0.000 S 
ATOM     28  C   UNL     1      49.263   5.073  17.408  0.00  0.00    +0.000 A 
ATOM     29  C   UNL     1      48.851   6.332  16.982  0.00  0.00    +0.000 A 
ATOM     30  C   UNL     1      48.430   7.133  18.130  0.00  0.00    +0.000 A 
BRANCH  22  32
ATOM     31  C   UNL     1      48.883  10.119  16.973  0.00  0.00    +0.000 C 
ATOM     32  O   UNL     1      47.762   9.280  17.238  0.00  0.00    +0.000 OA
ENDBRANCH  22  32
ENDBRANCH  18  29
ENDBRANCH   1  20
TORSDOF 8
ENDMDL
MODEL 6
REMARK VINA RESULT:    -7.474      2.120      3.815
REMARK INTER + INTRA:         -12.436
REMARK INTER:                 -11.050
REMARK INTRA:                  -1.386
REMARK UNBOUND:                -1.467
REMARK  Name = 
REMARK  9 active torsions:
REMARK  status: ('A' for Active; 'I' for Inactive)
REMARK    1  A    between atoms: C_1  and  O_2
REMARK    2  A    between atoms: O_2  and  C_3
REMARK    3  A    between atoms: C_10  and  C_11
REMARK    4  A    between atoms: N_13  and  C_14
REMARK    5  A    between atoms: C_14  and  C_15
REMARK    6  A    between atoms: C_18  and  C_19
REMARK    7  A    between atoms: C_19  and  N_20
REMARK    8  A    between atoms: N_20  and  C_21
REMARK    9  A    between atoms: C_21  and  C_22
REMARK                            x       y       z     vdW  Elec       q    Type
REMARK                         _______ _______ _______ _____ _____    ______ ____
ROOT
ATOM      1  C   UNL     1      47.202   4.583  14.915  0.00  0.00    +0.000 C 
ENDROOT
BRANCH   1   2
ATOM      2  C   UNL     1      46.345   4.552  13.673  0.00  0.00    +0.000 A 
ATOM      3  C   UNL     1      46.025   3.338  13.051  0.00  0.00    +0.000 A 
ATOM      4  C   UNL     1      45.202   3.311  11.920  0.00  0.00    +0.000 A 
ATOM      5  C   UNL     1      44.684   4.497  11.378  0.00  0.00    +0.000 A 
ATOM      6  C   UNL     1      45.047   5.714  11.971  0.00  0.00    +0.000 A 
ATOM      7  C   UNL     1      45.871   5.742  13.102  0.00  0.00    +0.000 A 
BRANCH   5   8
ATOM      8  C   UNL     1      43.761   4.462  10.178  0.00  0.00    +0.000 C 
BRANCH   8   9
ATOM      9  N   UNL     1      44.154   3.412   9.239  0.00  0.00    +0.000 NA
ATOM     10  H   UNL     1      43.317   2.921   8.924  0.00  0.00    +0.000 HD
BRANCH   9  11
ATOM     11  C   UNL     1      44.854   3.958   8.079  0.00  0.00    +0.000 C 
BRANCH  11  12
ATOM     12  C   UNL     1      45.904   2.995   7.580  0.00  0.00    +0.000 A 
ATOM     13  C   UNL     1      46.048   1.722   8.141  0.00  0.00    +0.000 A 
ATOM     14  C   UNL     1      47.031   0.880   7.639  0.00  0.00    +0.000 A 
ATOM     15  N   UNL     1      47.864   1.210   6.631  0.00  0.00    +0.000 NA
ATOM     16  C   UNL     1      47.709   2.441   6.100  0.00  0.00    +0.000 A 
ATOM     17  C   UNL     1      46.756   3.352   6.529  0.00  0.00    +0.000 A 
ENDBRANCH  11  12
ENDBRANCH   9  11
ENDBRANCH   8   9
ENDBRANCH   5   8
ENDBRANCH   1   2
BRANCH   1  20
ATOM     18  C   UNL     1      48.821   6.105  15.978  0.00  0.00    +0.000 C 
ATOM     19  O   UNL     1      49.314   5.185  16.627  0.00  0.00    +0.000 OA
ATOM     20  N   UNL     1      47.780   5.885  15.118  0.00  0.00    +0.000 N 
ATOM     21  H   UNL     1      47.358   6.661  14.627  0.00  0.00    +0.000 HD
BRANCH  18  29
ATOM     22  C   UNL     1      49.972   8.398  13.684  0.00  0.00    +0.000 A 
ATOM     23  N   UNL     1      50.441   9.468  13.013  0.00  0.00    +0.000 NA
ATOM     24  C   UNL     1      50.764  10.556  13.717  0.00  0.00    +0.000 A 
ATOM     25  N   UNL     1      50.677  10.714  15.035  0.00  0.00    +0.000 NA
ATOM     26  C   UNL     1      50.195   9.627  15.664  0.00  0.00    +0.000 A 
ATOM     27  S   UNL     1      50.018   9.645  17.352  0.00  0.00    +0.000 S 
ATOM     28  C   UNL     1      49.412   8.060  17.355  0.00  0.00    +0.000 A 
ATOM     29  C   UNL     1      49.329   7.483  16.092  0.00  0.00    +0.000 A 
ATOM     30  C   UNL     1      49.806   8.426  15.080  0.00  0.00    +0.000 A 
BRANCH  22  32
ATOM     31  C   UNL     1      48.788   7.581  11.838  0.00  0.00    +0.000 C 
ATOM     32  O   UNL     1      49.616   7.282  12.958  0.00  0.00    +0.000 OA
ENDBRANCH  22  32
ENDBRANCH  18  29
ENDBRANCH   1  20
TORSDOF 8
ENDMDL
MODEL 7
REMARK VINA RESULT:    -7.314      2.583      3.564
REMARK INTER + INTRA:         -12.201
REMARK INTER:                 -11.080
REMARK INTRA:                  -1.121
REMARK UNBOUND:                -1.467
REMARK  Name = 
REMARK  9 active torsions:
REMARK  status: ('A' for Active; 'I' for Inactive)
REMARK    1  A    between atoms: C_1  and  O_2
REMARK    2  A    between atoms: O_2  and  C_3
REMARK    3  A    between atoms: C_10  and  C_11
REMARK    4  A    between atoms: N_13  and  C_14
REMARK    5  A    between atoms: C_14  and  C_15
REMARK    6  A    between atoms: C_18  and  C_19
REMARK    7  A    between atoms: C_19  and  N_20
REMARK    8  A    between atoms: N_20  and  C_21
REMARK    9  A    between atoms: C_21  and  C_22
REMARK                            x       y       z     vdW  Elec       q    Type
REMARK                         _______ _______ _______ _____ _____    ______ ____
ROOT
ATOM      1  C   UNL     1      47.340   4.456  14.709  0.00  0.00    +0.000 C 
ENDROOT
BRANCH   1   2
ATOM      2  C   UNL     1      46.371   4.496  13.553  0.00  0.00    +0.000 A 
ATOM      3  C   UNL     1      45.888   5.717  13.063  0.00  0.00    +0.000 A 
ATOM      4  C   UNL     1      45.017   5.753  11.969  0.00  0.00    +0.000 A 
ATOM      5  C   UNL     1      44.600   4.568  11.343  0.00  0.00    +0.000 A 
ATOM      6  C   UNL     1      45.043   3.346  11.867  0.00  0.00    +0.000 A 
ATOM      7  C   UNL     1      45.913   3.310  12.961  0.00  0.00    +0.000 A 
BRANCH   5   8
ATOM      8  C   UNL     1      43.688   4.611  10.134  0.00  0.00    +0.000 C 
BRANCH   8   9
ATOM      9  N   UNL     1      44.146   3.691   9.094  0.00  0.00    +0.000 NA
ATOM     10  H   UNL     1      43.385   3.533   8.434  0.00  0.00    +0.000 HD
BRANCH   9  11
ATOM     11  C   UNL     1      45.301   4.221   8.373  0.00  0.00    +0.000 C 
BRANCH  11  12
ATOM     12  C   UNL     1      46.109   3.106   7.755  0.00  0.00    +0.000 A 
ATOM     13  C   UNL     1      46.927   3.331   6.643  0.00  0.00    +0.000 A 
ATOM     14  C   UNL     1      47.648   2.266   6.119  0.00  0.00    +0.000 A 
ATOM     15  N   UNL     1      47.615   1.014   6.620  0.00  0.00    +0.000 NA
ATOM     16  C   UNL     1      46.823   0.816   7.694  0.00  0.00    +0.000 A 
ATOM     17  C   UNL     1      46.068   1.814   8.291  0.00  0.00    +0.000 A 
ENDBRANCH  11  12
ENDBRANCH   9  11
ENDBRANCH   8   9
ENDBRANCH   5   8
ENDBRANCH   1   2
BRANCH   1  20
ATOM     18  C   UNL     1      48.593   6.031  16.129  0.00  0.00    +0.000 C 
ATOM     19  O   UNL     1      49.280   5.123  16.592  0.00  0.00    +0.000 OA
ATOM     20  N   UNL     1      47.620   5.779  15.201  0.00  0.00    +0.000 N 
ATOM     21  H   UNL     1      47.035   6.532  14.865  0.00  0.00    +0.000 HD
BRANCH  18  29
ATOM     22  C   UNL     1      47.664   7.818  18.920  0.00  0.00    +0.000 A 
ATOM     23  N   UNL     1      47.448   8.728  19.889  0.00  0.00    +0.000 NA
ATOM     24  C   UNL     1      47.914   9.966  19.701  0.00  0.00    +0.000 A 
ATOM     25  N   UNL     1      48.582  10.419  18.643  0.00  0.00    +0.000 NA
ATOM     26  C   UNL     1      48.785   9.476  17.707  0.00  0.00    +0.000 A 
ATOM     27  S   UNL     1      49.620   9.875  16.283  0.00  0.00    +0.000 S 
ATOM     28  C   UNL     1      49.467   8.292  15.692  0.00  0.00    +0.000 A 
ATOM     29  C   UNL     1      48.788   7.430  16.547  0.00  0.00    +0.000 A 
ATOM     30  C   UNL     1      48.376   8.147  17.753  0.00  0.00    +0.000 A 
BRANCH  22  32
ATOM     31  C   UNL     1      47.999   5.791  20.041  0.00  0.00    +0.000 C 
ATOM     32  O   UNL     1      47.204   6.534  19.122  0.00  0.00    +0.000 OA
ENDBRANCH  22  32
ENDBRANCH  18  29
ENDBRANCH   1  20
TORSDOF 8
ENDMDL
MODEL 8
REMARK VINA RESULT:    -7.071      1.861      2.419
REMARK INTER + INTRA:         -11.845
REMARK INTER:                 -10.544
REMARK INTRA:                  -1.301
REMARK UNBOUND:                -1.467
REMARK  Name = 
REMARK  9 active torsions:
REMARK  status: ('A' for Active; 'I' for Inactive)
REMARK    1  A    between atoms: C_1  and  O_2
REMARK    2  A    between atoms: O_2  and  C_3
REMARK    3  A    between atoms: C_10  and  C_11
REMARK    4  A    between atoms: N_13  and  C_14
REMARK    5  A    between atoms: C_14  and  C_15
REMARK    6  A    between atoms: C_18  and  C_19
REMARK    7  A    between atoms: C_19  and  N_20
REMARK    8  A    between atoms: N_20  and  C_21
REMARK    9  A    between atoms: C_21  and  C_22
REMARK                            x       y       z     vdW  Elec       q    Type
REMARK                         _______ _______ _______ _____ _____    ______ ____
ROOT
ATOM      1  C   UNL     1      46.817   8.005  13.553  0.00  0.00    +0.000 C 
ENDROOT
BRANCH   1   2
ATOM      2  C   UNL     1      46.093   6.876  12.861  0.00  0.00    +0.000 A 
ATOM      3  C   UNL     1      46.293   5.547  13.257  0.00  0.00    +0.000 A 
ATOM      4  C   UNL     1      45.594   4.505  12.636  0.00  0.00    +0.000 A 
ATOM      5  C   UNL     1      44.685   4.766  11.600  0.00  0.00    +0.000 A 
ATOM      6  C   UNL     1      44.525   6.091  11.172  0.00  0.00    +0.000 A 
ATOM      7  C   UNL     1      45.225   7.133  11.791  0.00  0.00    +0.000 A 
BRANCH   5   8
ATOM      8  C   UNL     1      43.901   3.642  10.957  0.00  0.00    +0.000 C 
BRANCH   8   9
ATOM      9  N   UNL     1      44.778   2.534  10.579  0.00  0.00    +0.000 NA
ATOM     10  H   UNL     1      44.653   1.772  11.245  0.00  0.00    +0.000 HD
BRANCH   9  11
ATOM     11  C   UNL     1      44.482   2.045   9.233  0.00  0.00    +0.000 C 
BRANCH  11  12
ATOM     12  C   UNL     1      45.657   2.261   8.311  0.00  0.00    +0.000 A 
ATOM     13  C   UNL     1      45.957   3.528   7.801  0.00  0.00    +0.000 A 
ATOM     14  C   UNL     1      47.052   3.666   6.958  0.00  0.00    +0.000 A 
ATOM     15  N   UNL     1      47.858   2.646   6.598  0.00  0.00    +0.000 NA
ATOM     16  C   UNL     1      47.555   1.432   7.101  0.00  0.00    +0.000 A 
ATOM     17  C   UNL     1      46.487   1.194   7.952  0.00  0.00    +0.000 A 
ENDBRANCH  11  12
ENDBRANCH   9  11
ENDBRANCH   8   9
ENDBRANCH   5   8
ENDBRANCH   1   2
BRANCH   1  20
ATOM     18  C   UNL     1      48.944   8.409  14.728  0.00  0.00    +0.000 C 
ATOM     19  O   UNL     1      48.697   9.608  14.838  0.00  0.00    +0.000 OA
ATOM     20  N   UNL     1      48.068   7.560  14.108  0.00  0.00    +0.000 N 
ATOM     21  H   UNL     1      48.308   6.586  13.987  0.00  0.00    +0.000 HD
BRANCH  18  29
ATOM     22  C   UNL     1      49.626   5.659  16.681  0.00  0.00    +0.000 A 
ATOM     23  N   UNL     1      50.165   4.656  17.402  0.00  0.00    +0.000 NA
ATOM     24  C   UNL     1      51.492   4.641  17.557  0.00  0.00    +0.000 A 
ATOM     25  N   UNL     1      52.367   5.518  17.073  0.00  0.00    +0.000 NA
ATOM     26  C   UNL     1      51.788   6.494  16.351  0.00  0.00    +0.000 A 
ATOM     27  S   UNL     1      52.752   7.707  15.657  0.00  0.00    +0.000 S 
ATOM     28  C   UNL     1      51.394   8.468  14.982  0.00  0.00    +0.000 A 
ATOM     29  C   UNL     1      50.189   7.830  15.261  0.00  0.00    +0.000 A 
ATOM     30  C   UNL     1      50.431   6.649  16.089  0.00  0.00    +0.000 A 
BRANCH  22  32
ATOM     31  C   UNL     1      47.691   4.359  16.471  0.00  0.00    +0.000 C 
ATOM     32  O   UNL     1      48.260   5.665  16.500  0.00  0.00    +0.000 OA
ENDBRANCH  22  32
ENDBRANCH  18  29
ENDBRANCH   1  20
TORSDOF 8
ENDMDL
MODEL 9
REMARK VINA RESULT:    -6.646      4.563      9.119
REMARK INTER + INTRA:         -11.221
REMARK INTER:                 -10.178
REMARK INTRA:                  -1.043
REMARK UNBOUND:                -1.467
REMARK  Name = 
REMARK  9 active torsions:
REMARK  status: ('A' for Active; 'I' for Inactive)
REMARK    1  A    between atoms: C_1  and  O_2
REMARK    2  A    between atoms: O_2  and  C_3
REMARK    3  A    between atoms: C_10  and  C_11
REMARK    4  A    between atoms: N_13  and  C_14
REMARK    5  A    between atoms: C_14  and  C_15
REMARK    6  A    between atoms: C_18  and  C_19
REMARK    7  A    between atoms: C_19  and  N_20
REMARK    8  A    between atoms: N_20  and  C_21
REMARK    9  A    between atoms: C_21  and  C_22
REMARK                            x       y       z     vdW  Elec       q    Type
REMARK                         _______ _______ _______ _____ _____    ______ ____
ROOT
ATOM      1  C   UNL     1      47.193   3.379  16.784  0.00  0.00    +0.000 C 
ENDROOT
BRANCH   1   2
ATOM      2  C   UNL     1      48.658   3.341  17.146  0.00  0.00    +0.000 A 
ATOM      3  C   UNL     1      49.413   2.175  16.960  0.00  0.00    +0.000 A 
ATOM      4  C   UNL     1      50.778   2.153  17.264  0.00  0.00    +0.000 A 
ATOM      5  C   UNL     1      51.421   3.294  17.767  0.00  0.00    +0.000 A 
ATOM      6  C   UNL     1      50.654   4.443  18.000  0.00  0.00    +0.000 A 
ATOM      7  C   UNL     1      49.288   4.465  17.698  0.00  0.00    +0.000 A 
BRANCH   5   8
ATOM      8  C   UNL     1      52.908   3.280  18.057  0.00  0.00    +0.000 C 
BRANCH   8   9
ATOM      9  N   UNL     1      53.255   2.206  18.987  0.00  0.00    +0.000 NA
ATOM     10  H   UNL     1      52.654   1.404  18.805  0.00  0.00    +0.000 HD
BRANCH   9  11
ATOM     11  C   UNL     1      54.652   1.799  18.844  0.00  0.00    +0.000 C 
BRANCH  11  12
ATOM     12  C   UNL     1      54.754   0.450  18.173  0.00  0.00    +0.000 A 
ATOM     13  C   UNL     1      54.866  -0.727  18.919  0.00  0.00    +0.000 A 
ATOM     14  C   UNL     1      54.954  -1.938  18.245  0.00  0.00    +0.000 A 
ATOM     15  N   UNL     1      54.934  -2.056  16.901  0.00  0.00    +0.000 NA
ATOM     16  C   UNL     1      54.823  -0.910  16.198  0.00  0.00    +0.000 A 
ATOM     17  C   UNL     1      54.725   0.345  16.778  0.00  0.00    +0.000 A 
ENDBRANCH  11  12
ENDBRANCH   9  11
ENDBRANCH   8   9
ENDBRANCH   5   8
ENDBRANCH   1   2
BRANCH   1  20
ATOM     18  C   UNL     1      46.946   4.215  14.480  0.00  0.00    +0.000 C 
ATOM     19  O   UNL     1      47.213   3.110  14.013  0.00  0.00    +0.000 OA
ATOM     20  N   UNL     1      46.918   4.423  15.832  0.00  0.00    +0.000 N 
ATOM     21  H   UNL     1      46.740   5.349  16.198  0.00  0.00    +0.000 HD
BRANCH  18  29
ATOM     22  C   UNL     1      44.162   5.141  12.682  0.00  0.00    +0.000 A 
ATOM     23  N   UNL     1      43.225   5.736  11.917  0.00  0.00    +0.000 NA
ATOM     24  C   UNL     1      43.545   6.887  11.319  0.00  0.00    +0.000 A 
ATOM     25  N   UNL     1      44.706   7.531  11.388  0.00  0.00    +0.000 NA
ATOM     26  C   UNL     1      45.607   6.909  12.169  0.00  0.00    +0.000 A 
ATOM     27  S   UNL     1      47.150   7.587  12.372  0.00  0.00    +0.000 S 
ATOM     28  C   UNL     1      47.625   6.321  13.397  0.00  0.00    +0.000 A 
ATOM     29  C   UNL     1      46.639   5.363  13.610  0.00  0.00    +0.000 A 
ATOM     30  C   UNL     1      45.431   5.718  12.865  0.00  0.00    +0.000 A 
BRANCH  22  32
ATOM     31  C   UNL     1      43.731   2.853  12.434  0.00  0.00    +0.000 C 
ATOM     32  O   UNL     1      43.827   3.965  13.319  0.00  0.00    +0.000 OA
ENDBRANCH  22  32
ENDBRANCH  18  29
ENDBRANCH   1  20
TORSDOF 8
ENDMDL
