MODEL 1
REMARK VINA RESULT:    -9.055      0.000      0.000
REMARK INTER + INTRA:         -11.748
REMARK INTER:                 -11.173
REMARK INTRA:                  -0.576
REMARK UNBOUND:                -0.576
REMARK  Name = 
REMARK  4 active torsions:
REMARK  status: ('A' for Active; 'I' for Inactive)
REMARK    1  A    between atoms: C_2  and  C_4
REMARK    2  A    between atoms: C_7  and  O_8
REMARK    3  A    between atoms: O_8  and  C_9
REMARK    4  A    between atoms: C_9  and  C_10
REMARK                            x       y       z     vdW  Elec       q    Type
REMARK                         _______ _______ _______ _____ _____    ______ ____
ROOT
ATOM      1  C   UNL     1      44.524   5.881  10.707  0.00  0.00    +0.000 C 
ENDROOT
BRANCH   1   2
ATOM      2  C   UNL     1      44.276   5.983  12.220  0.00  0.00    +0.000 C 
ATOM      3  C   UNL     1      45.283   6.920  12.911  0.00  0.00    +0.000 C 
ATOM      4  C   UNL     1      46.683   6.311  12.987  0.00  0.00    +0.000 C 
ATOM      5  N   UNL     1      46.600   4.993  13.600  0.00  0.00    +0.000 N 
ATOM      6  C   UNL     1      47.293   4.708  14.750  0.00  0.00    +0.000 A 
ATOM      7  N   UNL     1      48.014   5.681  15.336  0.00  0.00    +0.000 NA
ATOM      8  C   UNL     1      48.683   5.384  16.464  0.00  0.00    +0.000 A 
ATOM      9  C   UNL     1      48.677   4.144  17.043  0.00  0.00    +0.000 A 
ATOM     10  C   UNL     1      47.923   3.208  16.387  0.00  0.00    +0.000 A 
ATOM     11  N   UNL     1      47.233   3.465  15.259  0.00  0.00    +0.000 NA
ATOM     12  C   UNL     1      45.722   4.012  12.989  0.00  0.00    +0.000 C 
ATOM     13  C   UNL     1      44.308   4.591  12.883  0.00  0.00    +0.000 C 
ENDBRANCH   1   2
BRANCH   1  14
ATOM     14  O   UNL     1      43.932   4.680  10.200  0.00  0.00    +0.000 OA
BRANCH  14  18
ATOM     15  C   UNL     1      46.439   2.455   7.712  0.00  0.00    +0.000 A 
ATOM     16  C   UNL     1      45.616   1.778   8.618  0.00  0.00    +0.000 A 
ATOM     17  C   UNL     1      44.768   2.492   9.466  0.00  0.00    +0.000 A 
ATOM     18  C   UNL     1      44.737   3.887   9.426  0.00  0.00    +0.000 A 
ATOM     19  C   UNL     1      45.582   4.563   8.540  0.00  0.00    +0.000 A 
ATOM     20  C   UNL     1      46.437   3.852   7.688  0.00  0.00    +0.000 A 
BRANCH  15  22
ATOM     21  N   UNL     1      48.398   2.391   6.274  0.00  0.00    +0.000 N 
ATOM     22  C   UNL     1      47.334   1.704   6.794  0.00  0.00    +0.000 C 
ATOM     23  O   UNL     1      47.155   0.522   6.537  0.00  0.00    +0.000 OA
ATOM     24  H   UNL     1      49.057   1.856   5.722  0.00  0.00    +0.000 HD
ATOM     25  H   UNL     1      48.717   3.272   6.658  0.00  0.00    +0.000 HD
ENDBRANCH  15  22
ENDBRANCH  14  18
ENDBRANCH   1  14
TORSDOF 4
ENDMDL
MODEL 2
REMARK VINA RESULT:    -8.476      2.687      4.003
REMARK INTER + INTRA:         -11.034
REMARK INTER:                 -11.067
REMARK INTRA:                   0.033
REMARK UNBOUND:                -0.576
REMARK  Name = 
REMARK  4 active torsions:
REMARK  status: ('A' for Active; 'I' for Inactive)
REMARK    1  A    between atoms: C_2  and  C_4
REMARK    2  A    between atoms: C_7  and  O_8
REMARK    3  A    between atoms: O_8  and  C_9
REMARK    4  A    between atoms: C_9  and  C_10
REMARK                            x       y       z     vdW  Elec       q    Type
REMARK                         _______ _______ _______ _____ _____    ______ ____
ROOT
ATOM      1  C   UNL     1      43.660   3.037  11.699  0.00  0.00    +0.000 C 
ENDROOT
BRANCH   1   2
ATOM      2  C   UNL     1      43.456   4.192  12.691  0.00  0.00    +0.000 C 
ATOM      3  C   UNL     1      42.621   5.335  12.087  0.00  0.00    +0.000 C 
ATOM      4  C   UNL     1      43.396   6.124  11.032  0.00  0.00    +0.000 C 
ATOM      5  N   UNL     1      44.662   6.566  11.598  0.00  0.00    +0.000 N 
ATOM      6  C   UNL     1      44.976   7.901  11.659  0.00  0.00    +0.000 A 
ATOM      7  N   UNL     1      44.074   8.804  11.235  0.00  0.00    +0.000 NA
ATOM      8  C   UNL     1      44.398  10.108  11.307  0.00  0.00    +0.000 A 
ATOM      9  C   UNL     1      45.599  10.563  11.779  0.00  0.00    +0.000 A 
ATOM     10  C   UNL     1      46.463   9.585  12.190  0.00  0.00    +0.000 A 
ATOM     11  N   UNL     1      46.176   8.270  12.141  0.00  0.00    +0.000 NA
ATOM     12  C   UNL     1      45.553   5.559  12.142  0.00  0.00    +0.000 C 
ATOM     13  C   UNL     1      44.808   4.736  13.197  0.00  0.00    +0.000 C 
ENDBRANCH   1   2
BRANCH   1  14
ATOM     14  O   UNL     1      43.491   3.517  10.360  0.00  0.00    +0.000 OA
BRANCH  14  18
ATOM     15  C   UNL     1      46.413   2.616   7.517  0.00  0.00    +0.000 A 
ATOM     16  C   UNL     1      45.919   1.587   8.325  0.00  0.00    +0.000 A 
ATOM     17  C   UNL     1      44.944   1.855   9.286  0.00  0.00    +0.000 A 
ATOM     18  C   UNL     1      44.457   3.151   9.459  0.00  0.00    +0.000 A 
ATOM     19  C   UNL     1      44.973   4.185   8.670  0.00  0.00    +0.000 A 
ATOM     20  C   UNL     1      45.953   3.922   7.705  0.00  0.00    +0.000 A 
BRANCH  15  22
ATOM     21  N   UNL     1      47.411   3.127   5.360  0.00  0.00    +0.000 N 
ATOM     22  C   UNL     1      47.440   2.340   6.480  0.00  0.00    +0.000 C 
ATOM     23  O   UNL     1      48.293   1.476   6.626  0.00  0.00    +0.000 OA
ATOM     24  H   UNL     1      48.164   3.000   4.696  0.00  0.00    +0.000 HD
ATOM     25  H   UNL     1      46.897   3.999   5.321  0.00  0.00    +0.000 HD
ENDBRANCH  15  22
ENDBRANCH  14  18
ENDBRANCH   1  14
TORSDOF 4
ENDMDL
MODEL 3
REMARK VINA RESULT:    -8.359      1.628      2.285
REMARK INTER + INTRA:         -10.889
REMARK INTER:                 -10.486
REMARK INTRA:                  -0.402
REMARK UNBOUND:                -0.576
REMARK  Name = 
REMARK  4 active torsions:
REMARK  status: ('A' for Active; 'I' for Inactive)
REMARK    1  A    between atoms: C_2  and  C_4
REMARK    2  A    between atoms: C_7  and  O_8
REMARK    3  A    between atoms: O_8  and  C_9
REMARK    4  A    between atoms: C_9  and  C_10
REMARK                            x       y       z     vdW  Elec       q    Type
REMARK                         _______ _______ _______ _____ _____    ______ ____
ROOT
ATOM      1  C   UNL     1      43.404   4.414  11.041  0.00  0.00    +0.000 C 
ENDROOT
BRANCH   1   2
ATOM      2  C   UNL     1      43.633   5.617  11.968  0.00  0.00    +0.000 C 
ATOM      3  C   UNL     1      44.588   6.653  11.348  0.00  0.00    +0.000 C 
ATOM      4  C   UNL     1      46.034   6.160  11.313  0.00  0.00    +0.000 C 
ATOM      5  N   UNL     1      46.428   5.733  12.647  0.00  0.00    +0.000 N 
ATOM      6  C   UNL     1      47.494   6.317  13.286  0.00  0.00    +0.000 A 
ATOM      7  N   UNL     1      48.143   7.328  12.682  0.00  0.00    +0.000 NA
ATOM      8  C   UNL     1      49.182   7.890  13.324  0.00  0.00    +0.000 A 
ATOM      9  C   UNL     1      49.620   7.482  14.555  0.00  0.00    +0.000 A 
ATOM     10  C   UNL     1      48.911   6.448  15.103  0.00  0.00    +0.000 A 
ATOM     11  N   UNL     1      47.860   5.862  14.497  0.00  0.00    +0.000 NA
ATOM     12  C   UNL     1      45.627   4.714  13.300  0.00  0.00    +0.000 C 
ATOM     13  C   UNL     1      44.165   5.166  13.345  0.00  0.00    +0.000 C 
ENDBRANCH   1   2
BRANCH   1  14
ATOM     14  O   UNL     1      43.763   4.763   9.700  0.00  0.00    +0.000 OA
BRANCH  14  18
ATOM     15  C   UNL     1      46.265   1.959   7.882  0.00  0.00    +0.000 A 
ATOM     16  C   UNL     1      46.391   3.305   7.525  0.00  0.00    +0.000 A 
ATOM     17  C   UNL     1      45.568   4.267   8.112  0.00  0.00    +0.000 A 
ATOM     18  C   UNL     1      44.606   3.898   9.054  0.00  0.00    +0.000 A 
ATOM     19  C   UNL     1      44.462   2.547   9.389  0.00  0.00    +0.000 A 
ATOM     20  C   UNL     1      45.284   1.577   8.801  0.00  0.00    +0.000 A 
BRANCH  15  22
ATOM     21  N   UNL     1      46.927  -0.370   7.654  0.00  0.00    +0.000 N 
ATOM     22  C   UNL     1      47.146   0.928   7.276  0.00  0.00    +0.000 C 
ATOM     23  O   UNL     1      48.006   1.212   6.454  0.00  0.00    +0.000 OA
ATOM     24  H   UNL     1      47.465  -1.080   7.174  0.00  0.00    +0.000 HD
ATOM     25  H   UNL     1      46.077  -0.663   8.121  0.00  0.00    +0.000 HD
ENDBRANCH  15  22
ENDBRANCH  14  18
ENDBRANCH   1  14
TORSDOF 4
ENDMDL
MODEL 4
REMARK VINA RESULT:    -7.685      0.989      2.154
REMARK INTER + INTRA:         -10.057
REMARK INTER:                  -9.967
REMARK INTRA:                  -0.090
REMARK UNBOUND:                -0.576
REMARK  Name = 
REMARK  4 active torsions:
REMARK  status: ('A' for Active; 'I' for Inactive)
REMARK    1  A    between atoms: C_2  and  C_4
REMARK    2  A    between atoms: C_7  and  O_8
REMARK    3  A    between atoms: O_8  and  C_9
REMARK    4  A    between atoms: C_9  and  C_10
REMARK                            x       y       z     vdW  Elec       q    Type
REMARK                         _______ _______ _______ _____ _____    ______ ____
ROOT
ATOM      1  C   UNL     1      44.301   5.271  11.312  0.00  0.00    +0.000 C 
ENDROOT
BRANCH   1   2
ATOM      2  C   UNL     1      45.790   4.905  11.422  0.00  0.00    +0.000 C 
ATOM      3  C   UNL     1      46.071   3.977  12.617  0.00  0.00    +0.000 C 
ATOM      4  C   UNL     1      45.953   4.704  13.957  0.00  0.00    +0.000 C 
ATOM      5  N   UNL     1      46.793   5.892  13.933  0.00  0.00    +0.000 N 
ATOM      6  C   UNL     1      47.800   6.059  14.852  0.00  0.00    +0.000 A 
ATOM      7  N   UNL     1      48.036   5.083  15.746  0.00  0.00    +0.000 NA
ATOM      8  C   UNL     1      49.029   5.262  16.636  0.00  0.00    +0.000 A 
ATOM      9  C   UNL     1      49.806   6.387  16.684  0.00  0.00    +0.000 A 
ATOM     10  C   UNL     1      49.504   7.334  15.744  0.00  0.00    +0.000 A 
ATOM     11  N   UNL     1      48.523   7.192  14.832  0.00  0.00    +0.000 NA
ATOM     12  C   UNL     1      46.569   6.864  12.880  0.00  0.00    +0.000 C 
ATOM     13  C   UNL     1      46.668   6.170  11.518  0.00  0.00    +0.000 C 
ENDBRANCH   1   2
BRANCH   1  14
ATOM     14  O   UNL     1      43.720   4.594  10.192  0.00  0.00    +0.000 OA
BRANCH  14  18
ATOM     15  C   UNL     1      46.325   2.361   7.813  0.00  0.00    +0.000 A 
ATOM     16  C   UNL     1      46.313   3.753   7.676  0.00  0.00    +0.000 A 
ATOM     17  C   UNL     1      45.453   4.529   8.455  0.00  0.00    +0.000 A 
ATOM     18  C   UNL     1      44.589   3.925   9.370  0.00  0.00    +0.000 A 
ATOM     19  C   UNL     1      44.581   2.531   9.485  0.00  0.00    +0.000 A 
ATOM     20  C   UNL     1      45.441   1.748   8.706  0.00  0.00    +0.000 A 
BRANCH  15  22
ATOM     21  N   UNL     1      48.339   2.158   6.466  0.00  0.00    +0.000 N 
ATOM     22  C   UNL     1      47.248   1.527   7.002  0.00  0.00    +0.000 C 
ATOM     23  O   UNL     1      47.068   0.328   6.844  0.00  0.00    +0.000 OA
ATOM     24  H   UNL     1      49.014   1.573   5.990  0.00  0.00    +0.000 HD
ATOM     25  H   UNL     1      48.650   3.068   6.783  0.00  0.00    +0.000 HD
ENDBRANCH  15  22
ENDBRANCH  14  18
ENDBRANCH   1  14
TORSDOF 4
ENDMDL
MODEL 5
REMARK VINA RESULT:    -6.897      3.098      6.948
REMARK INTER + INTRA:          -9.086
REMARK INTER:                  -8.750
REMARK INTRA:                  -0.336
REMARK UNBOUND:                -0.576
REMARK  Name = 
REMARK  4 active torsions:
REMARK  status: ('A' for Active; 'I' for Inactive)
REMARK    1  A    between atoms: C_2  and  C_4
REMARK    2  A    between atoms: C_7  and  O_8
REMARK    3  A    between atoms: O_8  and  C_9
REMARK    4  A    between atoms: C_9  and  C_10
REMARK                            x       y       z     vdW  Elec       q    Type
REMARK                         _______ _______ _______ _____ _____    ______ ____
ROOT
ATOM      1  C   UNL     1      43.563   4.910  12.868  0.00  0.00    +0.000 C 
ENDROOT
BRANCH   1   2
ATOM      2  C   UNL     1      43.027   4.279  11.574  0.00  0.00    +0.000 C 
ATOM      3  C   UNL     1      43.503   2.826  11.398  0.00  0.00    +0.000 C 
ATOM      4  C   UNL     1      44.990   2.740  11.052  0.00  0.00    +0.000 C 
ATOM      5  N   UNL     1      45.263   3.585   9.899  0.00  0.00    +0.000 N 
ATOM      6  C   UNL     1      45.795   3.054   8.749  0.00  0.00    +0.000 A 
ATOM      7  N   UNL     1      46.013   1.729   8.682  0.00  0.00    +0.000 NA
ATOM      8  C   UNL     1      46.530   1.226   7.547  0.00  0.00    +0.000 A 
ATOM      9  C   UNL     1      46.854   1.992   6.460  0.00  0.00    +0.000 A 
ATOM     10  C   UNL     1      46.604   3.330   6.606  0.00  0.00    +0.000 A 
ATOM     11  N   UNL     1      46.081   3.873   7.722  0.00  0.00    +0.000 NA
ATOM     12  C   UNL     1      44.907   4.989   9.983  0.00  0.00    +0.000 C 
ATOM     13  C   UNL     1      43.424   5.117  10.341  0.00  0.00    +0.000 C 
ENDBRANCH   1   2
BRANCH   1  14
ATOM     14  O   UNL     1      43.951   6.266  12.619  0.00  0.00    +0.000 OA
BRANCH  14  18
ATOM     15  C   UNL     1      47.939   7.027  13.591  0.00  0.00    +0.000 A 
ATOM     16  C   UNL     1      47.138   8.087  13.154  0.00  0.00    +0.000 A 
ATOM     17  C   UNL     1      45.802   7.866  12.819  0.00  0.00    +0.000 A 
ATOM     18  C   UNL     1      45.252   6.586  12.907  0.00  0.00    +0.000 A 
ATOM     19  C   UNL     1      46.062   5.521  13.317  0.00  0.00    +0.000 A 
ATOM     20  C   UNL     1      47.404   5.737  13.653  0.00  0.00    +0.000 A 
BRANCH  15  22
ATOM     21  N   UNL     1      50.231   7.515  12.944  0.00  0.00    +0.000 N 
ATOM     22  C   UNL     1      49.359   7.253  13.966  0.00  0.00    +0.000 C 
ATOM     23  O   UNL     1      49.731   7.241  15.131  0.00  0.00    +0.000 OA
ATOM     24  H   UNL     1      51.178   7.759  13.207  0.00  0.00    +0.000 HD
ATOM     25  H   UNL     1      49.920   7.783  12.019  0.00  0.00    +0.000 HD
ENDBRANCH  15  22
ENDBRANCH  14  18
ENDBRANCH   1  14
TORSDOF 4
ENDMDL
MODEL 6
REMARK VINA RESULT:    -6.168      1.758      2.783
REMARK INTER + INTRA:          -8.186
REMARK INTER:                  -7.905
REMARK INTRA:                  -0.281
REMARK UNBOUND:                -0.576
REMARK  Name = 
REMARK  4 active torsions:
REMARK  status: ('A' for Active; 'I' for Inactive)
REMARK    1  A    between atoms: C_2  and  C_4
REMARK    2  A    between atoms: C_7  and  O_8
REMARK    3  A    between atoms: O_8  and  C_9
REMARK    4  A    between atoms: C_9  and  C_10
REMARK                            x       y       z     vdW  Elec       q    Type
REMARK                         _______ _______ _______ _____ _____    ______ ____
ROOT
ATOM      1  C   UNL     1      45.456   5.914  13.013  0.00  0.00    +0.000 C 
ENDROOT
BRANCH   1   2
ATOM      2  C   UNL     1      46.822   5.215  12.938  0.00  0.00    +0.000 C 
ATOM      3  C   UNL     1      46.920   4.030  13.916  0.00  0.00    +0.000 C 
ATOM      4  C   UNL     1      47.018   4.486  15.372  0.00  0.00    +0.000 C 
ATOM      5  N   UNL     1      48.109   5.440  15.503  0.00  0.00    +0.000 N 
ATOM      6  C   UNL     1      49.157   5.195  16.356  0.00  0.00    +0.000 A 
ATOM      7  N   UNL     1      49.189   4.035  17.035  0.00  0.00    +0.000 NA
ATOM      8  C   UNL     1      50.226   3.811  17.862  0.00  0.00    +0.000 A 
ATOM      9  C   UNL     1      51.243   4.705  18.058  0.00  0.00    +0.000 A 
ATOM     10  C   UNL     1      51.139   5.862  17.334  0.00  0.00    +0.000 A 
ATOM     11  N   UNL     1      50.122   6.122  16.490  0.00  0.00    +0.000 NA
ATOM     12  C   UNL     1      48.082   6.626  14.667  0.00  0.00    +0.000 C 
ATOM     13  C   UNL     1      47.972   6.210  13.198  0.00  0.00    +0.000 C 
ENDBRANCH   1   2
BRANCH   1  14
ATOM     14  O   UNL     1      44.488   5.164  12.270  0.00  0.00    +0.000 OA
BRANCH  14  18
ATOM     15  C   UNL     1      45.823   3.700   8.595  0.00  0.00    +0.000 A 
ATOM     16  C   UNL     1      45.353   2.793   9.551  0.00  0.00    +0.000 A 
ATOM     17  C   UNL     1      44.902   3.250  10.790  0.00  0.00    +0.000 A 
ATOM     18  C   UNL     1      44.923   4.612  11.094  0.00  0.00    +0.000 A 
ATOM     19  C   UNL     1      45.420   5.515  10.148  0.00  0.00    +0.000 A 
ATOM     20  C   UNL     1      45.875   5.062   8.903  0.00  0.00    +0.000 A 
BRANCH  15  22
ATOM     21  N   UNL     1      46.564   1.890   7.150  0.00  0.00    +0.000 N 
ATOM     22  C   UNL     1      46.290   3.227   7.267  0.00  0.00    +0.000 C 
ATOM     23  O   UNL     1      46.395   3.982   6.311  0.00  0.00    +0.000 OA
ATOM     24  H   UNL     1      46.795   1.554   6.224  0.00  0.00    +0.000 HD
ATOM     25  H   UNL     1      46.248   1.210   7.830  0.00  0.00    +0.000 HD
ENDBRANCH  15  22
ENDBRANCH  14  18
ENDBRANCH   1  14
TORSDOF 4
ENDMDL
