MODEL 1
REMARK VINA RESULT:    -8.169      0.000      0.000
REMARK INTER + INTRA:         -10.470
REMARK INTER:                 -10.080
REMARK INTRA:                  -0.390
REMARK UNBOUND:                -0.390
REMARK  Name = 
REMARK  4 active torsions:
REMARK  status: ('A' for Active; 'I' for Inactive)
REMARK    1  A    between atoms: C_2  and  C_3
REMARK    2  A    between atoms: C_6  and  C_7
REMARK    3  A    between atoms: C_7  and  N_8
REMARK    4  A    between atoms: C_10  and  C_11
REMARK                            x       y       z     vdW  Elec       q    Type
REMARK                         _______ _______ _______ _____ _____    ______ ____
ROOT
ATOM      1  N   UNL     1      44.746   4.492  11.523  0.00  0.00    +0.000 N 
ATOM      2  C   UNL     1      45.381   3.582  12.337  0.00  0.00    +0.000 A 
ATOM      3  C   UNL     1      46.167   4.282  13.227  0.00  0.00    +0.000 A 
ATOM      4  C   UNL     1      46.022   5.669  12.942  0.00  0.00    +0.000 A 
ATOM      5  C   UNL     1      46.594   6.846  13.472  0.00  0.00    +0.000 A 
ATOM      6  C   UNL     1      46.248   8.089  12.932  0.00  0.00    +0.000 A 
ATOM      7  C   UNL     1      45.329   8.175  11.890  0.00  0.00    +0.000 A 
ATOM      8  C   UNL     1      44.740   7.026  11.354  0.00  0.00    +0.000 A 
ATOM      9  C   UNL     1      45.112   5.778  11.883  0.00  0.00    +0.000 A 
ENDROOT
BRANCH   3  10
ATOM     10  C   UNL     1      47.004   3.690  14.225  0.00  0.00    +0.000 C 
ATOM     11  N   UNL     1      47.684   3.201  15.029  0.00  0.00    +0.000 NA
ENDBRANCH   3  10
BRANCH   1  12
ATOM     12  C   UNL     1      43.981   4.132  10.335  0.00  0.00    +0.000 C 
BRANCH  12  16
ATOM     13  C   UNL     1      46.578   2.489   7.373  0.00  0.00    +0.000 A 
ATOM     14  C   UNL     1      45.959   1.627   8.277  0.00  0.00    +0.000 A 
ATOM     15  C   UNL     1      45.064   2.141   9.218  0.00  0.00    +0.000 A 
ATOM     16  C   UNL     1      44.824   3.515   9.247  0.00  0.00    +0.000 A 
ATOM     17  N   UNL     1      45.410   4.363   8.361  0.00  0.00    +0.000 NA
ATOM     18  C   UNL     1      46.259   3.835   7.445  0.00  0.00    +0.000 A 
BRANCH  13  20
ATOM     19  N   UNL     1      48.292   1.640   5.631  0.00  0.00    +0.000 NA
ATOM     20  C   UNL     1      47.527   2.015   6.417  0.00  0.00    +0.000 C 
ENDBRANCH  13  20
ENDBRANCH  12  16
ENDBRANCH   1  12
TORSDOF 4
ENDMDL
MODEL 2
REMARK VINA RESULT:    -7.473      1.316      2.842
REMARK INTER + INTRA:          -9.611
REMARK INTER:                  -9.100
REMARK INTRA:                  -0.512
REMARK UNBOUND:                -0.390
REMARK  Name = 
REMARK  4 active torsions:
REMARK  status: ('A' for Active; 'I' for Inactive)
REMARK    1  A    between atoms: C_2  and  C_3
REMARK    2  A    between atoms: C_6  and  C_7
REMARK    3  A    between atoms: C_7  and  N_8
REMARK    4  A    between atoms: C_10  and  C_11
REMARK                            x       y       z     vdW  Elec       q    Type
REMARK                         _______ _______ _______ _____ _____    ______ ____
ROOT
ATOM      1  N   UNL     1      44.795   5.079  11.079  0.00  0.00    +0.000 N 
ATOM      2  C   UNL     1      44.604   6.441  11.028  0.00  0.00    +0.000 A 
ATOM      3  C   UNL     1      45.292   7.007  12.080  0.00  0.00    +0.000 A 
ATOM      4  C   UNL     1      45.914   5.957  12.812  0.00  0.00    +0.000 A 
ATOM      5  C   UNL     1      46.699   5.907  13.985  0.00  0.00    +0.000 A 
ATOM      6  C   UNL     1      47.145   4.672  14.468  0.00  0.00    +0.000 A 
ATOM      7  C   UNL     1      46.840   3.497  13.790  0.00  0.00    +0.000 A 
ATOM      8  C   UNL     1      46.074   3.518  12.620  0.00  0.00    +0.000 A 
ATOM      9  C   UNL     1      45.606   4.759  12.154  0.00  0.00    +0.000 A 
ENDROOT
BRANCH   3  10
ATOM     10  C   UNL     1      45.322   8.405  12.384  0.00  0.00    +0.000 C 
ATOM     11  N   UNL     1      45.342   9.541  12.622  0.00  0.00    +0.000 NA
ENDBRANCH   3  10
BRANCH   1  12
ATOM     12  C   UNL     1      44.072   4.121  10.249  0.00  0.00    +0.000 C 
BRANCH  12  16
ATOM     13  C   UNL     1      46.689   2.502   7.291  0.00  0.00    +0.000 A 
ATOM     14  C   UNL     1      46.094   1.637   8.209  0.00  0.00    +0.000 A 
ATOM     15  C   UNL     1      45.193   2.143   9.149  0.00  0.00    +0.000 A 
ATOM     16  C   UNL     1      44.923   3.511   9.163  0.00  0.00    +0.000 A 
ATOM     17  N   UNL     1      45.486   4.362   8.265  0.00  0.00    +0.000 NA
ATOM     18  C   UNL     1      46.341   3.842   7.351  0.00  0.00    +0.000 A 
BRANCH  13  20
ATOM     19  N   UNL     1      48.406   1.653   5.553  0.00  0.00    +0.000 NA
ATOM     20  C   UNL     1      47.643   2.038   6.335  0.00  0.00    +0.000 C 
ENDBRANCH  13  20
ENDBRANCH  12  16
ENDBRANCH   1  12
TORSDOF 4
ENDMDL
MODEL 3
REMARK VINA RESULT:    -5.807      2.011      2.957
REMARK INTER + INTRA:          -7.556
REMARK INTER:                  -7.147
REMARK INTRA:                  -0.409
REMARK UNBOUND:                -0.390
REMARK  Name = 
REMARK  4 active torsions:
REMARK  status: ('A' for Active; 'I' for Inactive)
REMARK    1  A    between atoms: C_2  and  C_3
REMARK    2  A    between atoms: C_6  and  C_7
REMARK    3  A    between atoms: C_7  and  N_8
REMARK    4  A    between atoms: C_10  and  C_11
REMARK                            x       y       z     vdW  Elec       q    Type
REMARK                         _______ _______ _______ _____ _____    ______ ____
ROOT
ATOM      1  N   UNL     1      45.011   7.005  12.457  0.00  0.00    +0.000 N 
ATOM      2  C   UNL     1      46.051   6.378  13.104  0.00  0.00    +0.000 A 
ATOM      3  C   UNL     1      47.077   7.288  13.241  0.00  0.00    +0.000 A 
ATOM      4  C   UNL     1      46.660   8.511  12.644  0.00  0.00    +0.000 A 
ATOM      5  C   UNL     1      47.277   9.765  12.440  0.00  0.00    +0.000 A 
ATOM      6  C   UNL     1      46.579  10.780  11.775  0.00  0.00    +0.000 A 
ATOM      7  C   UNL     1      45.277  10.569  11.333  0.00  0.00    +0.000 A 
ATOM      8  C   UNL     1      44.639   9.340  11.532  0.00  0.00    +0.000 A 
ATOM      9  C   UNL     1      45.354   8.316  12.177  0.00  0.00    +0.000 A 
ENDROOT
BRANCH   3  10
ATOM     10  C   UNL     1      48.345   7.011  13.844  0.00  0.00    +0.000 C 
ATOM     11  N   UNL     1      49.377   6.786  14.324  0.00  0.00    +0.000 NA
ENDBRANCH   3  10
BRANCH   1  12
ATOM     12  C   UNL     1      43.824   6.316  11.959  0.00  0.00    +0.000 C 
BRANCH  12  16
ATOM     13  C   UNL     1      44.977   2.925   9.639  0.00  0.00    +0.000 A 
ATOM     14  C   UNL     1      44.108   2.740  10.714  0.00  0.00    +0.000 A 
ATOM     15  C   UNL     1      43.677   3.846  11.450  0.00  0.00    +0.000 A 
ATOM     16  C   UNL     1      44.146   5.115  11.106  0.00  0.00    +0.000 A 
ATOM     17  N   UNL     1      44.981   5.308  10.052  0.00  0.00    +0.000 NA
ATOM     18  C   UNL     1      45.367   4.220   9.342  0.00  0.00    +0.000 A 
BRANCH  13  20
ATOM     19  N   UNL     1      45.884   0.922   8.275  0.00  0.00    +0.000 NA
ATOM     20  C   UNL     1      45.472   1.821   8.880  0.00  0.00    +0.000 C 
ENDBRANCH  13  20
ENDBRANCH  12  16
ENDBRANCH   1  12
TORSDOF 4
ENDMDL
MODEL 4
REMARK VINA RESULT:    -5.475      3.810      7.521
REMARK INTER + INTRA:          -7.145
REMARK INTER:                  -6.860
REMARK INTRA:                  -0.285
REMARK UNBOUND:                -0.390
REMARK  Name = 
REMARK  4 active torsions:
REMARK  status: ('A' for Active; 'I' for Inactive)
REMARK    1  A    between atoms: C_2  and  C_3
REMARK    2  A    between atoms: C_6  and  C_7
REMARK    3  A    between atoms: C_7  and  N_8
REMARK    4  A    between atoms: C_10  and  C_11
REMARK                            x       y       z     vdW  Elec       q    Type
REMARK                         _______ _______ _______ _____ _____    ______ ____
ROOT
ATOM      1  N   UNL     1      46.267   5.503  13.346  0.00  0.00    +0.000 N 
ATOM      2  C   UNL     1      46.480   6.856  13.221  0.00  0.00    +0.000 A 
ATOM      3  C   UNL     1      45.407   7.395  12.544  0.00  0.00    +0.000 A 
ATOM      4  C   UNL     1      44.511   6.336  12.229  0.00  0.00    +0.000 A 
ATOM      5  C   UNL     1      43.289   6.258  11.525  0.00  0.00    +0.000 A 
ATOM      6  C   UNL     1      42.658   5.019  11.367  0.00  0.00    +0.000 A 
ATOM      7  C   UNL     1      43.214   3.868  11.916  0.00  0.00    +0.000 A 
ATOM      8  C   UNL     1      44.417   3.919  12.626  0.00  0.00    +0.000 A 
ATOM      9  C   UNL     1      45.060   5.161  12.759  0.00  0.00    +0.000 A 
ENDROOT
BRANCH   3  10
ATOM     10  C   UNL     1      45.266   8.776  12.195  0.00  0.00    +0.000 C 
ATOM     11  N   UNL     1      45.145   9.897  11.921  0.00  0.00    +0.000 NA
ENDBRANCH   3  10
BRANCH   1  12
ATOM     12  C   UNL     1      47.268   4.559  13.833  0.00  0.00    +0.000 C 
BRANCH  12  16
ATOM     13  C   UNL     1      48.105   4.635  18.018  0.00  0.00    +0.000 A 
ATOM     14  C   UNL     1      48.644   5.632  17.206  0.00  0.00    +0.000 A 
ATOM     15  C   UNL     1      48.336   5.654  15.844  0.00  0.00    +0.000 A 
ATOM     16  C   UNL     1      47.509   4.660  15.319  0.00  0.00    +0.000 A 
ATOM     17  N   UNL     1      46.966   3.692  16.103  0.00  0.00    +0.000 NA
ATOM     18  C   UNL     1      47.265   3.707  17.425  0.00  0.00    +0.000 A 
BRANCH  13  20
ATOM     19  N   UNL     1      48.660   4.488  20.540  0.00  0.00    +0.000 NA
ATOM     20  C   UNL     1      48.419   4.551  19.408  0.00  0.00    +0.000 C 
ENDBRANCH  13  20
ENDBRANCH  12  16
ENDBRANCH   1  12
TORSDOF 4
ENDMDL
MODEL 5
REMARK VINA RESULT:    -5.363      2.895      6.183
REMARK INTER + INTRA:          -7.007
REMARK INTER:                  -6.650
REMARK INTRA:                  -0.357
REMARK UNBOUND:                -0.390
REMARK  Name = 
REMARK  4 active torsions:
REMARK  status: ('A' for Active; 'I' for Inactive)
REMARK    1  A    between atoms: C_2  and  C_3
REMARK    2  A    between atoms: C_6  and  C_7
REMARK    3  A    between atoms: C_7  and  N_8
REMARK    4  A    between atoms: C_10  and  C_11
REMARK                            x       y       z     vdW  Elec       q    Type
REMARK                         _______ _______ _______ _____ _____    ______ ____
ROOT
ATOM      1  N   UNL     1      45.332   6.253  11.364  0.00  0.00    +0.000 N 
ATOM      2  C   UNL     1      45.888   6.153  10.110  0.00  0.00    +0.000 A 
ATOM      3  C   UNL     1      45.525   4.934   9.579  0.00  0.00    +0.000 A 
ATOM      4  C   UNL     1      44.732   4.254  10.545  0.00  0.00    +0.000 A 
ATOM      5  C   UNL     1      44.121   2.982  10.596  0.00  0.00    +0.000 A 
ATOM      6  C   UNL     1      43.412   2.599  11.740  0.00  0.00    +0.000 A 
ATOM      7  C   UNL     1      43.288   3.470  12.818  0.00  0.00    +0.000 A 
ATOM      8  C   UNL     1      43.875   4.739  12.789  0.00  0.00    +0.000 A 
ATOM      9  C   UNL     1      44.608   5.107  11.648  0.00  0.00    +0.000 A 
ENDROOT
BRANCH   3  10
ATOM     10  C   UNL     1      45.926   4.446   8.294  0.00  0.00    +0.000 C 
ATOM     11  N   UNL     1      46.246   4.057   7.248  0.00  0.00    +0.000 NA
ENDBRANCH   3  10
BRANCH   1  12
ATOM     12  C   UNL     1      45.647   7.313  12.316  0.00  0.00    +0.000 C 
BRANCH  12  16
ATOM     13  C   UNL     1      49.819   8.200  12.167  0.00  0.00    +0.000 A 
ATOM     14  C   UNL     1      48.907   9.201  11.835  0.00  0.00    +0.000 A 
ATOM     15  C   UNL     1      47.537   8.944  11.931  0.00  0.00    +0.000 A 
ATOM     16  C   UNL     1      47.110   7.680  12.337  0.00  0.00    +0.000 A 
ATOM     17  N   UNL     1      47.989   6.701  12.677  0.00  0.00    +0.000 NA
ATOM     18  C   UNL     1      49.313   6.983  12.595  0.00  0.00    +0.000 A 
BRANCH  13  20
ATOM     19  N   UNL     1      52.373   8.553  11.953  0.00  0.00    +0.000 NA
ATOM     20  C   UNL     1      51.228   8.403  12.051  0.00  0.00    +0.000 C 
ENDBRANCH  13  20
ENDBRANCH  12  16
ENDBRANCH   1  12
TORSDOF 4
ENDMDL
MODEL 6
REMARK VINA RESULT:    -5.265      3.898      7.606
REMARK INTER + INTRA:          -6.887
REMARK INTER:                  -6.724
REMARK INTRA:                  -0.163
REMARK UNBOUND:                -0.390
REMARK  Name = 
REMARK  4 active torsions:
REMARK  status: ('A' for Active; 'I' for Inactive)
REMARK    1  A    between atoms: C_2  and  C_3
REMARK    2  A    between atoms: C_6  and  C_7
REMARK    3  A    between atoms: C_7  and  N_8
REMARK    4  A    between atoms: C_10  and  C_11
REMARK                            x       y       z     vdW  Elec       q    Type
REMARK                         _______ _______ _______ _____ _____    ______ ____
ROOT
ATOM      1  N   UNL     1      47.906   5.393  15.350  0.00  0.00    +0.000 N 
ATOM      2  C   UNL     1      46.945   4.462  15.029  0.00  0.00    +0.000 A 
ATOM      3  C   UNL     1      46.544   4.694  13.731  0.00  0.00    +0.000 A 
ATOM      4  C   UNL     1      47.272   5.814  13.241  0.00  0.00    +0.000 A 
ATOM      5  C   UNL     1      47.268   6.534  12.026  0.00  0.00    +0.000 A 
ATOM      6  C   UNL     1      48.114   7.637  11.872  0.00  0.00    +0.000 A 
ATOM      7  C   UNL     1      48.974   8.017  12.898  0.00  0.00    +0.000 A 
ATOM      8  C   UNL     1      49.005   7.315  14.107  0.00  0.00    +0.000 A 
ATOM      9  C   UNL     1      48.134   6.224  14.266  0.00  0.00    +0.000 A 
ENDROOT
BRANCH   3  10
ATOM     10  C   UNL     1      45.539   3.948  13.037  0.00  0.00    +0.000 C 
ATOM     11  N   UNL     1      44.717   3.345  12.481  0.00  0.00    +0.000 NA
ENDBRANCH   3  10
BRANCH   1  12
ATOM     12  C   UNL     1      48.434   5.593  16.696  0.00  0.00    +0.000 C 
BRANCH  12  16
ATOM     13  C   UNL     1      51.309   2.571  17.596  0.00  0.00    +0.000 A 
ATOM     14  C   UNL     1      51.675   3.909  17.735  0.00  0.00    +0.000 A 
ATOM     15  C   UNL     1      50.730   4.910  17.497  0.00  0.00    +0.000 A 
ATOM     16  C   UNL     1      49.441   4.548  17.103  0.00  0.00    +0.000 A 
ATOM     17  N   UNL     1      49.070   3.247  16.978  0.00  0.00    +0.000 NA
ATOM     18  C   UNL     1      50.001   2.295  17.235  0.00  0.00    +0.000 A 
BRANCH  13  20
ATOM     19  N   UNL     1      53.003   0.651  17.963  0.00  0.00    +0.000 NA
ATOM     20  C   UNL     1      52.250   1.514  17.793  0.00  0.00    +0.000 C 
ENDBRANCH  13  20
ENDBRANCH  12  16
ENDBRANCH   1  12
TORSDOF 4
ENDMDL
