MODEL 1
REMARK VINA RESULT:    -7.903      0.000      0.000
REMARK INTER + INTRA:         -10.151
REMARK INTER:                  -9.751
REMARK INTRA:                  -0.400
REMARK UNBOUND:                -0.400
REMARK  Name = 
REMARK  5 active torsions:
REMARK  status: ('A' for Active; 'I' for Inactive)
REMARK    1  A    between atoms: C_1  and  C_2
REMARK    2  A    between atoms: C_2  and  O_3
REMARK    3  A    between atoms: C_2  and  C_13
REMARK    4  A    between atoms: O_3  and  C_4
REMARK    5  A    between atoms: C_7  and  C_8
REMARK                            x       y       z     vdW  Elec       q    Type
REMARK                         _______ _______ _______ _____ _____    ______ ____
ROOT
ATOM      1  C   UNL     1      44.555   3.427   9.180  0.00  0.00    +0.000 A 
ATOM      2  C   UNL     1      45.022   2.119   9.192  0.00  0.00    +0.000 A 
ATOM      3  C   UNL     1      46.038   1.749   8.307  0.00  0.00    +0.000 A 
ATOM      4  C   UNL     1      46.582   2.690   7.433  0.00  0.00    +0.000 A 
ATOM      5  C   UNL     1      46.074   3.975   7.505  0.00  0.00    +0.000 A 
ATOM      6  N   UNL     1      45.079   4.357   8.352  0.00  0.00    +0.000 NA
ENDROOT
BRANCH   4   7
ATOM      7  C   UNL     1      47.643   2.261   6.489  0.00  0.00    +0.000 C 
ATOM      8  N   UNL     1      47.839   2.967   5.334  0.00  0.00    +0.000 N 
ATOM      9  O   UNL     1      48.336   1.279   6.726  0.00  0.00    +0.000 OA
ATOM     10  H   UNL     1      47.342   3.795   5.052  0.00  0.00    +0.000 HD
ATOM     11  H   UNL     1      48.573   2.630   4.722  0.00  0.00    +0.000 HD
ENDBRANCH   4   7
BRANCH   1  12
ATOM     12  O   UNL     1      43.549   3.927   9.956  0.00  0.00    +0.000 OA
BRANCH  12  14
ATOM     13  C   UNL     1      42.639   5.238  11.757  0.00  0.00    +0.000 C 
ATOM     14  C   UNL     1      43.783   5.095  10.753  0.00  0.00    +0.000 C 
BRANCH  14  15
ATOM     15  C   UNL     1      45.166   4.983  11.448  0.00  0.00    +0.000 C 
ATOM     16  C   UNL     1      45.031   4.376  12.859  0.00  0.00    +0.000 C 
ATOM     17  C   UNL     1      46.373   4.355  13.584  0.00  0.00    +0.000 C 
ATOM     18  C   UNL     1      47.016   5.731  13.546  0.00  0.00    +0.000 C 
ATOM     19  O   UNL     1      47.183   6.150  12.193  0.00  0.00    +0.000 OA
ATOM     20  C   UNL     1      45.929   6.312  11.523  0.00  0.00    +0.000 C 
ENDBRANCH  14  15
ENDBRANCH  12  14
ENDBRANCH   1  12
TORSDOF 4
ENDMDL
MODEL 2
REMARK VINA RESULT:    -7.548      1.085      1.709
REMARK INTER + INTRA:          -9.712
REMARK INTER:                  -9.194
REMARK INTRA:                  -0.518
REMARK UNBOUND:                -0.400
REMARK  Name = 
REMARK  5 active torsions:
REMARK  status: ('A' for Active; 'I' for Inactive)
REMARK    1  A    between atoms: C_1  and  C_2
REMARK    2  A    between atoms: C_2  and  O_3
REMARK    3  A    between atoms: C_2  and  C_13
REMARK    4  A    between atoms: O_3  and  C_4
REMARK    5  A    between atoms: C_7  and  C_8
REMARK                            x       y       z     vdW  Elec       q    Type
REMARK                         _______ _______ _______ _____ _____    ______ ____
ROOT
ATOM      1  C   UNL     1      44.638   3.545   9.607  0.00  0.00    +0.000 A 
ATOM      2  C   UNL     1      45.161   4.442   8.686  0.00  0.00    +0.000 A 
ATOM      3  C   UNL     1      46.033   3.977   7.698  0.00  0.00    +0.000 A 
ATOM      4  C   UNL     1      46.361   2.623   7.635  0.00  0.00    +0.000 A 
ATOM      5  C   UNL     1      45.776   1.795   8.578  0.00  0.00    +0.000 A 
ATOM      6  N   UNL     1      44.932   2.227   9.554  0.00  0.00    +0.000 NA
ENDROOT
BRANCH   4   7
ATOM      7  C   UNL     1      47.308   2.163   6.591  0.00  0.00    +0.000 C 
ATOM      8  N   UNL     1      47.488   2.921   5.466  0.00  0.00    +0.000 N 
ATOM      9  O   UNL     1      47.922   1.110   6.718  0.00  0.00    +0.000 OA
ATOM     10  H   UNL     1      47.051   3.805   5.270  0.00  0.00    +0.000 HD
ATOM     11  H   UNL     1      48.142   2.560   4.782  0.00  0.00    +0.000 HD
ENDBRANCH   4   7
BRANCH   1  12
ATOM     12  O   UNL     1      43.805   3.852  10.644  0.00  0.00    +0.000 OA
BRANCH  12  14
ATOM     13  C   UNL     1      42.318   5.522  11.532  0.00  0.00    +0.000 C 
ATOM     14  C   UNL     1      43.760   5.195  11.142  0.00  0.00    +0.000 C 
BRANCH  14  15
ATOM     15  C   UNL     1      44.740   5.341  12.336  0.00  0.00    +0.000 C 
ATOM     16  C   UNL     1      46.045   6.037  11.902  0.00  0.00    +0.000 C 
ATOM     17  C   UNL     1      47.051   6.095  13.048  0.00  0.00    +0.000 C 
ATOM     18  C   UNL     1      47.241   4.714  13.653  0.00  0.00    +0.000 C 
ATOM     19  O   UNL     1      45.988   4.208  14.110  0.00  0.00    +0.000 OA
ATOM     20  C   UNL     1      45.065   4.014  13.035  0.00  0.00    +0.000 C 
ENDBRANCH  14  15
ENDBRANCH  12  14
ENDBRANCH   1  12
TORSDOF 4
ENDMDL
MODEL 3
REMARK VINA RESULT:    -6.937      1.702      2.240
REMARK INTER + INTRA:          -8.958
REMARK INTER:                  -8.890
REMARK INTRA:                  -0.068
REMARK UNBOUND:                -0.400
REMARK  Name = 
REMARK  5 active torsions:
REMARK  status: ('A' for Active; 'I' for Inactive)
REMARK    1  A    between atoms: C_1  and  C_2
REMARK    2  A    between atoms: C_2  and  O_3
REMARK    3  A    between atoms: C_2  and  C_13
REMARK    4  A    between atoms: O_3  and  C_4
REMARK    5  A    between atoms: C_7  and  C_8
REMARK                            x       y       z     vdW  Elec       q    Type
REMARK                         _______ _______ _______ _____ _____    ______ ____
ROOT
ATOM      1  C   UNL     1      44.540   3.946   9.247  0.00  0.00    +0.000 A 
ATOM      2  C   UNL     1      45.553   4.343   8.384  0.00  0.00    +0.000 A 
ATOM      3  C   UNL     1      46.359   3.372   7.785  0.00  0.00    +0.000 A 
ATOM      4  C   UNL     1      46.136   2.020   8.044  0.00  0.00    +0.000 A 
ATOM      5  C   UNL     1      45.091   1.712   8.898  0.00  0.00    +0.000 A 
ATOM      6  N   UNL     1      44.299   2.641   9.500  0.00  0.00    +0.000 NA
ENDROOT
BRANCH   4   7
ATOM      7  C   UNL     1      47.024   1.014   7.412  0.00  0.00    +0.000 C 
ATOM      8  N   UNL     1      46.809  -0.316   7.652  0.00  0.00    +0.000 N 
ATOM      9  O   UNL     1      47.950   1.358   6.687  0.00  0.00    +0.000 OA
ATOM     10  H   UNL     1      46.071  -0.707   8.212  0.00  0.00    +0.000 HD
ATOM     11  H   UNL     1      47.446  -0.962   7.199  0.00  0.00    +0.000 HD
ENDBRANCH   4   7
BRANCH   1  12
ATOM     12  O   UNL     1      43.697   4.775   9.931  0.00  0.00    +0.000 OA
BRANCH  12  14
ATOM     13  C   UNL     1      44.574   4.010  12.037  0.00  0.00    +0.000 C 
ATOM     14  C   UNL     1      44.047   5.211  11.250  0.00  0.00    +0.000 C 
BRANCH  14  15
ATOM     15  C   UNL     1      45.088   6.358  11.160  0.00  0.00    +0.000 C 
ATOM     16  C   UNL     1      46.407   5.968  11.855  0.00  0.00    +0.000 C 
ATOM     17  C   UNL     1      47.398   7.127  11.855  0.00  0.00    +0.000 C 
ATOM     18  C   UNL     1      46.741   8.383  12.405  0.00  0.00    +0.000 C 
ATOM     19  O   UNL     1      45.590   8.707  11.628  0.00  0.00    +0.000 OA
ATOM     20  C   UNL     1      44.582   7.696  11.717  0.00  0.00    +0.000 C 
ENDBRANCH  14  15
ENDBRANCH  12  14
ENDBRANCH   1  12
TORSDOF 4
ENDMDL
MODEL 4
REMARK VINA RESULT:    -6.157      3.058      6.448
REMARK INTER + INTRA:          -7.996
REMARK INTER:                  -7.515
REMARK INTRA:                  -0.481
REMARK UNBOUND:                -0.400
REMARK  Name = 
REMARK  5 active torsions:
REMARK  status: ('A' for Active; 'I' for Inactive)
REMARK    1  A    between atoms: C_1  and  C_2
REMARK    2  A    between atoms: C_2  and  O_3
REMARK    3  A    between atoms: C_2  and  C_13
REMARK    4  A    between atoms: O_3  and  C_4
REMARK    5  A    between atoms: C_7  and  C_8
REMARK                            x       y       z     vdW  Elec       q    Type
REMARK                         _______ _______ _______ _____ _____    ______ ____
ROOT
ATOM      1  C   UNL     1      46.267   5.741  12.396  0.00  0.00    +0.000 A 
ATOM      2  C   UNL     1      47.229   6.662  12.787  0.00  0.00    +0.000 A 
ATOM      3  C   UNL     1      47.863   6.504  14.023  0.00  0.00    +0.000 A 
ATOM      4  C   UNL     1      47.539   5.423  14.842  0.00  0.00    +0.000 A 
ATOM      5  C   UNL     1      46.586   4.541  14.364  0.00  0.00    +0.000 A 
ATOM      6  N   UNL     1      45.949   4.680  13.169  0.00  0.00    +0.000 NA
ENDROOT
BRANCH   4   7
ATOM      7  C   UNL     1      48.212   5.295  16.158  0.00  0.00    +0.000 C 
ATOM      8  N   UNL     1      47.454   5.200  17.293  0.00  0.00    +0.000 N 
ATOM      9  O   UNL     1      49.434   5.284  16.241  0.00  0.00    +0.000 OA
ATOM     10  H   UNL     1      46.449   5.180  17.337  0.00  0.00    +0.000 HD
ATOM     11  H   UNL     1      47.962   5.118  18.166  0.00  0.00    +0.000 HD
ENDBRANCH   4   7
BRANCH   1  12
ATOM     12  O   UNL     1      45.541   5.781  11.240  0.00  0.00    +0.000 OA
BRANCH  12  14
ATOM     13  C   UNL     1      43.139   5.701  11.124  0.00  0.00    +0.000 C 
ATOM     14  C   UNL     1      44.434   4.889  11.068  0.00  0.00    +0.000 C 
BRANCH  14  15
ATOM     15  C   UNL     1      44.588   4.119   9.729  0.00  0.00    +0.000 C 
ATOM     16  C   UNL     1      44.920   2.634   9.977  0.00  0.00    +0.000 C 
ATOM     17  C   UNL     1      45.170   1.896   8.666  0.00  0.00    +0.000 C 
ATOM     18  C   UNL     1      46.194   2.641   7.827  0.00  0.00    +0.000 C 
ATOM     19  O   UNL     1      45.740   3.969   7.576  0.00  0.00    +0.000 OA
ATOM     20  C   UNL     1      45.625   4.734   8.780  0.00  0.00    +0.000 C 
ENDBRANCH  14  15
ENDBRANCH  12  14
ENDBRANCH   1  12
TORSDOF 4
ENDMDL
MODEL 5
REMARK VINA RESULT:    -5.853      4.869      8.252
REMARK INTER + INTRA:          -7.622
REMARK INTER:                  -7.105
REMARK INTRA:                  -0.517
REMARK UNBOUND:                -0.400
REMARK  Name = 
REMARK  5 active torsions:
REMARK  status: ('A' for Active; 'I' for Inactive)
REMARK    1  A    between atoms: C_1  and  C_2
REMARK    2  A    between atoms: C_2  and  O_3
REMARK    3  A    between atoms: C_2  and  C_13
REMARK    4  A    between atoms: O_3  and  C_4
REMARK    5  A    between atoms: C_7  and  C_8
REMARK                            x       y       z     vdW  Elec       q    Type
REMARK                         _______ _______ _______ _____ _____    ______ ____
ROOT
ATOM      1  C   UNL     1      47.636   4.626  15.423  0.00  0.00    +0.000 A 
ATOM      2  C   UNL     1      47.124   3.673  16.293  0.00  0.00    +0.000 A 
ATOM      3  C   UNL     1      47.472   3.726  17.646  0.00  0.00    +0.000 A 
ATOM      4  C   UNL     1      48.314   4.735  18.113  0.00  0.00    +0.000 A 
ATOM      5  C   UNL     1      48.760   5.657  17.181  0.00  0.00    +0.000 A 
ATOM      6  N   UNL     1      48.441   5.620  15.858  0.00  0.00    +0.000 NA
ENDROOT
BRANCH   4   7
ATOM      7  C   UNL     1      48.685   4.750  19.549  0.00  0.00    +0.000 C 
ATOM      8  N   UNL     1      48.521   3.616  20.297  0.00  0.00    +0.000 N 
ATOM      9  O   UNL     1      49.125   5.766  20.074  0.00  0.00    +0.000 OA
ATOM     10  H   UNL     1      48.187   2.728  19.964  0.00  0.00    +0.000 HD
ATOM     11  H   UNL     1      48.785   3.681  21.273  0.00  0.00    +0.000 HD
ENDBRANCH   4   7
BRANCH   1  12
ATOM     12  O   UNL     1      47.416   4.685  14.077  0.00  0.00    +0.000 OA
BRANCH  12  14
ATOM     13  C   UNL     1      47.108   6.244  12.270  0.00  0.00    +0.000 C 
ATOM     14  C   UNL     1      46.508   5.660  13.549  0.00  0.00    +0.000 C 
BRANCH  14  15
ATOM     15  C   UNL     1      45.124   5.003  13.304  0.00  0.00    +0.000 C 
ATOM     16  C   UNL     1      45.267   3.679  12.527  0.00  0.00    +0.000 C 
ATOM     17  C   UNL     1      43.903   3.079  12.198  0.00  0.00    +0.000 C 
ATOM     18  C   UNL     1      43.020   4.116  11.523  0.00  0.00    +0.000 C 
ATOM     19  O   UNL     1      42.876   5.253  12.371  0.00  0.00    +0.000 OA
ATOM     20  C   UNL     1      44.123   5.921  12.589  0.00  0.00    +0.000 C 
ENDBRANCH  14  15
ENDBRANCH  12  14
ENDBRANCH   1  12
TORSDOF 4
ENDMDL
MODEL 6
REMARK VINA RESULT:    -5.708      3.822      6.305
REMARK INTER + INTRA:          -7.443
REMARK INTER:                  -7.003
REMARK INTRA:                  -0.440
REMARK UNBOUND:                -0.400
REMARK  Name = 
REMARK  5 active torsions:
REMARK  status: ('A' for Active; 'I' for Inactive)
REMARK    1  A    between atoms: C_1  and  C_2
REMARK    2  A    between atoms: C_2  and  O_3
REMARK    3  A    between atoms: C_2  and  C_13
REMARK    4  A    between atoms: O_3  and  C_4
REMARK    5  A    between atoms: C_7  and  C_8
REMARK                            x       y       z     vdW  Elec       q    Type
REMARK                         _______ _______ _______ _____ _____    ______ ____
ROOT
ATOM      1  C   UNL     1      46.848   4.286  13.908  0.00  0.00    +0.000 A 
ATOM      2  C   UNL     1      46.502   5.596  13.608  0.00  0.00    +0.000 A 
ATOM      3  C   UNL     1      45.520   5.839  12.643  0.00  0.00    +0.000 A 
ATOM      4  C   UNL     1      44.889   4.773  12.003  0.00  0.00    +0.000 A 
ATOM      5  C   UNL     1      45.279   3.500  12.380  0.00  0.00    +0.000 A 
ATOM      6  N   UNL     1      46.239   3.239  13.309  0.00  0.00    +0.000 NA
ENDROOT
BRANCH   4   7
ATOM      7  C   UNL     1      43.867   5.063  10.967  0.00  0.00    +0.000 C 
ATOM      8  N   UNL     1      43.241   6.279  10.964  0.00  0.00    +0.000 N 
ATOM      9  O   UNL     1      43.572   4.225  10.123  0.00  0.00    +0.000 OA
ATOM     10  H   UNL     1      43.420   7.041  11.595  0.00  0.00    +0.000 HD
ATOM     11  H   UNL     1      42.549   6.425  10.238  0.00  0.00    +0.000 HD
ENDBRANCH   4   7
BRANCH   1  12
ATOM     12  O   UNL     1      47.808   3.893  14.796  0.00  0.00    +0.000 OA
BRANCH  12  14
ATOM     13  C   UNL     1      48.234   2.559  16.753  0.00  0.00    +0.000 C 
ATOM     14  C   UNL     1      47.476   3.759  16.184  0.00  0.00    +0.000 C 
BRANCH  14  15
ATOM     15  C   UNL     1      47.815   5.077  16.929  0.00  0.00    +0.000 C 
ATOM     16  C   UNL     1      49.339   5.251  17.086  0.00  0.00    +0.000 C 
ATOM     17  C   UNL     1      49.674   6.495  17.903  0.00  0.00    +0.000 C 
ATOM     18  C   UNL     1      48.900   6.491  19.211  0.00  0.00    +0.000 C 
ATOM     19  O   UNL     1      47.501   6.427  18.945  0.00  0.00    +0.000 OA
ATOM     20  C   UNL     1      47.133   5.206  18.298  0.00  0.00    +0.000 C 
ENDBRANCH  14  15
ENDBRANCH  12  14
ENDBRANCH   1  12
TORSDOF 4
ENDMDL
MODEL 7
REMARK VINA RESULT:    -5.679      2.175      6.242
REMARK INTER + INTRA:          -7.407
REMARK INTER:                  -7.515
REMARK INTRA:                   0.108
REMARK UNBOUND:                -0.400
REMARK  Name = 
REMARK  5 active torsions:
REMARK  status: ('A' for Active; 'I' for Inactive)
REMARK    1  A    between atoms: C_1  and  C_2
REMARK    2  A    between atoms: C_2  and  O_3
REMARK    3  A    between atoms: C_2  and  C_13
REMARK    4  A    between atoms: O_3  and  C_4
REMARK    5  A    between atoms: C_7  and  C_8
REMARK                            x       y       z     vdW  Elec       q    Type
REMARK                         _______ _______ _______ _____ _____    ______ ____
ROOT
ATOM      1  C   UNL     1      44.981   4.430  11.463  0.00  0.00    +0.000 A 
ATOM      2  C   UNL     1      44.105   5.002  12.375  0.00  0.00    +0.000 A 
ATOM      3  C   UNL     1      44.375   6.281  12.871  0.00  0.00    +0.000 A 
ATOM      4  C   UNL     1      45.504   6.974  12.440  0.00  0.00    +0.000 A 
ATOM      5  C   UNL     1      46.311   6.339  11.511  0.00  0.00    +0.000 A 
ATOM      6  N   UNL     1      46.074   5.091  11.022  0.00  0.00    +0.000 NA
ENDROOT
BRANCH   4   7
ATOM      7  C   UNL     1      45.776   8.320  13.002  0.00  0.00    +0.000 C 
ATOM      8  N   UNL     1      44.861   9.321  12.821  0.00  0.00    +0.000 N 
ATOM      9  O   UNL     1      46.811   8.547  13.617  0.00  0.00    +0.000 OA
ATOM     10  H   UNL     1      43.976   9.239  12.351  0.00  0.00    +0.000 HD
ATOM     11  H   UNL     1      45.097  10.222  13.221  0.00  0.00    +0.000 HD
ENDBRANCH   4   7
BRANCH   1  12
ATOM     12  O   UNL     1      44.872   3.183  10.918  0.00  0.00    +0.000 OA
BRANCH  12  14
ATOM     13  C   UNL     1      44.055   4.366   8.989  0.00  0.00    +0.000 C 
ATOM     14  C   UNL     1      44.607   3.041   9.517  0.00  0.00    +0.000 C 
BRANCH  14  15
ATOM     15  C   UNL     1      45.905   2.610   8.783  0.00  0.00    +0.000 C 
ATOM     16  C   UNL     1      46.190   3.524   7.575  0.00  0.00    +0.000 C 
ATOM     17  C   UNL     1      47.409   3.045   6.793  0.00  0.00    +0.000 C 
ATOM     18  C   UNL     1      47.272   1.570   6.453  0.00  0.00    +0.000 C 
ATOM     19  O   UNL     1      47.112   0.810   7.648  0.00  0.00    +0.000 OA
ATOM     20  C   UNL     1      45.903   1.142   8.337  0.00  0.00    +0.000 C 
ENDBRANCH  14  15
ENDBRANCH  12  14
ENDBRANCH   1  12
TORSDOF 4
ENDMDL
MODEL 8
REMARK VINA RESULT:    -5.594      3.457      5.011
REMARK INTER + INTRA:          -7.302
REMARK INTER:                  -6.758
REMARK INTRA:                  -0.544
REMARK UNBOUND:                -0.400
REMARK  Name = 
REMARK  5 active torsions:
REMARK  status: ('A' for Active; 'I' for Inactive)
REMARK    1  A    between atoms: C_1  and  C_2
REMARK    2  A    between atoms: C_2  and  O_3
REMARK    3  A    between atoms: C_2  and  C_13
REMARK    4  A    between atoms: O_3  and  C_4
REMARK    5  A    between atoms: C_7  and  C_8
REMARK                            x       y       z     vdW  Elec       q    Type
REMARK                         _______ _______ _______ _____ _____    ______ ____
ROOT
ATOM      1  C   UNL     1      45.163   6.509  12.598  0.00  0.00    +0.000 A 
ATOM      2  C   UNL     1      45.597   5.331  13.192  0.00  0.00    +0.000 A 
ATOM      3  C   UNL     1      45.163   4.107  12.676  0.00  0.00    +0.000 A 
ATOM      4  C   UNL     1      44.314   4.074  11.570  0.00  0.00    +0.000 A 
ATOM      5  C   UNL     1      43.950   5.294  11.027  0.00  0.00    +0.000 A 
ATOM      6  N   UNL     1      44.353   6.499  11.517  0.00  0.00    +0.000 NA
ENDROOT
BRANCH   4   7
ATOM      7  C   UNL     1      43.851   2.760  11.061  0.00  0.00    +0.000 C 
ATOM      8  N   UNL     1      44.457   2.214   9.963  0.00  0.00    +0.000 N 
ATOM      9  O   UNL     1      42.929   2.164  11.605  0.00  0.00    +0.000 OA
ATOM     10  H   UNL     1      45.230   2.608   9.454  0.00  0.00    +0.000 HD
ATOM     11  H   UNL     1      44.100   1.318   9.653  0.00  0.00    +0.000 HD
ENDBRANCH   4   7
BRANCH   1  12
ATOM     12  O   UNL     1      45.472   7.775  13.007  0.00  0.00    +0.000 OA
BRANCH  12  14
ATOM     13  C   UNL     1      45.358  10.011  12.127  0.00  0.00    +0.000 C 
ATOM     14  C   UNL     1      46.107   8.679  12.095  0.00  0.00    +0.000 C 
BRANCH  14  15
ATOM     15  C   UNL     1      47.603   8.835  12.473  0.00  0.00    +0.000 C 
ATOM     16  C   UNL     1      48.479   7.824  11.708  0.00  0.00    +0.000 C 
ATOM     17  C   UNL     1      49.937   7.907  12.149  0.00  0.00    +0.000 C 
ATOM     18  C   UNL     1      50.037   7.812  13.663  0.00  0.00    +0.000 C 
ATOM     19  O   UNL     1      49.270   8.853  14.265  0.00  0.00    +0.000 OA
ATOM     20  C   UNL     1      47.874   8.724  13.980  0.00  0.00    +0.000 C 
ENDBRANCH  14  15
ENDBRANCH  12  14
ENDBRANCH   1  12
TORSDOF 4
ENDMDL
MODEL 9
REMARK VINA RESULT:    -5.230      3.261      5.466
REMARK INTER + INTRA:          -6.852
REMARK INTER:                  -6.383
REMARK INTRA:                  -0.470
REMARK UNBOUND:                -0.400
REMARK  Name = 
REMARK  5 active torsions:
REMARK  status: ('A' for Active; 'I' for Inactive)
REMARK    1  A    between atoms: C_1  and  C_2
REMARK    2  A    between atoms: C_2  and  O_3
REMARK    3  A    between atoms: C_2  and  C_13
REMARK    4  A    between atoms: O_3  and  C_4
REMARK    5  A    between atoms: C_7  and  C_8
REMARK                            x       y       z     vdW  Elec       q    Type
REMARK                         _______ _______ _______ _____ _____    ______ ____
ROOT
ATOM      1  C   UNL     1      46.503   5.966  12.488  0.00  0.00    +0.000 A 
ATOM      2  C   UNL     1      46.244   4.832  13.245  0.00  0.00    +0.000 A 
ATOM      3  C   UNL     1      45.450   3.816  12.704  0.00  0.00    +0.000 A 
ATOM      4  C   UNL     1      44.939   3.941  11.413  0.00  0.00    +0.000 A 
ATOM      5  C   UNL     1      45.266   5.093  10.720  0.00  0.00    +0.000 A 
ATOM      6  N   UNL     1      46.029   6.099  11.229  0.00  0.00    +0.000 NA
ENDROOT
BRANCH   4   7
ATOM      7  C   UNL     1      44.080   2.857  10.876  0.00  0.00    +0.000 C 
ATOM      8  N   UNL     1      44.516   2.122   9.808  0.00  0.00    +0.000 N 
ATOM      9  O   UNL     1      42.984   2.620  11.369  0.00  0.00    +0.000 OA
ATOM     10  H   UNL     1      45.401   2.220   9.341  0.00  0.00    +0.000 HD
ATOM     11  H   UNL     1      43.890   1.397   9.477  0.00  0.00    +0.000 HD
ENDBRANCH   4   7
BRANCH   1  12
ATOM     12  O   UNL     1      47.229   7.051  12.889  0.00  0.00    +0.000 OA
BRANCH  12  14
ATOM     13  C   UNL     1      49.315   7.737  11.907  0.00  0.00    +0.000 C 
ATOM     14  C   UNL     1      48.650   6.940  13.030  0.00  0.00    +0.000 C 
BRANCH  14  15
ATOM     15  C   UNL     1      49.075   7.439  14.436  0.00  0.00    +0.000 C 
ATOM     16  C   UNL     1      50.590   7.715  14.494  0.00  0.00    +0.000 C 
ATOM     17  C   UNL     1      51.029   8.110  15.901  0.00  0.00    +0.000 C 
ATOM     18  C   UNL     1      50.531   7.093  16.914  0.00  0.00    +0.000 C 
ATOM     19  O   UNL     1      49.111   6.991  16.841  0.00  0.00    +0.000 OA
ATOM     20  C   UNL     1      48.674   6.490  15.574  0.00  0.00    +0.000 C 
ENDBRANCH  14  15
ENDBRANCH  12  14
ENDBRANCH   1  12
TORSDOF 4
ENDMDL
