MODEL 1
REMARK VINA RESULT:    -7.945      0.000      0.000
REMARK INTER + INTRA:         -10.980
REMARK INTER:                 -10.267
REMARK INTRA:                  -0.713
REMARK UNBOUND:                -0.713
REMARK  Name = 
REMARK  6 active torsions:
REMARK  status: ('A' for Active; 'I' for Inactive)
REMARK    1  A    between atoms: C_1  and  C_2
REMARK    2  A    between atoms: C_4  and  C_5
REMARK    3  A    between atoms: C_10  and  N_11
REMARK    4  A    between atoms: N_11  and  C_12
REMARK    5  A    between atoms: C_12  and  C_13
REMARK    6  A    between atoms: C_16  and  C_17
REMARK                            x       y       z     vdW  Elec       q    Type
REMARK                         _______ _______ _______ _____ _____    ______ ____
ROOT
ATOM      1  C   UNL     1      47.154   7.058  11.387  0.00  0.00    +0.000 C 
ATOM      2  C   UNL     1      46.519   6.008  12.260  0.00  0.00    +0.000 A 
ATOM      3  C   UNL     1      47.242   5.588  13.391  0.00  0.00    +0.000 A 
ATOM      4  C   UNL     1      46.703   4.620  14.225  0.00  0.00    +0.000 A 
ATOM      5  N   UNL     1      45.512   4.016  13.998  0.00  0.00    +0.000 NA
ATOM      6  C   UNL     1      44.844   4.435  12.895  0.00  0.00    +0.000 A 
ATOM      7  C   UNL     1      45.247   5.452  12.010  0.00  0.00    +0.000 A 
ENDROOT
BRANCH   4   8
ATOM      8  C   UNL     1      47.448   4.205  15.455  0.00  0.00    +0.000 C 
ATOM      9  N   UNL     1      47.519   5.144  16.448  0.00  0.00    +0.000 N 
ATOM     10  O   UNL     1      47.975   3.105  15.573  0.00  0.00    +0.000 OA
ATOM     11  H   UNL     1      47.079   6.048  16.315  0.00  0.00    +0.000 HD
ATOM     12  H   UNL     1      48.023   4.934  17.296  0.00  0.00    +0.000 HD
ENDBRANCH   4   8
BRANCH   7  13
ATOM     13  N   UNL     1      44.488   5.803  10.873  0.00  0.00    +0.000 N 
ATOM     14  H   UNL     1      43.843   6.567  11.057  0.00  0.00    +0.000 HD
BRANCH  13  15
ATOM     15  C   UNL     1      43.821   4.698  10.172  0.00  0.00    +0.000 C 
BRANCH  15  16
ATOM     16  C   UNL     1      44.759   3.995   9.212  0.00  0.00    +0.000 A 
ATOM     17  C   UNL     1      45.634   4.739   8.406  0.00  0.00    +0.000 A 
ATOM     18  C   UNL     1      46.565   4.099   7.579  0.00  0.00    +0.000 A 
ATOM     19  C   UNL     1      46.638   2.703   7.550  0.00  0.00    +0.000 A 
ATOM     20  C   UNL     1      45.775   1.953   8.355  0.00  0.00    +0.000 A 
ATOM     21  C   UNL     1      44.843   2.594   9.182  0.00  0.00    +0.000 A 
BRANCH  19  22
ATOM     22  C   UNL     1      47.597   2.045   6.706  0.00  0.00    +0.000 C 
ATOM     23  N   UNL     1      48.372   1.513   6.025  0.00  0.00    +0.000 NA
ENDBRANCH  19  22
ENDBRANCH  15  16
ENDBRANCH  13  15
ENDBRANCH   7  13
TORSDOF 5
ENDMDL
MODEL 2
REMARK VINA RESULT:    -7.529      2.122      2.684
REMARK INTER + INTRA:         -10.443
REMARK INTER:                  -9.870
REMARK INTRA:                  -0.572
REMARK UNBOUND:                -0.713
REMARK  Name = 
REMARK  6 active torsions:
REMARK  status: ('A' for Active; 'I' for Inactive)
REMARK    1  A    between atoms: C_1  and  C_2
REMARK    2  A    between atoms: C_4  and  C_5
REMARK    3  A    between atoms: C_10  and  N_11
REMARK    4  A    between atoms: N_11  and  C_12
REMARK    5  A    between atoms: C_12  and  C_13
REMARK    6  A    between atoms: C_16  and  C_17
REMARK                            x       y       z     vdW  Elec       q    Type
REMARK                         _______ _______ _______ _____ _____    ______ ____
ROOT
ATOM      1  C   UNL     1      46.744   3.641  13.615  0.00  0.00    +0.000 C 
ATOM      2  C   UNL     1      46.222   4.944  13.068  0.00  0.00    +0.000 A 
ATOM      3  C   UNL     1      46.902   6.117  13.444  0.00  0.00    +0.000 A 
ATOM      4  C   UNL     1      46.459   7.343  12.971  0.00  0.00    +0.000 A 
ATOM      5  N   UNL     1      45.371   7.490  12.178  0.00  0.00    +0.000 NA
ATOM      6  C   UNL     1      44.731   6.342  11.842  0.00  0.00    +0.000 A 
ATOM      7  C   UNL     1      45.116   5.036  12.198  0.00  0.00    +0.000 A 
ENDROOT
BRANCH   4   8
ATOM      8  C   UNL     1      47.207   8.589  13.329  0.00  0.00    +0.000 C 
ATOM      9  N   UNL     1      47.179   8.933  14.653  0.00  0.00    +0.000 N 
ATOM     10  O   UNL     1      47.798   9.271  12.500  0.00  0.00    +0.000 OA
ATOM     11  H   UNL     1      46.674   8.352  15.312  0.00  0.00    +0.000 HD
ATOM     12  H   UNL     1      47.648   9.773  14.959  0.00  0.00    +0.000 HD
ENDBRANCH   4   8
BRANCH   7  13
ATOM     13  N   UNL     1      44.370   3.902  11.813  0.00  0.00    +0.000 N 
ATOM     14  H   UNL     1      44.881   3.034  11.955  0.00  0.00    +0.000 HD
BRANCH  13  15
ATOM     15  C   UNL     1      43.756   3.951  10.481  0.00  0.00    +0.000 C 
BRANCH  15  16
ATOM     16  C   UNL     1      44.695   3.432   9.411  0.00  0.00    +0.000 A 
ATOM     17  C   UNL     1      45.352   4.327   8.552  0.00  0.00    +0.000 A 
ATOM     18  C   UNL     1      46.287   3.867   7.617  0.00  0.00    +0.000 A 
ATOM     19  C   UNL     1      46.583   2.503   7.531  0.00  0.00    +0.000 A 
ATOM     20  C   UNL     1      45.939   1.604   8.387  0.00  0.00    +0.000 A 
ATOM     21  C   UNL     1      45.003   2.066   9.321  0.00  0.00    +0.000 A 
BRANCH  19  22
ATOM     22  C   UNL     1      47.548   2.031   6.576  0.00  0.00    +0.000 C 
ATOM     23  N   UNL     1      48.326   1.648   5.805  0.00  0.00    +0.000 NA
ENDBRANCH  19  22
ENDBRANCH  15  16
ENDBRANCH  13  15
ENDBRANCH   7  13
TORSDOF 5
ENDMDL
MODEL 3
REMARK VINA RESULT:    -7.353      1.503      2.285
REMARK INTER + INTRA:         -10.216
REMARK INTER:                  -9.951
REMARK INTRA:                  -0.264
REMARK UNBOUND:                -0.713
REMARK  Name = 
REMARK  6 active torsions:
REMARK  status: ('A' for Active; 'I' for Inactive)
REMARK    1  A    between atoms: C_1  and  C_2
REMARK    2  A    between atoms: C_4  and  C_5
REMARK    3  A    between atoms: C_10  and  N_11
REMARK    4  A    between atoms: N_11  and  C_12
REMARK    5  A    between atoms: C_12  and  C_13
REMARK    6  A    between atoms: C_16  and  C_17
REMARK                            x       y       z     vdW  Elec       q    Type
REMARK                         _______ _______ _______ _____ _____    ______ ____
ROOT
ATOM      1  C   UNL     1      43.619   4.374  13.273  0.00  0.00    +0.000 C 
ATOM      2  C   UNL     1      44.832   5.102  12.758  0.00  0.00    +0.000 A 
ATOM      3  C   UNL     1      45.873   5.344  13.673  0.00  0.00    +0.000 A 
ATOM      4  C   UNL     1      47.010   6.015  13.249  0.00  0.00    +0.000 A 
ATOM      5  N   UNL     1      47.174   6.491  11.992  0.00  0.00    +0.000 NA
ATOM      6  C   UNL     1      46.149   6.250  11.137  0.00  0.00    +0.000 A 
ATOM      7  C   UNL     1      44.976   5.526  11.421  0.00  0.00    +0.000 A 
ENDROOT
BRANCH   4   8
ATOM      8  C   UNL     1      48.140   6.234  14.206  0.00  0.00    +0.000 C 
ATOM      9  N   UNL     1      47.886   5.893  15.507  0.00  0.00    +0.000 N 
ATOM     10  O   UNL     1      49.221   6.699  13.863  0.00  0.00    +0.000 OA
ATOM     11  H   UNL     1      46.978   5.520  15.759  0.00  0.00    +0.000 HD
ATOM     12  H   UNL     1      48.599   6.034  16.206  0.00  0.00    +0.000 HD
ENDBRANCH   4   8
BRANCH   7  13
ATOM     13  N   UNL     1      43.954   5.347  10.464  0.00  0.00    +0.000 N 
ATOM     14  H   UNL     1      43.084   5.798  10.736  0.00  0.00    +0.000 HD
BRANCH  13  15
ATOM     15  C   UNL     1      43.724   3.969  10.012  0.00  0.00    +0.000 C 
BRANCH  15  16
ATOM     16  C   UNL     1      44.831   3.486   9.097  0.00  0.00    +0.000 A 
ATOM     17  C   UNL     1      45.191   2.130   9.077  0.00  0.00    +0.000 A 
ATOM     18  C   UNL     1      46.151   1.657   8.175  0.00  0.00    +0.000 A 
ATOM     19  C   UNL     1      46.764   2.534   7.275  0.00  0.00    +0.000 A 
ATOM     20  C   UNL     1      46.407   3.886   7.283  0.00  0.00    +0.000 A 
ATOM     21  C   UNL     1      45.447   4.359   8.186  0.00  0.00    +0.000 A 
BRANCH  19  22
ATOM     22  C   UNL     1      47.746   2.048   6.345  0.00  0.00    +0.000 C 
ATOM     23  N   UNL     1      48.540   1.656   5.595  0.00  0.00    +0.000 NA
ENDBRANCH  19  22
ENDBRANCH  15  16
ENDBRANCH  13  15
ENDBRANCH   7  13
TORSDOF 5
ENDMDL
MODEL 4
REMARK VINA RESULT:    -7.108      2.350      6.550
REMARK INTER + INTRA:          -9.899
REMARK INTER:                  -9.092
REMARK INTRA:                  -0.807
REMARK UNBOUND:                -0.713
REMARK  Name = 
REMARK  6 active torsions:
REMARK  status: ('A' for Active; 'I' for Inactive)
REMARK    1  A    between atoms: C_1  and  C_2
REMARK    2  A    between atoms: C_4  and  C_5
REMARK    3  A    between atoms: C_10  and  N_11
REMARK    4  A    between atoms: N_11  and  C_12
REMARK    5  A    between atoms: C_12  and  C_13
REMARK    6  A    between atoms: C_16  and  C_17
REMARK                            x       y       z     vdW  Elec       q    Type
REMARK                         _______ _______ _______ _____ _____    ______ ____
ROOT
ATOM      1  C   UNL     1      44.015   2.182  10.465  0.00  0.00    +0.000 C 
ATOM      2  C   UNL     1      44.874   2.852   9.425  0.00  0.00    +0.000 A 
ATOM      3  C   UNL     1      45.731   2.029   8.672  0.00  0.00    +0.000 A 
ATOM      4  C   UNL     1      46.545   2.597   7.704  0.00  0.00    +0.000 A 
ATOM      5  N   UNL     1      46.593   3.927   7.453  0.00  0.00    +0.000 NA
ATOM      6  C   UNL     1      45.763   4.695   8.202  0.00  0.00    +0.000 A 
ATOM      7  C   UNL     1      44.842   4.237   9.164  0.00  0.00    +0.000 A 
ENDROOT
BRANCH   4   8
ATOM      8  C   UNL     1      47.425   1.720   6.868  0.00  0.00    +0.000 C 
ATOM      9  N   UNL     1      48.565   2.309   6.394  0.00  0.00    +0.000 N 
ATOM     10  O   UNL     1      47.146   0.556   6.608  0.00  0.00    +0.000 OA
ATOM     11  H   UNL     1      48.762   3.277   6.621  0.00  0.00    +0.000 HD
ATOM     12  H   UNL     1      49.192   1.778   5.809  0.00  0.00    +0.000 HD
ENDBRANCH   4   8
BRANCH   7  13
ATOM     13  N   UNL     1      44.032   5.121   9.909  0.00  0.00    +0.000 N 
ATOM     14  H   UNL     1      43.241   5.468   9.372  0.00  0.00    +0.000 HD
BRANCH  13  15
ATOM     15  C   UNL     1      44.730   6.212  10.601  0.00  0.00    +0.000 C 
BRANCH  15  16
ATOM     16  C   UNL     1      45.495   5.711  11.809  0.00  0.00    +0.000 A 
ATOM     17  C   UNL     1      46.792   6.179  12.068  0.00  0.00    +0.000 A 
ATOM     18  C   UNL     1      47.476   5.790  13.227  0.00  0.00    +0.000 A 
ATOM     19  C   UNL     1      46.869   4.930  14.146  0.00  0.00    +0.000 A 
ATOM     20  C   UNL     1      45.574   4.463  13.900  0.00  0.00    +0.000 A 
ATOM     21  C   UNL     1      44.891   4.852  12.741  0.00  0.00    +0.000 A 
BRANCH  19  22
ATOM     22  C   UNL     1      47.568   4.535  15.339  0.00  0.00    +0.000 C 
ATOM     23  N   UNL     1      48.132   4.218  16.302  0.00  0.00    +0.000 NA
ENDBRANCH  19  22
ENDBRANCH  15  16
ENDBRANCH  13  15
ENDBRANCH   7  13
TORSDOF 5
ENDMDL
MODEL 5
REMARK VINA RESULT:    -6.512      3.147      6.978
REMARK INTER + INTRA:          -9.128
REMARK INTER:                  -8.756
REMARK INTRA:                  -0.372
REMARK UNBOUND:                -0.713
REMARK  Name = 
REMARK  6 active torsions:
REMARK  status: ('A' for Active; 'I' for Inactive)
REMARK    1  A    between atoms: C_1  and  C_2
REMARK    2  A    between atoms: C_4  and  C_5
REMARK    3  A    between atoms: C_10  and  N_11
REMARK    4  A    between atoms: N_11  and  C_12
REMARK    5  A    between atoms: C_12  and  C_13
REMARK    6  A    between atoms: C_16  and  C_17
REMARK                            x       y       z     vdW  Elec       q    Type
REMARK                         _______ _______ _______ _____ _____    ______ ____
ROOT
ATOM      1  C   UNL     1      44.163   2.168  10.113  0.00  0.00    +0.000 C 
ATOM      2  C   UNL     1      45.053   2.961   9.193  0.00  0.00    +0.000 A 
ATOM      3  C   UNL     1      45.877   2.236   8.312  0.00  0.00    +0.000 A 
ATOM      4  C   UNL     1      46.718   2.919   7.447  0.00  0.00    +0.000 A 
ATOM      5  N   UNL     1      46.823   4.268   7.416  0.00  0.00    +0.000 NA
ATOM      6  C   UNL     1      46.023   4.939   8.282  0.00  0.00    +0.000 A 
ATOM      7  C   UNL     1      45.081   4.371   9.160  0.00  0.00    +0.000 A 
ENDROOT
BRANCH   4   8
ATOM      8  C   UNL     1      47.562   2.152   6.477  0.00  0.00    +0.000 C 
ATOM      9  N   UNL     1      47.934   2.836   5.351  0.00  0.00    +0.000 N 
ATOM     10  O   UNL     1      47.892   0.986   6.660  0.00  0.00    +0.000 OA
ATOM     11  H   UNL     1      47.637   3.796   5.227  0.00  0.00    +0.000 HD
ATOM     12  H   UNL     1      48.489   2.370   4.648  0.00  0.00    +0.000 HD
ENDBRANCH   4   8
BRANCH   7  13
ATOM     13  N   UNL     1      44.307   5.156  10.041  0.00  0.00    +0.000 N 
ATOM     14  H   UNL     1      44.114   6.082   9.669  0.00  0.00    +0.000 HD
BRANCH  13  15
ATOM     15  C   UNL     1      44.777   5.225  11.431  0.00  0.00    +0.000 C 
BRANCH  15  16
ATOM     16  C   UNL     1      45.489   6.532  11.718  0.00  0.00    +0.000 A 
ATOM     17  C   UNL     1      46.883   6.558  11.874  0.00  0.00    +0.000 A 
ATOM     18  C   UNL     1      47.560   7.770  12.054  0.00  0.00    +0.000 A 
ATOM     19  C   UNL     1      46.852   8.976  12.075  0.00  0.00    +0.000 A 
ATOM     20  C   UNL     1      45.464   8.960  11.914  0.00  0.00    +0.000 A 
ATOM     21  C   UNL     1      44.786   7.747  11.735  0.00  0.00    +0.000 A 
BRANCH  19  22
ATOM     22  C   UNL     1      47.548  10.221  12.254  0.00  0.00    +0.000 C 
ATOM     23  N   UNL     1      48.109  11.227  12.397  0.00  0.00    +0.000 NA
ENDBRANCH  19  22
ENDBRANCH  15  16
ENDBRANCH  13  15
ENDBRANCH   7  13
TORSDOF 5
ENDMDL
MODEL 6
REMARK VINA RESULT:    -6.021      2.420      2.935
REMARK INTER + INTRA:          -8.494
REMARK INTER:                  -8.078
REMARK INTRA:                  -0.416
REMARK UNBOUND:                -0.713
REMARK  Name = 
REMARK  6 active torsions:
REMARK  status: ('A' for Active; 'I' for Inactive)
REMARK    1  A    between atoms: C_1  and  C_2
REMARK    2  A    between atoms: C_4  and  C_5
REMARK    3  A    between atoms: C_10  and  N_11
REMARK    4  A    between atoms: N_11  and  C_12
REMARK    5  A    between atoms: C_12  and  C_13
REMARK    6  A    between atoms: C_16  and  C_17
REMARK                            x       y       z     vdW  Elec       q    Type
REMARK                         _______ _______ _______ _____ _____    ______ ____
ROOT
ATOM      1  C   UNL     1      44.918   8.936  12.079  0.00  0.00    +0.000 C 
ATOM      2  C   UNL     1      45.842   7.806  12.448  0.00  0.00    +0.000 A 
ATOM      3  C   UNL     1      47.222   8.083  12.465  0.00  0.00    +0.000 A 
ATOM      4  C   UNL     1      48.116   7.076  12.794  0.00  0.00    +0.000 A 
ATOM      5  N   UNL     1      47.741   5.805  13.075  0.00  0.00    +0.000 NA
ATOM      6  C   UNL     1      46.406   5.567  13.040  0.00  0.00    +0.000 A 
ATOM      7  C   UNL     1      45.395   6.513  12.789  0.00  0.00    +0.000 A 
ENDROOT
BRANCH   4   8
ATOM      8  C   UNL     1      49.581   7.378  12.859  0.00  0.00    +0.000 C 
ATOM      9  N   UNL     1      50.152   7.260  14.097  0.00  0.00    +0.000 N 
ATOM     10  O   UNL     1      50.232   7.722  11.880  0.00  0.00    +0.000 OA
ATOM     11  H   UNL     1      49.583   6.982  14.888  0.00  0.00    +0.000 HD
ATOM     12  H   UNL     1      51.133   7.468  14.213  0.00  0.00    +0.000 HD
ENDBRANCH   4   8
BRANCH   7  13
ATOM     13  N   UNL     1      44.028   6.161  12.755  0.00  0.00    +0.000 N 
ATOM     14  H   UNL     1      43.825   5.340  13.320  0.00  0.00    +0.000 HD
BRANCH  13  15
ATOM     15  C   UNL     1      43.418   6.059  11.423  0.00  0.00    +0.000 C 
BRANCH  15  16
ATOM     16  C   UNL     1      43.975   4.887  10.639  0.00  0.00    +0.000 A 
ATOM     17  C   UNL     1      44.872   5.106   9.582  0.00  0.00    +0.000 A 
ATOM     18  C   UNL     1      45.459   4.030   8.907  0.00  0.00    +0.000 A 
ATOM     19  C   UNL     1      45.161   2.717   9.283  0.00  0.00    +0.000 A 
ATOM     20  C   UNL     1      44.273   2.488  10.339  0.00  0.00    +0.000 A 
ATOM     21  C   UNL     1      43.686   3.566  11.013  0.00  0.00    +0.000 A 
BRANCH  19  22
ATOM     22  C   UNL     1      45.768   1.611   8.594  0.00  0.00    +0.000 C 
ATOM     23  N   UNL     1      46.259   0.719   8.036  0.00  0.00    +0.000 NA
ENDBRANCH  19  22
ENDBRANCH  15  16
ENDBRANCH  13  15
ENDBRANCH   7  13
TORSDOF 5
ENDMDL
MODEL 7
REMARK VINA RESULT:    -5.906      3.171      7.478
REMARK INTER + INTRA:          -8.345
REMARK INTER:                  -7.921
REMARK INTRA:                  -0.424
REMARK UNBOUND:                -0.713
REMARK  Name = 
REMARK  6 active torsions:
REMARK  status: ('A' for Active; 'I' for Inactive)
REMARK    1  A    between atoms: C_1  and  C_2
REMARK    2  A    between atoms: C_4  and  C_5
REMARK    3  A    between atoms: C_10  and  N_11
REMARK    4  A    between atoms: N_11  and  C_12
REMARK    5  A    between atoms: C_12  and  C_13
REMARK    6  A    between atoms: C_16  and  C_17
REMARK                            x       y       z     vdW  Elec       q    Type
REMARK                         _______ _______ _______ _____ _____    ______ ____
ROOT
ATOM      1  C   UNL     1      46.415   7.422  13.072  0.00  0.00    +0.000 C 
ATOM      2  C   UNL     1      46.141   5.948  12.933  0.00  0.00    +0.000 A 
ATOM      3  C   UNL     1      45.325   5.544  11.860  0.00  0.00    +0.000 A 
ATOM      4  C   UNL     1      45.039   4.198  11.690  0.00  0.00    +0.000 A 
ATOM      5  N   UNL     1      45.479   3.228  12.526  0.00  0.00    +0.000 NA
ATOM      6  C   UNL     1      46.255   3.650  13.555  0.00  0.00    +0.000 A 
ATOM      7  C   UNL     1      46.672   4.971  13.800  0.00  0.00    +0.000 A 
ENDROOT
BRANCH   4   8
ATOM      8  C   UNL     1      44.209   3.759  10.523  0.00  0.00    +0.000 C 
ATOM      9  N   UNL     1      43.940   4.727   9.594  0.00  0.00    +0.000 N 
ATOM     10  O   UNL     1      43.783   2.617  10.403  0.00  0.00    +0.000 OA
ATOM     11  H   UNL     1      44.300   5.665   9.728  0.00  0.00    +0.000 HD
ATOM     12  H   UNL     1      43.370   4.502   8.793  0.00  0.00    +0.000 HD
ENDBRANCH   4   8
BRANCH   7  13
ATOM     13  N   UNL     1      47.467   5.313  14.915  0.00  0.00    +0.000 N 
ATOM     14  H   UNL     1      48.461   5.303  14.702  0.00  0.00    +0.000 HD
BRANCH  13  15
ATOM     15  C   UNL     1      47.180   4.592  16.162  0.00  0.00    +0.000 C 
BRANCH  15  16
ATOM     16  C   UNL     1      48.393   3.836  16.664  0.00  0.00    +0.000 A 
ATOM     17  C   UNL     1      48.579   2.489  16.320  0.00  0.00    +0.000 A 
ATOM     18  C   UNL     1      49.738   1.804  16.706  0.00  0.00    +0.000 A 
ATOM     19  C   UNL     1      50.731   2.460  17.440  0.00  0.00    +0.000 A 
ATOM     20  C   UNL     1      50.558   3.804  17.782  0.00  0.00    +0.000 A 
ATOM     21  C   UNL     1      49.398   4.488  17.396  0.00  0.00    +0.000 A 
BRANCH  19  22
ATOM     22  C   UNL     1      51.924   1.759  17.831  0.00  0.00    +0.000 C 
ATOM     23  N   UNL     1      52.886   1.193  18.147  0.00  0.00    +0.000 NA
ENDBRANCH  19  22
ENDBRANCH  15  16
ENDBRANCH  13  15
ENDBRANCH   7  13
TORSDOF 5
ENDMDL
MODEL 8
REMARK VINA RESULT:    -5.441      2.017      3.090
REMARK INTER + INTRA:          -7.745
REMARK INTER:                  -7.345
REMARK INTRA:                  -0.400
REMARK UNBOUND:                -0.713
REMARK  Name = 
REMARK  6 active torsions:
REMARK  status: ('A' for Active; 'I' for Inactive)
REMARK    1  A    between atoms: C_1  and  C_2
REMARK    2  A    between atoms: C_4  and  C_5
REMARK    3  A    between atoms: C_10  and  N_11
REMARK    4  A    between atoms: N_11  and  C_12
REMARK    5  A    between atoms: C_12  and  C_13
REMARK    6  A    between atoms: C_16  and  C_17
REMARK                            x       y       z     vdW  Elec       q    Type
REMARK                         _______ _______ _______ _____ _____    ______ ____
ROOT
ATOM      1  C   UNL     1      48.623   7.473  15.395  0.00  0.00    +0.000 C 
ATOM      2  C   UNL     1      48.194   6.034  15.502  0.00  0.00    +0.000 A 
ATOM      3  C   UNL     1      48.773   5.264  16.529  0.00  0.00    +0.000 A 
ATOM      4  C   UNL     1      48.414   3.932  16.668  0.00  0.00    +0.000 A 
ATOM      5  N   UNL     1      47.546   3.301  15.841  0.00  0.00    +0.000 NA
ATOM      6  C   UNL     1      47.013   4.066  14.857  0.00  0.00    +0.000 A 
ATOM      7  C   UNL     1      47.241   5.439  14.650  0.00  0.00    +0.000 A 
ENDROOT
BRANCH   4   8
ATOM      8  C   UNL     1      48.992   3.123  17.786  0.00  0.00    +0.000 C 
ATOM      9  N   UNL     1      48.385   3.280  19.003  0.00  0.00    +0.000 N 
ATOM     10  O   UNL     1      49.952   2.376  17.639  0.00  0.00    +0.000 OA
ATOM     11  H   UNL     1      47.597   3.912  19.092  0.00  0.00    +0.000 HD
ATOM     12  H   UNL     1      48.737   2.777  19.803  0.00  0.00    +0.000 HD
ENDBRANCH   4   8
BRANCH   7  13
ATOM     13  N   UNL     1      46.651   6.146  13.579  0.00  0.00    +0.000 N 
ATOM     14  H   UNL     1      46.689   7.153  13.711  0.00  0.00    +0.000 HD
BRANCH  13  15
ATOM     15  C   UNL     1      45.309   5.709  13.175  0.00  0.00    +0.000 C 
BRANCH  15  16
ATOM     16  C   UNL     1      45.302   5.146  11.767  0.00  0.00    +0.000 A 
ATOM     17  C   UNL     1      45.766   5.922  10.694  0.00  0.00    +0.000 A 
ATOM     18  C   UNL     1      45.846   5.384   9.404  0.00  0.00    +0.000 A 
ATOM     19  C   UNL     1      45.466   4.060   9.169  0.00  0.00    +0.000 A 
ATOM     20  C   UNL     1      45.008   3.277  10.233  0.00  0.00    +0.000 A 
ATOM     21  C   UNL     1      44.928   3.816  11.524  0.00  0.00    +0.000 A 
BRANCH  19  22
ATOM     22  C   UNL     1      45.553   3.505   7.846  0.00  0.00    +0.000 C 
ATOM     23  N   UNL     1      45.624   3.058   6.777  0.00  0.00    +0.000 NA
ENDBRANCH  19  22
ENDBRANCH  15  16
ENDBRANCH  13  15
ENDBRANCH   7  13
TORSDOF 5
ENDMDL
MODEL 9
REMARK VINA RESULT:    -5.377      3.863      5.961
REMARK INTER + INTRA:          -7.661
REMARK INTER:                  -6.989
REMARK INTRA:                  -0.673
REMARK UNBOUND:                -0.713
REMARK  Name = 
REMARK  6 active torsions:
REMARK  status: ('A' for Active; 'I' for Inactive)
REMARK    1  A    between atoms: C_1  and  C_2
REMARK    2  A    between atoms: C_4  and  C_5
REMARK    3  A    between atoms: C_10  and  N_11
REMARK    4  A    between atoms: N_11  and  C_12
REMARK    5  A    between atoms: C_12  and  C_13
REMARK    6  A    between atoms: C_16  and  C_17
REMARK                            x       y       z     vdW  Elec       q    Type
REMARK                         _______ _______ _______ _____ _____    ______ ____
ROOT
ATOM      1  C   UNL     1      47.240   3.547  17.110  0.00  0.00    +0.000 C 
ATOM      2  C   UNL     1      48.614   4.161  17.076  0.00  0.00    +0.000 A 
ATOM      3  C   UNL     1      49.653   3.444  17.698  0.00  0.00    +0.000 A 
ATOM      4  C   UNL     1      50.937   3.968  17.699  0.00  0.00    +0.000 A 
ATOM      5  N   UNL     1      51.257   5.167  17.155  0.00  0.00    +0.000 NA
ATOM      6  C   UNL     1      50.232   5.837  16.572  0.00  0.00    +0.000 A 
ATOM      7  C   UNL     1      48.905   5.387  16.444  0.00  0.00    +0.000 A 
ENDROOT
BRANCH   4   8
ATOM      8  C   UNL     1      52.055   3.188  18.318  0.00  0.00    +0.000 C 
ATOM      9  N   UNL     1      51.987   1.831  18.156  0.00  0.00    +0.000 N 
ATOM     10  O   UNL     1      52.967   3.716  18.942  0.00  0.00    +0.000 OA
ATOM     11  H   UNL     1      51.213   1.425  17.642  0.00  0.00    +0.000 HD
ATOM     12  H   UNL     1      52.699   1.245  18.565  0.00  0.00    +0.000 HD
ENDBRANCH   4   8
BRANCH   7  13
ATOM     13  N   UNL     1      47.901   6.172  15.835  0.00  0.00    +0.000 N 
ATOM     14  H   UNL     1      46.966   5.907  16.135  0.00  0.00    +0.000 HD
BRANCH  13  15
ATOM     15  C   UNL     1      47.978   6.303  14.375  0.00  0.00    +0.000 C 
BRANCH  15  16
ATOM     16  C   UNL     1      46.919   5.470  13.680  0.00  0.00    +0.000 A 
ATOM     17  C   UNL     1      47.070   4.079  13.576  0.00  0.00    +0.000 A 
ATOM     18  C   UNL     1      46.060   3.289  13.014  0.00  0.00    +0.000 A 
ATOM     19  C   UNL     1      44.880   3.880  12.552  0.00  0.00    +0.000 A 
ATOM     20  C   UNL     1      44.718   5.265  12.657  0.00  0.00    +0.000 A 
ATOM     21  C   UNL     1      45.729   6.054  13.219  0.00  0.00    +0.000 A 
BRANCH  19  22
ATOM     22  C   UNL     1      43.840   3.069  11.980  0.00  0.00    +0.000 C 
ATOM     23  N   UNL     1      43.000   2.414  11.520  0.00  0.00    +0.000 NA
ENDBRANCH  19  22
ENDBRANCH  15  16
ENDBRANCH  13  15
ENDBRANCH   7  13
TORSDOF 5
ENDMDL
