MODEL 1
REMARK VINA RESULT:    -6.211      0.000      0.000
REMARK INTER + INTRA:          -9.322
REMARK INTER:                  -8.390
REMARK INTRA:                  -0.932
REMARK UNBOUND:                -0.932
REMARK  Name = 
REMARK  7 active torsions:
REMARK  status: ('A' for Active; 'I' for Inactive)
REMARK    1  A    between atoms: N_1  and  C_2
REMARK    2  A    between atoms: C_2  and  C_3
REMARK    3  A    between atoms: C_3  and  C_4
REMARK    4  A    between atoms: C_4  and  N_5
REMARK    5  A    between atoms: C_10  and  O_11
REMARK    6  A    between atoms: C_15  and  C_16
REMARK    7  A    between atoms: C_16  and  C_17
REMARK                            x       y       z     vdW  Elec       q    Type
REMARK                         _______ _______ _______ _____ _____    ______ ____
ROOT
ATOM      1  N   UNL     1      46.435   6.953  13.330  0.00  0.00    +0.000 NA
ATOM      2  C   UNL     1      47.145   5.666  13.226  0.00  0.00    +0.000 C 
ATOM      3  C   UNL     1      46.273   4.512  13.681  0.00  0.00    +0.000 C 
ATOM      4  C   UNL     1      45.052   4.453  12.822  0.00  0.00    +0.000 A 
ATOM      5  N   UNL     1      44.526   3.219  12.629  0.00  0.00    +0.000 NA
ATOM      6  C   UNL     1      43.423   3.179  11.890  0.00  0.00    +0.000 A 
ATOM      7  N   UNL     1      42.783   4.209  11.353  0.00  0.00    +0.000 NA
ATOM      8  C   UNL     1      43.342   5.414  11.594  0.00  0.00    +0.000 A 
ATOM      9  C   UNL     1      44.515   5.626  12.307  0.00  0.00    +0.000 A 
ATOM     10  C   UNL     1      45.150   7.009  12.546  0.00  0.00    +0.000 C 
ENDROOT
BRANCH   6  11
ATOM     11  O   UNL     1      42.910   1.939  11.692  0.00  0.00    +0.000 OA
ATOM     12  H   UNL     1      42.417   2.117  10.875  0.00  0.00    +0.000 HD
ENDBRANCH   6  11
BRANCH   1  13
ATOM     13  C   UNL     1      47.421   8.041  13.217  0.00  0.00    +0.000 C 
BRANCH  13  14
ATOM     14  C   UNL     1      48.769   7.950  13.944  0.00  0.00    +0.000 C 
BRANCH  14  15
ATOM     15  C   UNL     1      48.746   8.399  15.398  0.00  0.00    +0.000 C 
BRANCH  15  16
ATOM     16  N   UNL     1      47.467   9.053  15.664  0.00  0.00    +0.000 NA
ATOM     17  H   UNL     1      47.188   9.597  14.851  0.00  0.00    +0.000 HD
ATOM     18  H   UNL     1      47.573   9.721  16.427  0.00  0.00    +0.000 HD
ENDBRANCH  15  16
ENDBRANCH  14  15
ENDBRANCH  13  14
ENDBRANCH   1  13
BRANCH  10  19
ATOM     19  C   UNL     1      45.184   7.873  11.236  0.00  0.00    +0.000 C 
BRANCH  19  20
ATOM     20  C   UNL     1      44.340   9.133  11.232  0.00  0.00    +0.000 A 
ATOM     21  C   UNL     1      43.060   9.120  10.669  0.00  0.00    +0.000 A 
ATOM     22  C   UNL     1      42.239  10.239  10.781  0.00  0.00    +0.000 A 
ATOM     23  C   UNL     1      42.735  11.354  11.430  0.00  0.00    +0.000 A 
ATOM     24  N   UNL     1      43.991  11.436  11.918  0.00  0.00    +0.000 NA
ATOM     25  C   UNL     1      44.769  10.335  11.793  0.00  0.00    +0.000 A 
ENDBRANCH  19  20
ENDBRANCH  10  19
TORSDOF 7
ENDMDL
MODEL 2
REMARK VINA RESULT:    -5.807      2.741      3.755
REMARK INTER + INTRA:          -8.776
REMARK INTER:                  -8.111
REMARK INTRA:                  -0.665
REMARK UNBOUND:                -0.932
REMARK  Name = 
REMARK  7 active torsions:
REMARK  status: ('A' for Active; 'I' for Inactive)
REMARK    1  A    between atoms: N_1  and  C_2
REMARK    2  A    between atoms: C_2  and  C_3
REMARK    3  A    between atoms: C_3  and  C_4
REMARK    4  A    between atoms: C_4  and  N_5
REMARK    5  A    between atoms: C_10  and  O_11
REMARK    6  A    between atoms: C_15  and  C_16
REMARK    7  A    between atoms: C_16  and  C_17
REMARK                            x       y       z     vdW  Elec       q    Type
REMARK                         _______ _______ _______ _____ _____    ______ ____
ROOT
ATOM      1  N   UNL     1      46.155   4.806  13.644  0.00  0.00    +0.000 NA
ATOM      2  C   UNL     1      46.216   3.372  13.311  0.00  0.00    +0.000 C 
ATOM      3  C   UNL     1      45.089   2.971  12.379  0.00  0.00    +0.000 C 
ATOM      4  C   UNL     1      45.195   3.758  11.115  0.00  0.00    +0.000 A 
ATOM      5  N   UNL     1      44.749   3.139   9.995  0.00  0.00    +0.000 NA
ATOM      6  C   UNL     1      44.818   3.857   8.880  0.00  0.00    +0.000 A 
ATOM      7  N   UNL     1      45.249   5.106   8.760  0.00  0.00    +0.000 NA
ATOM      8  C   UNL     1      45.664   5.678   9.910  0.00  0.00    +0.000 A 
ATOM      9  C   UNL     1      45.698   5.052  11.149  0.00  0.00    +0.000 A 
ATOM     10  C   UNL     1      46.202   5.716  12.444  0.00  0.00    +0.000 C 
ENDROOT
BRANCH   6  11
ATOM     11  O   UNL     1      44.380   3.226   7.762  0.00  0.00    +0.000 OA
ATOM     12  H   UNL     1      45.016   2.493   7.753  0.00  0.00    +0.000 HD
ENDBRANCH   6  11
BRANCH   1  13
ATOM     13  C   UNL     1      47.036   5.055  14.799  0.00  0.00    +0.000 C 
BRANCH  13  14
ATOM     14  C   UNL     1      47.462   3.901  15.716  0.00  0.00    +0.000 C 
BRANCH  14  15
ATOM     15  C   UNL     1      47.180   4.118  17.196  0.00  0.00    +0.000 C 
BRANCH  15  16
ATOM     16  N   UNL     1      46.646   2.878  17.755  0.00  0.00    +0.000 NA
ATOM     17  H   UNL     1      46.997   2.087  17.221  0.00  0.00    +0.000 HD
ATOM     18  H   UNL     1      45.632   2.861  17.650  0.00  0.00    +0.000 HD
ENDBRANCH  15  16
ENDBRANCH  14  15
ENDBRANCH  13  14
ENDBRANCH   1  13
BRANCH  10  19
ATOM     19  C   UNL     1      47.550   6.488  12.223  0.00  0.00    +0.000 C 
BRANCH  19  20
ATOM     20  C   UNL     1      47.460   7.999  12.129  0.00  0.00    +0.000 A 
ATOM     21  C   UNL     1      48.600   8.755  11.839  0.00  0.00    +0.000 A 
ATOM     22  C   UNL     1      48.489  10.127  11.627  0.00  0.00    +0.000 A 
ATOM     23  C   UNL     1      47.241  10.711  11.740  0.00  0.00    +0.000 A 
ATOM     24  N   UNL     1      46.130  10.030  12.096  0.00  0.00    +0.000 NA
ATOM     25  C   UNL     1      46.266   8.699  12.298  0.00  0.00    +0.000 A 
ENDBRANCH  19  20
ENDBRANCH  10  19
TORSDOF 7
ENDMDL
MODEL 3
REMARK VINA RESULT:    -5.761      2.967      5.198
REMARK INTER + INTRA:          -8.715
REMARK INTER:                  -7.850
REMARK INTRA:                  -0.865
REMARK UNBOUND:                -0.932
REMARK  Name = 
REMARK  7 active torsions:
REMARK  status: ('A' for Active; 'I' for Inactive)
REMARK    1  A    between atoms: N_1  and  C_2
REMARK    2  A    between atoms: C_2  and  C_3
REMARK    3  A    between atoms: C_3  and  C_4
REMARK    4  A    between atoms: C_4  and  N_5
REMARK    5  A    between atoms: C_10  and  O_11
REMARK    6  A    between atoms: C_15  and  C_16
REMARK    7  A    between atoms: C_16  and  C_17
REMARK                            x       y       z     vdW  Elec       q    Type
REMARK                         _______ _______ _______ _____ _____    ______ ____
ROOT
ATOM      1  N   UNL     1      45.878   5.193  11.747  0.00  0.00    +0.000 NA
ATOM      2  C   UNL     1      45.246   4.107  12.517  0.00  0.00    +0.000 C 
ATOM      3  C   UNL     1      46.276   3.287  13.270  0.00  0.00    +0.000 C 
ATOM      4  C   UNL     1      47.011   4.177  14.218  0.00  0.00    +0.000 A 
ATOM      5  N   UNL     1      47.454   3.589  15.356  0.00  0.00    +0.000 NA
ATOM      6  C   UNL     1      48.133   4.380  16.178  0.00  0.00    +0.000 A 
ATOM      7  N   UNL     1      48.438   5.656  15.990  0.00  0.00    +0.000 NA
ATOM      8  C   UNL     1      47.987   6.184  14.832  0.00  0.00    +0.000 A 
ATOM      9  C   UNL     1      47.226   5.509  13.887  0.00  0.00    +0.000 A 
ATOM     10  C   UNL     1      46.699   6.139  12.584  0.00  0.00    +0.000 C 
ENDROOT
BRANCH   6  11
ATOM     11  O   UNL     1      48.563   3.786  17.320  0.00  0.00    +0.000 OA
ATOM     12  H   UNL     1      49.427   4.223  17.393  0.00  0.00    +0.000 HD
ENDBRANCH   6  11
BRANCH   1  13
ATOM     13  C   UNL     1      44.894   5.716  10.784  0.00  0.00    +0.000 C 
BRANCH  13  14
ATOM     14  C   UNL     1      43.925   4.767  10.068  0.00  0.00    +0.000 C 
BRANCH  14  15
ATOM     15  C   UNL     1      44.487   4.091   8.825  0.00  0.00    +0.000 C 
BRANCH  15  16
ATOM     16  N   UNL     1      45.635   4.863   8.354  0.00  0.00    +0.000 NA
ATOM     17  H   UNL     1      45.477   5.851   8.534  0.00  0.00    +0.000 HD
ATOM     18  H   UNL     1      45.720   4.770   7.342  0.00  0.00    +0.000 HD
ENDBRANCH  15  16
ENDBRANCH  14  15
ENDBRANCH  13  14
ENDBRANCH   1  13
BRANCH  10  19
ATOM     19  C   UNL     1      46.069   7.556  12.830  0.00  0.00    +0.000 C 
BRANCH  19  20
ATOM     20  C   UNL     1      46.860   8.747  12.323  0.00  0.00    +0.000 A 
ATOM     21  C   UNL     1      48.227   8.621  12.057  0.00  0.00    +0.000 A 
ATOM     22  C   UNL     1      48.921   9.676  11.471  0.00  0.00    +0.000 A 
ATOM     23  C   UNL     1      48.232  10.843  11.194  0.00  0.00    +0.000 A 
ATOM     24  N   UNL     1      46.933  11.033  11.508  0.00  0.00    +0.000 NA
ATOM     25  C   UNL     1      46.283   9.992  12.079  0.00  0.00    +0.000 A 
ENDBRANCH  19  20
ENDBRANCH  10  19
TORSDOF 7
ENDMDL
MODEL 4
REMARK VINA RESULT:    -5.713      3.297      5.751
REMARK INTER + INTRA:          -8.649
REMARK INTER:                  -7.492
REMARK INTRA:                  -1.157
REMARK UNBOUND:                -0.932
REMARK  Name = 
REMARK  7 active torsions:
REMARK  status: ('A' for Active; 'I' for Inactive)
REMARK    1  A    between atoms: N_1  and  C_2
REMARK    2  A    between atoms: C_2  and  C_3
REMARK    3  A    between atoms: C_3  and  C_4
REMARK    4  A    between atoms: C_4  and  N_5
REMARK    5  A    between atoms: C_10  and  O_11
REMARK    6  A    between atoms: C_15  and  C_16
REMARK    7  A    between atoms: C_16  and  C_17
REMARK                            x       y       z     vdW  Elec       q    Type
REMARK                         _______ _______ _______ _____ _____    ______ ____
ROOT
ATOM      1  N   UNL     1      47.675   6.500  13.927  0.00  0.00    +0.000 NA
ATOM      2  C   UNL     1      49.066   6.662  14.384  0.00  0.00    +0.000 C 
ATOM      3  C   UNL     1      49.148   6.743  15.895  0.00  0.00    +0.000 C 
ATOM      4  C   UNL     1      48.598   5.485  16.483  0.00  0.00    +0.000 A 
ATOM      5  N   UNL     1      49.144   5.096  17.661  0.00  0.00    +0.000 NA
ATOM      6  C   UNL     1      48.628   3.993  18.192  0.00  0.00    +0.000 A 
ATOM      7  N   UNL     1      47.634   3.262  17.706  0.00  0.00    +0.000 NA
ATOM      8  C   UNL     1      47.118   3.707  16.541  0.00  0.00    +0.000 A 
ATOM      9  C   UNL     1      47.569   4.813  15.834  0.00  0.00    +0.000 A 
ATOM     10  C   UNL     1      46.982   5.287  14.491  0.00  0.00    +0.000 C 
ENDROOT
BRANCH   6  11
ATOM     11  O   UNL     1      49.188   3.605  19.365  0.00  0.00    +0.000 OA
ATOM     12  H   UNL     1      48.844   4.316  19.930  0.00  0.00    +0.000 HD
ENDBRANCH   6  11
BRANCH   1  13
ATOM     13  C   UNL     1      47.623   6.779  12.481  0.00  0.00    +0.000 C 
BRANCH  13  14
ATOM     14  C   UNL     1      46.465   7.590  11.885  0.00  0.00    +0.000 C 
BRANCH  14  15
ATOM     15  C   UNL     1      45.625   8.352  12.901  0.00  0.00    +0.000 C 
BRANCH  15  16
ATOM     16  N   UNL     1      46.505   9.230  13.669  0.00  0.00    +0.000 NA
ATOM     17  H   UNL     1      47.475   9.023  13.441  0.00  0.00    +0.000 HD
ATOM     18  H   UNL     1      46.402   9.035  14.665  0.00  0.00    +0.000 HD
ENDBRANCH  15  16
ENDBRANCH  14  15
ENDBRANCH  13  14
ENDBRANCH   1  13
BRANCH  10  19
ATOM     19  C   UNL     1      46.766   4.096  13.493  0.00  0.00    +0.000 C 
BRANCH  19  20
ATOM     20  C   UNL     1      45.419   4.028  12.799  0.00  0.00    +0.000 A 
ATOM     21  C   UNL     1      44.364   4.838  13.231  0.00  0.00    +0.000 A 
ATOM     22  C   UNL     1      43.171   4.868  12.514  0.00  0.00    +0.000 A 
ATOM     23  C   UNL     1      43.055   4.061  11.398  0.00  0.00    +0.000 A 
ATOM     24  N   UNL     1      44.019   3.206  10.994  0.00  0.00    +0.000 NA
ATOM     25  C   UNL     1      45.167   3.195  11.710  0.00  0.00    +0.000 A 
ENDBRANCH  19  20
ENDBRANCH  10  19
TORSDOF 7
ENDMDL
MODEL 5
REMARK VINA RESULT:    -4.928      2.536      5.362
REMARK INTER + INTRA:          -7.590
REMARK INTER:                  -6.753
REMARK INTRA:                  -0.837
REMARK UNBOUND:                -0.932
REMARK  Name = 
REMARK  7 active torsions:
REMARK  status: ('A' for Active; 'I' for Inactive)
REMARK    1  A    between atoms: N_1  and  C_2
REMARK    2  A    between atoms: C_2  and  C_3
REMARK    3  A    between atoms: C_3  and  C_4
REMARK    4  A    between atoms: C_4  and  N_5
REMARK    5  A    between atoms: C_10  and  O_11
REMARK    6  A    between atoms: C_15  and  C_16
REMARK    7  A    between atoms: C_16  and  C_17
REMARK                            x       y       z     vdW  Elec       q    Type
REMARK                         _______ _______ _______ _____ _____    ______ ____
ROOT
ATOM      1  N   UNL     1      46.217   4.401  13.954  0.00  0.00    +0.000 NA
ATOM      2  C   UNL     1      45.289   3.836  12.959  0.00  0.00    +0.000 C 
ATOM      3  C   UNL     1      44.025   4.667  12.844  0.00  0.00    +0.000 C 
ATOM      4  C   UNL     1      44.387   6.053  12.424  0.00  0.00    +0.000 A 
ATOM      5  N   UNL     1      43.462   6.704  11.677  0.00  0.00    +0.000 NA
ATOM      6  C   UNL     1      43.779   7.947  11.333  0.00  0.00    +0.000 A 
ATOM      7  N   UNL     1      44.878   8.611  11.663  0.00  0.00    +0.000 NA
ATOM      8  C   UNL     1      45.754   7.920  12.422  0.00  0.00    +0.000 A 
ATOM      9  C   UNL     1      45.597   6.602  12.829  0.00  0.00    +0.000 A 
ATOM     10  C   UNL     1      46.624   5.824  13.673  0.00  0.00    +0.000 C 
ENDROOT
BRANCH   6  11
ATOM     11  O   UNL     1      42.852   8.587  10.576  0.00  0.00    +0.000 OA
ATOM     12  H   UNL     1      43.442   8.925   9.884  0.00  0.00    +0.000 HD
ENDBRANCH   6  11
BRANCH   1  13
ATOM     13  C   UNL     1      47.237   3.386  14.270  0.00  0.00    +0.000 C 
BRANCH  13  14
ATOM     14  C   UNL     1      47.840   3.300  15.678  0.00  0.00    +0.000 C 
BRANCH  14  15
ATOM     15  C   UNL     1      47.007   3.950  16.774  0.00  0.00    +0.000 C 
BRANCH  15  16
ATOM     16  N   UNL     1      46.553   2.909  17.693  0.00  0.00    +0.000 NA
ATOM     17  H   UNL     1      45.984   2.234  17.188  0.00  0.00    +0.000 HD
ATOM     18  H   UNL     1      45.944   3.317  18.402  0.00  0.00    +0.000 HD
ENDBRANCH  15  16
ENDBRANCH  14  15
ENDBRANCH  13  14
ENDBRANCH   1  13
BRANCH  10  19
ATOM     19  C   UNL     1      48.089   6.026  13.147  0.00  0.00    +0.000 C 
BRANCH  19  20
ATOM     20  C   UNL     1      48.971   6.972  13.940  0.00  0.00    +0.000 A 
ATOM     21  C   UNL     1      49.716   7.955  13.283  0.00  0.00    +0.000 A 
ATOM     22  C   UNL     1      50.422   8.902  14.021  0.00  0.00    +0.000 A 
ATOM     23  C   UNL     1      50.386   8.819  15.401  0.00  0.00    +0.000 A 
ATOM     24  N   UNL     1      49.744   7.839  16.072  0.00  0.00    +0.000 NA
ATOM     25  C   UNL     1      49.068   6.931  15.330  0.00  0.00    +0.000 A 
ENDBRANCH  19  20
ENDBRANCH  10  19
TORSDOF 7
ENDMDL
MODEL 6
REMARK VINA RESULT:    -4.907      3.578      5.662
REMARK INTER + INTRA:          -7.560
REMARK INTER:                  -6.882
REMARK INTRA:                  -0.678
REMARK UNBOUND:                -0.932
REMARK  Name = 
REMARK  7 active torsions:
REMARK  status: ('A' for Active; 'I' for Inactive)
REMARK    1  A    between atoms: N_1  and  C_2
REMARK    2  A    between atoms: C_2  and  C_3
REMARK    3  A    between atoms: C_3  and  C_4
REMARK    4  A    between atoms: C_4  and  N_5
REMARK    5  A    between atoms: C_10  and  O_11
REMARK    6  A    between atoms: C_15  and  C_16
REMARK    7  A    between atoms: C_16  and  C_17
REMARK                            x       y       z     vdW  Elec       q    Type
REMARK                         _______ _______ _______ _____ _____    ______ ____
ROOT
ATOM      1  N   UNL     1      48.039   6.670  14.234  0.00  0.00    +0.000 NA
ATOM      2  C   UNL     1      49.379   6.649  14.848  0.00  0.00    +0.000 C 
ATOM      3  C   UNL     1      49.295   6.606  16.361  0.00  0.00    +0.000 C 
ATOM      4  C   UNL     1      48.561   5.373  16.776  0.00  0.00    +0.000 A 
ATOM      5  N   UNL     1      48.929   4.840  17.967  0.00  0.00    +0.000 NA
ATOM      6  C   UNL     1      48.251   3.762  18.342  0.00  0.00    +0.000 A 
ATOM      7  N   UNL     1      47.252   3.180  17.693  0.00  0.00    +0.000 NA
ATOM      8  C   UNL     1      46.917   3.764  16.523  0.00  0.00    +0.000 A 
ATOM      9  C   UNL     1      47.553   4.866  15.966  0.00  0.00    +0.000 A 
ATOM     10  C   UNL     1      47.172   5.499  14.615  0.00  0.00    +0.000 C 
ENDROOT
BRANCH   6  11
ATOM     11  O   UNL     1      48.632   3.229  19.530  0.00  0.00    +0.000 OA
ATOM     12  H   UNL     1      47.962   3.645  20.096  0.00  0.00    +0.000 HD
ENDBRANCH   6  11
BRANCH   1  13
ATOM     13  C   UNL     1      48.179   7.061  12.821  0.00  0.00    +0.000 C 
BRANCH  13  14
ATOM     14  C   UNL     1      47.852   8.491  12.371  0.00  0.00    +0.000 C 
BRANCH  14  15
ATOM     15  C   UNL     1      49.061   9.392  12.161  0.00  0.00    +0.000 C 
BRANCH  15  16
ATOM     16  N   UNL     1      48.711  10.421  11.185  0.00  0.00    +0.000 NA
ATOM     17  H   UNL     1      48.446  11.274  11.671  0.00  0.00    +0.000 HD
ATOM     18  H   UNL     1      47.889  10.130  10.657  0.00  0.00    +0.000 HD
ENDBRANCH  15  16
ENDBRANCH  14  15
ENDBRANCH  13  14
ENDBRANCH   1  13
BRANCH  10  19
ATOM     19  C   UNL     1      46.955   4.416  13.500  0.00  0.00    +0.000 C 
BRANCH  19  20
ATOM     20  C   UNL     1      45.582   4.369  12.858  0.00  0.00    +0.000 A 
ATOM     21  C   UNL     1      45.169   3.228  12.163  0.00  0.00    +0.000 A 
ATOM     22  C   UNL     1      43.864   3.138  11.686  0.00  0.00    +0.000 A 
ATOM     23  C   UNL     1      43.014   4.208  11.893  0.00  0.00    +0.000 A 
ATOM     24  N   UNL     1      43.396   5.358  12.488  0.00  0.00    +0.000 NA
ATOM     25  C   UNL     1      44.669   5.420  12.940  0.00  0.00    +0.000 A 
ENDBRANCH  19  20
ENDBRANCH  10  19
TORSDOF 7
ENDMDL
MODEL 7
REMARK VINA RESULT:    -4.905      3.008      6.219
REMARK INTER + INTRA:          -7.557
REMARK INTER:                  -6.521
REMARK INTRA:                  -1.036
REMARK UNBOUND:                -0.932
REMARK  Name = 
REMARK  7 active torsions:
REMARK  status: ('A' for Active; 'I' for Inactive)
REMARK    1  A    between atoms: N_1  and  C_2
REMARK    2  A    between atoms: C_2  and  C_3
REMARK    3  A    between atoms: C_3  and  C_4
REMARK    4  A    between atoms: C_4  and  N_5
REMARK    5  A    between atoms: C_10  and  O_11
REMARK    6  A    between atoms: C_15  and  C_16
REMARK    7  A    between atoms: C_16  and  C_17
REMARK                            x       y       z     vdW  Elec       q    Type
REMARK                         _______ _______ _______ _____ _____    ______ ____
ROOT
ATOM      1  N   UNL     1      48.049   7.550  13.939  0.00  0.00    +0.000 NA
ATOM      2  C   UNL     1      46.811   7.973  13.260  0.00  0.00    +0.000 C 
ATOM      3  C   UNL     1      46.517   7.106  12.052  0.00  0.00    +0.000 C 
ATOM      4  C   UNL     1      46.357   5.689  12.494  0.00  0.00    +0.000 A 
ATOM      5  N   UNL     1      45.505   4.934  11.757  0.00  0.00    +0.000 NA
ATOM      6  C   UNL     1      45.392   3.667  12.139  0.00  0.00    +0.000 A 
ATOM      7  N   UNL     1      46.036   3.071  13.133  0.00  0.00    +0.000 NA
ATOM      8  C   UNL     1      46.884   3.866  13.819  0.00  0.00    +0.000 A 
ATOM      9  C   UNL     1      47.085   5.219  13.579  0.00  0.00    +0.000 A 
ATOM     10  C   UNL     1      48.038   6.114  14.394  0.00  0.00    +0.000 C 
ENDROOT
BRANCH   6  11
ATOM     11  O   UNL     1      44.529   2.921  11.403  0.00  0.00    +0.000 OA
ATOM     12  H   UNL     1      43.952   2.619  12.122  0.00  0.00    +0.000 HD
ENDBRANCH   6  11
BRANCH   1  13
ATOM     13  C   UNL     1      48.461   8.619  14.866  0.00  0.00    +0.000 C 
BRANCH  13  14
ATOM     14  C   UNL     1      49.700   9.473  14.568  0.00  0.00    +0.000 C 
BRANCH  14  15
ATOM     15  C   UNL     1      51.029   8.829  14.937  0.00  0.00    +0.000 C 
BRANCH  15  16
ATOM     16  N   UNL     1      51.275   7.714  14.026  0.00  0.00    +0.000 NA
ATOM     17  H   UNL     1      51.840   7.011  14.496  0.00  0.00    +0.000 HD
ATOM     18  H   UNL     1      51.826   8.034  13.231  0.00  0.00    +0.000 HD
ENDBRANCH  15  16
ENDBRANCH  14  15
ENDBRANCH  13  14
ENDBRANCH   1  13
BRANCH  10  19
ATOM     19  C   UNL     1      47.881   5.886  15.939  0.00  0.00    +0.000 C 
BRANCH  19  20
ATOM     20  C   UNL     1      48.972   5.082  16.620  0.00  0.00    +0.000 A 
ATOM     21  C   UNL     1      48.706   3.794  17.092  0.00  0.00    +0.000 A 
ATOM     22  C   UNL     1      49.740   3.011  17.600  0.00  0.00    +0.000 A 
ATOM     23  C   UNL     1      51.010   3.554  17.649  0.00  0.00    +0.000 A 
ATOM     24  N   UNL     1      51.294   4.821  17.278  0.00  0.00    +0.000 NA
ATOM     25  C   UNL     1      50.271   5.560  16.790  0.00  0.00    +0.000 A 
ENDBRANCH  19  20
ENDBRANCH  10  19
TORSDOF 7
ENDMDL
MODEL 8
REMARK VINA RESULT:    -4.793      4.160      6.488
REMARK INTER + INTRA:          -7.406
REMARK INTER:                  -6.515
REMARK INTRA:                  -0.891
REMARK UNBOUND:                -0.932
REMARK  Name = 
REMARK  7 active torsions:
REMARK  status: ('A' for Active; 'I' for Inactive)
REMARK    1  A    between atoms: N_1  and  C_2
REMARK    2  A    between atoms: C_2  and  C_3
REMARK    3  A    between atoms: C_3  and  C_4
REMARK    4  A    between atoms: C_4  and  N_5
REMARK    5  A    between atoms: C_10  and  O_11
REMARK    6  A    between atoms: C_15  and  C_16
REMARK    7  A    between atoms: C_16  and  C_17
REMARK                            x       y       z     vdW  Elec       q    Type
REMARK                         _______ _______ _______ _____ _____    ______ ____
ROOT
ATOM      1  N   UNL     1      48.927   6.101  15.097  0.00  0.00    +0.000 NA
ATOM      2  C   UNL     1      49.612   7.184  15.825  0.00  0.00    +0.000 C 
ATOM      3  C   UNL     1      50.862   7.637  15.097  0.00  0.00    +0.000 C 
ATOM      4  C   UNL     1      50.484   8.140  13.742  0.00  0.00    +0.000 A 
ATOM      5  N   UNL     1      51.269   9.123  13.237  0.00  0.00    +0.000 NA
ATOM      6  C   UNL     1      50.945   9.542  12.020  0.00  0.00    +0.000 A 
ATOM      7  N   UNL     1      49.965   9.086  11.252  0.00  0.00    +0.000 NA
ATOM      8  C   UNL     1      49.228   8.096  11.799  0.00  0.00    +0.000 A 
ATOM      9  C   UNL     1      49.405   7.575  13.074  0.00  0.00    +0.000 A 
ATOM     10  C   UNL     1      48.535   6.463  13.688  0.00  0.00    +0.000 C 
ENDROOT
BRANCH   6  11
ATOM     11  O   UNL     1      51.729  10.534  11.527  0.00  0.00    +0.000 OA
ATOM     12  H   UNL     1      51.132  11.282  11.688  0.00  0.00    +0.000 HD
ENDBRANCH   6  11
BRANCH   1  13
ATOM     13  C   UNL     1      47.947   5.477  16.003  0.00  0.00    +0.000 C 
BRANCH  13  14
ATOM     14  C   UNL     1      48.388   4.403  17.006  0.00  0.00    +0.000 C 
BRANCH  14  15
ATOM     15  C   UNL     1      48.003   2.978  16.633  0.00  0.00    +0.000 C 
BRANCH  15  16
ATOM     16  N   UNL     1      47.903   2.889  15.178  0.00  0.00    +0.000 NA
ATOM     17  H   UNL     1      47.151   2.250  14.928  0.00  0.00    +0.000 HD
ATOM     18  H   UNL     1      48.757   2.482  14.798  0.00  0.00    +0.000 HD
ENDBRANCH  15  16
ENDBRANCH  14  15
ENDBRANCH  13  14
ENDBRANCH   1  13
BRANCH  10  19
ATOM     19  C   UNL     1      47.004   6.715  13.447  0.00  0.00    +0.000 C 
BRANCH  19  20
ATOM     20  C   UNL     1      46.308   5.782  12.474  0.00  0.00    +0.000 A 
ATOM     21  C   UNL     1      45.850   4.533  12.904  0.00  0.00    +0.000 A 
ATOM     22  C   UNL     1      45.099   3.735  12.045  0.00  0.00    +0.000 A 
ATOM     23  C   UNL     1      44.853   4.197  10.765  0.00  0.00    +0.000 A 
ATOM     24  N   UNL     1      45.345   5.360  10.286  0.00  0.00    +0.000 NA
ATOM     25  C   UNL     1      46.072   6.116  11.141  0.00  0.00    +0.000 A 
ENDBRANCH  19  20
ENDBRANCH  10  19
TORSDOF 7
ENDMDL
MODEL 9
REMARK VINA RESULT:    -4.732      3.555      7.515
REMARK INTER + INTRA:          -7.324
REMARK INTER:                  -6.819
REMARK INTRA:                  -0.506
REMARK UNBOUND:                -0.932
REMARK  Name = 
REMARK  7 active torsions:
REMARK  status: ('A' for Active; 'I' for Inactive)
REMARK    1  A    between atoms: N_1  and  C_2
REMARK    2  A    between atoms: C_2  and  C_3
REMARK    3  A    between atoms: C_3  and  C_4
REMARK    4  A    between atoms: C_4  and  N_5
REMARK    5  A    between atoms: C_10  and  O_11
REMARK    6  A    between atoms: C_15  and  C_16
REMARK    7  A    between atoms: C_16  and  C_17
REMARK                            x       y       z     vdW  Elec       q    Type
REMARK                         _______ _______ _______ _____ _____    ______ ____
ROOT
ATOM      1  N   UNL     1      45.406   5.520  13.133  0.00  0.00    +0.000 NA
ATOM      2  C   UNL     1      45.701   5.972  11.762  0.00  0.00    +0.000 C 
ATOM      3  C   UNL     1      46.283   7.372  11.753  0.00  0.00    +0.000 C 
ATOM      4  C   UNL     1      47.552   7.379  12.540  0.00  0.00    +0.000 A 
ATOM      5  N   UNL     1      48.493   8.268  12.135  0.00  0.00    +0.000 NA
ATOM      6  C   UNL     1      49.606   8.288  12.859  0.00  0.00    +0.000 A 
ATOM      7  N   UNL     1      49.874   7.559  13.933  0.00  0.00    +0.000 NA
ATOM      8  C   UNL     1      48.895   6.706  14.301  0.00  0.00    +0.000 A 
ATOM      9  C   UNL     1      47.693   6.528  13.629  0.00  0.00    +0.000 A 
ATOM     10  C   UNL     1      46.600   5.528  14.051  0.00  0.00    +0.000 C 
ENDROOT
BRANCH   6  11
ATOM     11  O   UNL     1      50.546   9.173  12.440  0.00  0.00    +0.000 OA
ATOM     12  H   UNL     1      51.334   8.629  12.599  0.00  0.00    +0.000 HD
ENDBRANCH   6  11
BRANCH   1  13
ATOM     13  C   UNL     1      44.538   4.332  13.056  0.00  0.00    +0.000 C 
BRANCH  13  14
ATOM     14  C   UNL     1      44.850   3.202  12.067  0.00  0.00    +0.000 C 
BRANCH  14  15
ATOM     15  C   UNL     1      43.767   2.937  11.030  0.00  0.00    +0.000 C 
BRANCH  15  16
ATOM     16  N   UNL     1      44.343   2.145   9.946  0.00  0.00    +0.000 NA
ATOM     17  H   UNL     1      44.013   1.185  10.014  0.00  0.00    +0.000 HD
ATOM     18  H   UNL     1      45.356   2.103  10.051  0.00  0.00    +0.000 HD
ENDBRANCH  15  16
ENDBRANCH  14  15
ENDBRANCH  13  14
ENDBRANCH   1  13
BRANCH  10  19
ATOM     19  C   UNL     1      47.199   4.122  14.409  0.00  0.00    +0.000 C 
BRANCH  19  20
ATOM     20  C   UNL     1      47.572   3.893  15.861  0.00  0.00    +0.000 A 
ATOM     21  C   UNL     1      48.389   2.815  16.216  0.00  0.00    +0.000 A 
ATOM     22  C   UNL     1      48.834   2.682  17.528  0.00  0.00    +0.000 A 
ATOM     23  C   UNL     1      48.424   3.618  18.459  0.00  0.00    +0.000 A 
ATOM     24  N   UNL     1      47.572   4.627  18.175  0.00  0.00    +0.000 NA
ATOM     25  C   UNL     1      47.153   4.732  16.893  0.00  0.00    +0.000 A 
ENDBRANCH  19  20
ENDBRANCH  10  19
TORSDOF 7
ENDMDL
