MODEL 1
REMARK VINA RESULT:    -8.298      0.000      0.000
REMARK INTER + INTRA:         -12.092
REMARK INTER:                 -11.209
REMARK INTRA:                  -0.883
REMARK UNBOUND:                -0.883
REMARK  Name = 
REMARK  7 active torsions:
REMARK  status: ('A' for Active; 'I' for Inactive)
REMARK    1  A    between atoms: C_1  and  N_2
REMARK    2  A    between atoms: N_2  and  C_3
REMARK    3  A    between atoms: C_3  and  C_4
REMARK    4  A    between atoms: C_7  and  C_8
REMARK    5  A    between atoms: C_8  and  N_9
REMARK    6  A    between atoms: C_10  and  C_12
REMARK    7  A    between atoms: C_24  and  C_26
REMARK                            x       y       z     vdW  Elec       q    Type
REMARK                         _______ _______ _______ _____ _____    ______ ____
ROOT
ATOM      1  C   UNL     1      46.355   4.540  13.478  0.00  0.00    +0.000 A 
ATOM      2  C   UNL     1      46.772   5.794  13.025  0.00  0.00    +0.000 A 
ATOM      3  C   UNL     1      47.717   6.516  13.755  0.00  0.00    +0.000 A 
ATOM      4  C   UNL     1      48.219   5.969  14.934  0.00  0.00    +0.000 A 
ATOM      5  N   UNL     1      47.893   4.717  15.344  0.00  0.00    +0.000 NA
ATOM      6  C   UNL     1      46.984   4.038  14.612  0.00  0.00    +0.000 A 
ENDROOT
BRANCH   1   7
ATOM      7  C   UNL     1      45.191   3.819  12.854  0.00  0.00    +0.000 C 
BRANCH   7   9
ATOM      8  C   UNL     1      43.036   5.148  12.943  0.00  0.00    +0.000 C 
ATOM      9  N   UNL     1      44.141   4.580  12.181  0.00  0.00    +0.000 N 
ATOM     10  C   UNL     1      44.106   4.740  10.785  0.00  0.00    +0.000 C 
ATOM     11  O   UNL     1      43.242   5.438  10.245  0.00  0.00    +0.000 OA
BRANCH  10  12
ATOM     12  C   UNL     1      45.144   3.951   9.925  0.00  0.00    +0.000 C 
ATOM     13  C   UNL     1      45.531   4.752   8.670  0.00  0.00    +0.000 C 
ATOM     14  C   UNL     1      46.432   3.944   7.737  0.00  0.00    +0.000 C 
ATOM     15  C   UNL     1      45.811   2.588   7.427  0.00  0.00    +0.000 C 
ATOM     16  C   UNL     1      45.430   1.852   8.709  0.00  0.00    +0.000 C 
ATOM     17  N   UNL     1      44.538   2.657   9.539  0.00  0.00    +0.000 NA
ATOM     18  H   UNL     1      44.252   2.136  10.365  0.00  0.00    +0.000 HD
ENDBRANCH  10  12
ENDBRANCH   7   9
ENDBRANCH   1   7
BRANCH   4  19
ATOM     19  C   UNL     1      49.108   6.787  15.840  0.00  0.00    +0.000 C 
BRANCH  19  20
ATOM     20  N   UNL     1      50.182   6.022  16.422  0.00  0.00    +0.000 N 
ATOM     21  C   UNL     1      50.079   5.444  17.659  0.00  0.00    +0.000 C 
ATOM     22  O   UNL     1      49.090   5.591  18.373  0.00  0.00    +0.000 OA
ATOM     23  H   UNL     1      51.064   6.012  15.919  0.00  0.00    +0.000 HD
BRANCH  21  24
ATOM     24  C   UNL     1      51.195   4.589  18.056  0.00  0.00    +0.000 A 
ATOM     25  C   UNL     1      52.286   5.055  18.785  0.00  0.00    +0.000 A 
ATOM     26  N   UNL     1      53.147   4.016  19.025  0.00  0.00    +0.000 N 
ATOM     27  C   UNL     1      52.658   2.891  18.435  0.00  0.00    +0.000 A 
ATOM     28  N   UNL     1      53.297   1.699  18.460  0.00  0.00    +0.000 NA
ATOM     29  C   UNL     1      52.660   0.774  17.808  0.00  0.00    +0.000 A 
ATOM     30  N   UNL     1      51.455   0.947  17.159  0.00  0.00    +0.000 N 
ATOM     31  C   UNL     1      50.755   2.136  17.171  0.00  0.00    +0.000 A 
ATOM     32  O   UNL     1      49.637   2.244  16.681  0.00  0.00    +0.000 OA
ATOM     33  C   UNL     1      51.453   3.203  17.845  0.00  0.00    +0.000 A 
ATOM     34  H   UNL     1      54.012   4.061  19.548  0.00  0.00    +0.000 HD
ATOM     35  H   UNL     1      51.006   0.173  16.690  0.00  0.00    +0.000 HD
ENDBRANCH  21  24
ENDBRANCH  19  20
ENDBRANCH   4  19
TORSDOF 6
ENDMDL
MODEL 2
REMARK VINA RESULT:    -8.100      1.562      2.711
REMARK INTER + INTRA:         -11.824
REMARK INTER:                 -10.831
REMARK INTRA:                  -0.993
REMARK UNBOUND:                -0.883
REMARK  Name = 
REMARK  7 active torsions:
REMARK  status: ('A' for Active; 'I' for Inactive)
REMARK    1  A    between atoms: C_1  and  N_2
REMARK    2  A    between atoms: N_2  and  C_3
REMARK    3  A    between atoms: C_3  and  C_4
REMARK    4  A    between atoms: C_7  and  C_8
REMARK    5  A    between atoms: C_8  and  N_9
REMARK    6  A    between atoms: C_10  and  C_12
REMARK    7  A    between atoms: C_24  and  C_26
REMARK                            x       y       z     vdW  Elec       q    Type
REMARK                         _______ _______ _______ _____ _____    ______ ____
ROOT
ATOM      1  C   UNL     1      47.416   5.750  13.407  0.00  0.00    +0.000 A 
ATOM      2  C   UNL     1      48.106   6.287  14.496  0.00  0.00    +0.000 A 
ATOM      3  C   UNL     1      48.214   5.554  15.678  0.00  0.00    +0.000 A 
ATOM      4  C   UNL     1      47.617   4.297  15.750  0.00  0.00    +0.000 A 
ATOM      5  N   UNL     1      47.018   3.723  14.676  0.00  0.00    +0.000 NA
ATOM      6  C   UNL     1      46.938   4.450  13.542  0.00  0.00    +0.000 A 
ENDROOT
BRANCH   1   7
ATOM      7  C   UNL     1      47.085   6.575  12.194  0.00  0.00    +0.000 C 
BRANCH   7   9
ATOM      8  C   UNL     1      45.295   8.284  12.735  0.00  0.00    +0.000 C 
ATOM      9  N   UNL     1      45.730   7.094  12.015  0.00  0.00    +0.000 N 
ATOM     10  C   UNL     1      44.777   6.447  11.210  0.00  0.00    +0.000 C 
ATOM     11  O   UNL     1      43.658   6.938  11.027  0.00  0.00    +0.000 OA
BRANCH  10  12
ATOM     12  C   UNL     1      45.141   5.051  10.612  0.00  0.00    +0.000 C 
ATOM     13  C   UNL     1      45.543   5.181   9.133  0.00  0.00    +0.000 C 
ATOM     14  C   UNL     1      45.763   3.816   8.482  0.00  0.00    +0.000 C 
ATOM     15  C   UNL     1      44.559   2.909   8.709  0.00  0.00    +0.000 C 
ATOM     16  C   UNL     1      44.197   2.838  10.191  0.00  0.00    +0.000 C 
ATOM     17  N   UNL     1      43.961   4.168  10.745  0.00  0.00    +0.000 NA
ATOM     18  H   UNL     1      43.671   4.103  11.718  0.00  0.00    +0.000 HD
ENDBRANCH  10  12
ENDBRANCH   7   9
ENDBRANCH   1   7
BRANCH   4  19
ATOM     19  C   UNL     1      47.561   3.549  17.060  0.00  0.00    +0.000 C 
BRANCH  19  20
ATOM     20  N   UNL     1      48.863   3.202  17.571  0.00  0.00    +0.000 N 
ATOM     21  C   UNL     1      49.673   2.292  16.948  0.00  0.00    +0.000 C 
ATOM     22  O   UNL     1      49.317   1.670  15.949  0.00  0.00    +0.000 OA
ATOM     23  H   UNL     1      49.119   3.588  18.476  0.00  0.00    +0.000 HD
BRANCH  21  24
ATOM     24  C   UNL     1      51.015   2.145  17.508  0.00  0.00    +0.000 A 
ATOM     25  C   UNL     1      51.568   0.912  17.839  0.00  0.00    +0.000 A 
ATOM     26  N   UNL     1      52.841   1.099  18.313  0.00  0.00    +0.000 N 
ATOM     27  C   UNL     1      53.114   2.433  18.331  0.00  0.00    +0.000 A 
ATOM     28  N   UNL     1      54.281   2.949  18.781  0.00  0.00    +0.000 NA
ATOM     29  C   UNL     1      54.309   4.245  18.732  0.00  0.00    +0.000 A 
ATOM     30  N   UNL     1      53.284   5.045  18.268  0.00  0.00    +0.000 N 
ATOM     31  C   UNL     1      52.110   4.541  17.749  0.00  0.00    +0.000 A 
ATOM     32  O   UNL     1      51.255   5.258  17.242  0.00  0.00    +0.000 OA
ATOM     33  C   UNL     1      52.020   3.104  17.829  0.00  0.00    +0.000 A 
ATOM     34  H   UNL     1      53.484   0.377  18.610  0.00  0.00    +0.000 HD
ATOM     35  H   UNL     1      53.387   6.049  18.239  0.00  0.00    +0.000 HD
ENDBRANCH  21  24
ENDBRANCH  19  20
ENDBRANCH   4  19
TORSDOF 6
ENDMDL
MODEL 3
REMARK VINA RESULT:    -7.940      2.755      9.314
REMARK INTER + INTRA:         -11.608
REMARK INTER:                 -10.527
REMARK INTRA:                  -1.081
REMARK UNBOUND:                -0.883
REMARK  Name = 
REMARK  7 active torsions:
REMARK  status: ('A' for Active; 'I' for Inactive)
REMARK    1  A    between atoms: C_1  and  N_2
REMARK    2  A    between atoms: N_2  and  C_3
REMARK    3  A    between atoms: C_3  and  C_4
REMARK    4  A    between atoms: C_7  and  C_8
REMARK    5  A    between atoms: C_8  and  N_9
REMARK    6  A    between atoms: C_10  and  C_12
REMARK    7  A    between atoms: C_24  and  C_26
REMARK                            x       y       z     vdW  Elec       q    Type
REMARK                         _______ _______ _______ _____ _____    ______ ____
ROOT
ATOM      1  C   UNL     1      48.083   7.839  14.137  0.00  0.00    +0.000 A 
ATOM      2  C   UNL     1      48.252   6.616  13.483  0.00  0.00    +0.000 A 
ATOM      3  C   UNL     1      47.381   6.254  12.454  0.00  0.00    +0.000 A 
ATOM      4  C   UNL     1      46.348   7.122  12.109  0.00  0.00    +0.000 A 
ATOM      5  N   UNL     1      46.219   8.350  12.672  0.00  0.00    +0.000 NA
ATOM      6  C   UNL     1      47.083   8.679  13.657  0.00  0.00    +0.000 A 
ENDROOT
BRANCH   1   7
ATOM      7  C   UNL     1      48.850   8.183  15.384  0.00  0.00    +0.000 C 
BRANCH   7   9
ATOM      8  C   UNL     1      51.307   8.221  14.768  0.00  0.00    +0.000 C 
ATOM      9  N   UNL     1      50.211   7.680  15.563  0.00  0.00    +0.000 N 
ATOM     10  C   UNL     1      50.514   6.626  16.440  0.00  0.00    +0.000 C 
ATOM     11  O   UNL     1      51.680   6.260  16.618  0.00  0.00    +0.000 OA
BRANCH  10  12
ATOM     12  C   UNL     1      49.330   5.875  17.130  0.00  0.00    +0.000 C 
ATOM     13  C   UNL     1      49.752   5.351  18.513  0.00  0.00    +0.000 C 
ATOM     14  C   UNL     1      48.662   4.488  19.149  0.00  0.00    +0.000 C 
ATOM     15  C   UNL     1      48.215   3.390  18.191  0.00  0.00    +0.000 C 
ATOM     16  C   UNL     1      47.831   3.970  16.832  0.00  0.00    +0.000 C 
ATOM     17  N   UNL     1      48.924   4.750  16.258  0.00  0.00    +0.000 NA
ATOM     18  H   UNL     1      48.674   5.088  15.332  0.00  0.00    +0.000 HD
ENDBRANCH  10  12
ENDBRANCH   7   9
ENDBRANCH   1   7
BRANCH   4  19
ATOM     19  C   UNL     1      45.284   6.694  11.126  0.00  0.00    +0.000 C 
BRANCH  19  20
ATOM     20  N   UNL     1      45.510   5.379  10.583  0.00  0.00    +0.000 N 
ATOM     21  C   UNL     1      44.490   4.604  10.099  0.00  0.00    +0.000 C 
ATOM     22  O   UNL     1      43.314   4.958  10.154  0.00  0.00    +0.000 OA
ATOM     23  H   UNL     1      46.450   5.003  10.665  0.00  0.00    +0.000 HD
BRANCH  21  24
ATOM     24  C   UNL     1      44.889   3.353   9.458  0.00  0.00    +0.000 A 
ATOM     25  C   UNL     1      44.322   2.123   9.776  0.00  0.00    +0.000 A 
ATOM     26  N   UNL     1      44.883   1.150   8.991  0.00  0.00    +0.000 N 
ATOM     27  C   UNL     1      45.830   1.716   8.194  0.00  0.00    +0.000 A 
ATOM     28  N   UNL     1      46.592   1.011   7.326  0.00  0.00    +0.000 NA
ATOM     29  C   UNL     1      47.448   1.753   6.693  0.00  0.00    +0.000 A 
ATOM     30  N   UNL     1      47.589   3.116   6.852  0.00  0.00    +0.000 N 
ATOM     31  C   UNL     1      46.784   3.865   7.685  0.00  0.00    +0.000 A 
ATOM     32  O   UNL     1      46.850   5.088   7.736  0.00  0.00    +0.000 OA
ATOM     33  C   UNL     1      45.850   3.071   8.444  0.00  0.00    +0.000 A 
ATOM     34  H   UNL     1      44.648   0.166   8.993  0.00  0.00    +0.000 HD
ATOM     35  H   UNL     1      48.264   3.632   6.306  0.00  0.00    +0.000 HD
ENDBRANCH  21  24
ENDBRANCH  19  20
ENDBRANCH   4  19
TORSDOF 6
ENDMDL
MODEL 4
REMARK VINA RESULT:    -7.889      2.630      3.441
REMARK INTER + INTRA:         -11.539
REMARK INTER:                 -10.983
REMARK INTRA:                  -0.555
REMARK UNBOUND:                -0.883
REMARK  Name = 
REMARK  7 active torsions:
REMARK  status: ('A' for Active; 'I' for Inactive)
REMARK    1  A    between atoms: C_1  and  N_2
REMARK    2  A    between atoms: N_2  and  C_3
REMARK    3  A    between atoms: C_3  and  C_4
REMARK    4  A    between atoms: C_7  and  C_8
REMARK    5  A    between atoms: C_8  and  N_9
REMARK    6  A    between atoms: C_10  and  C_12
REMARK    7  A    between atoms: C_24  and  C_26
REMARK                            x       y       z     vdW  Elec       q    Type
REMARK                         _______ _______ _______ _____ _____    ______ ____
ROOT
ATOM      1  C   UNL     1      45.543   5.873  11.245  0.00  0.00    +0.000 A 
ATOM      2  C   UNL     1      46.393   5.238  12.154  0.00  0.00    +0.000 A 
ATOM      3  C   UNL     1      47.122   6.000  13.068  0.00  0.00    +0.000 A 
ATOM      4  C   UNL     1      46.993   7.387  13.045  0.00  0.00    +0.000 A 
ATOM      5  N   UNL     1      46.109   8.015  12.230  0.00  0.00    +0.000 NA
ATOM      6  C   UNL     1      45.407   7.252  11.364  0.00  0.00    +0.000 A 
ENDROOT
BRANCH   1   7
ATOM      7  C   UNL     1      44.903   5.127  10.106  0.00  0.00    +0.000 C 
BRANCH   7   9
ATOM      8  C   UNL     1      43.177   3.801  11.402  0.00  0.00    +0.000 C 
ATOM      9  N   UNL     1      44.196   3.874  10.362  0.00  0.00    +0.000 N 
ATOM     10  C   UNL     1      44.504   2.684   9.682  0.00  0.00    +0.000 C 
ATOM     11  O   UNL     1      43.852   1.653   9.874  0.00  0.00    +0.000 OA
BRANCH  10  12
ATOM     12  C   UNL     1      45.743   2.677   8.730  0.00  0.00    +0.000 C 
ATOM     13  C   UNL     1      45.451   3.483   7.453  0.00  0.00    +0.000 C 
ATOM     14  C   UNL     1      46.590   3.371   6.439  0.00  0.00    +0.000 C 
ATOM     15  C   UNL     1      46.937   1.912   6.174  0.00  0.00    +0.000 C 
ATOM     16  C   UNL     1      47.194   1.162   7.479  0.00  0.00    +0.000 C 
ATOM     17  N   UNL     1      46.057   1.272   8.388  0.00  0.00    +0.000 NA
ATOM     18  H   UNL     1      46.220   0.727   9.232  0.00  0.00    +0.000 HD
ENDBRANCH  10  12
ENDBRANCH   7   9
ENDBRANCH   1   7
BRANCH   4  19
ATOM     19  C   UNL     1      47.890   8.254  13.895  0.00  0.00    +0.000 C 
BRANCH  19  20
ATOM     20  N   UNL     1      47.891   7.878  15.286  0.00  0.00    +0.000 N 
ATOM     21  C   UNL     1      48.912   7.159  15.847  0.00  0.00    +0.000 C 
ATOM     22  O   UNL     1      49.859   6.738  15.188  0.00  0.00    +0.000 OA
ATOM     23  H   UNL     1      47.049   8.082  15.817  0.00  0.00    +0.000 HD
BRANCH  21  24
ATOM     24  C   UNL     1      48.837   6.971  17.294  0.00  0.00    +0.000 A 
ATOM     25  C   UNL     1      48.728   8.029  18.192  0.00  0.00    +0.000 A 
ATOM     26  N   UNL     1      48.651   7.533  19.468  0.00  0.00    +0.000 N 
ATOM     27  C   UNL     1      48.746   6.176  19.422  0.00  0.00    +0.000 A 
ATOM     28  N   UNL     1      48.740   5.390  20.523  0.00  0.00    +0.000 NA
ATOM     29  C   UNL     1      48.870   4.130  20.242  0.00  0.00    +0.000 A 
ATOM     30  N   UNL     1      48.993   3.609  18.971  0.00  0.00    +0.000 N 
ATOM     31  C   UNL     1      48.941   4.382  17.830  0.00  0.00    +0.000 A 
ATOM     32  O   UNL     1      48.945   3.895  16.705  0.00  0.00    +0.000 OA
ATOM     33  C   UNL     1      48.845   5.795  18.101  0.00  0.00    +0.000 A 
ATOM     34  H   UNL     1      48.547   8.073  20.317  0.00  0.00    +0.000 HD
ATOM     35  H   UNL     1      49.068   2.612  18.827  0.00  0.00    +0.000 HD
ENDBRANCH  21  24
ENDBRANCH  19  20
ENDBRANCH   4  19
TORSDOF 6
ENDMDL
MODEL 5
REMARK VINA RESULT:    -7.710      2.481      8.906
REMARK INTER + INTRA:         -11.298
REMARK INTER:                 -10.188
REMARK INTRA:                  -1.110
REMARK UNBOUND:                -0.883
REMARK  Name = 
REMARK  7 active torsions:
REMARK  status: ('A' for Active; 'I' for Inactive)
REMARK    1  A    between atoms: C_1  and  N_2
REMARK    2  A    between atoms: N_2  and  C_3
REMARK    3  A    between atoms: C_3  and  C_4
REMARK    4  A    between atoms: C_7  and  C_8
REMARK    5  A    between atoms: C_8  and  N_9
REMARK    6  A    between atoms: C_10  and  C_12
REMARK    7  A    between atoms: C_24  and  C_26
REMARK                            x       y       z     vdW  Elec       q    Type
REMARK                         _______ _______ _______ _____ _____    ______ ____
ROOT
ATOM      1  C   UNL     1      50.352   6.903  16.260  0.00  0.00    +0.000 A 
ATOM      2  C   UNL     1      49.070   6.406  16.011  0.00  0.00    +0.000 A 
ATOM      3  C   UNL     1      48.455   6.660  14.785  0.00  0.00    +0.000 A 
ATOM      4  C   UNL     1      49.134   7.418  13.834  0.00  0.00    +0.000 A 
ATOM      5  N   UNL     1      50.412   7.836  14.023  0.00  0.00    +0.000 NA
ATOM      6  C   UNL     1      50.986   7.566  15.214  0.00  0.00    +0.000 A 
ENDROOT
BRANCH   1   7
ATOM      7  C   UNL     1      50.972   6.846  17.630  0.00  0.00    +0.000 C 
BRANCH   7   9
ATOM      8  C   UNL     1      49.641   7.269  19.744  0.00  0.00    +0.000 C 
ATOM      9  N   UNL     1      50.192   6.345  18.760  0.00  0.00    +0.000 N 
ATOM     10  C   UNL     1      49.997   4.973  18.989  0.00  0.00    +0.000 C 
ATOM     11  O   UNL     1      49.284   4.576  19.917  0.00  0.00    +0.000 OA
BRANCH  10  12
ATOM     12  C   UNL     1      50.767   3.957  18.086  0.00  0.00    +0.000 C 
ATOM     13  C   UNL     1      49.830   2.830  17.617  0.00  0.00    +0.000 C 
ATOM     14  C   UNL     1      50.588   1.744  16.854  0.00  0.00    +0.000 C 
ATOM     15  C   UNL     1      51.781   1.248  17.661  0.00  0.00    +0.000 C 
ATOM     16  C   UNL     1      52.659   2.412  18.116  0.00  0.00    +0.000 C 
ATOM     17  N   UNL     1      51.889   3.396  18.872  0.00  0.00    +0.000 NA
ATOM     18  H   UNL     1      52.494   4.139  19.211  0.00  0.00    +0.000 HD
ENDBRANCH  10  12
ENDBRANCH   7   9
ENDBRANCH   1   7
BRANCH   4  19
ATOM     19  C   UNL     1      48.440   7.861  12.569  0.00  0.00    +0.000 C 
BRANCH  19  20
ATOM     20  N   UNL     1      47.302   7.044  12.230  0.00  0.00    +0.000 N 
ATOM     21  C   UNL     1      46.020   7.418  12.529  0.00  0.00    +0.000 C 
ATOM     22  O   UNL     1      45.764   8.443  13.157  0.00  0.00    +0.000 OA
ATOM     23  H   UNL     1      47.496   6.123  11.847  0.00  0.00    +0.000 HD
BRANCH  21  24
ATOM     24  C   UNL     1      44.965   6.553  12.004  0.00  0.00    +0.000 A 
ATOM     25  C   UNL     1      43.894   7.032  11.255  0.00  0.00    +0.000 A 
ATOM     26  N   UNL     1      43.095   5.981  10.886  0.00  0.00    +0.000 N 
ATOM     27  C   UNL     1      43.604   4.832  11.411  0.00  0.00    +0.000 A 
ATOM     28  N   UNL     1      43.021   3.621  11.257  0.00  0.00    +0.000 NA
ATOM     29  C   UNL     1      43.665   2.673  11.868  0.00  0.00    +0.000 A 
ATOM     30  N   UNL     1      44.825   2.842  12.595  0.00  0.00    +0.000 N 
ATOM     31  C   UNL     1      45.470   4.056  12.716  0.00  0.00    +0.000 A 
ATOM     32  O   UNL     1      46.555   4.170  13.274  0.00  0.00    +0.000 OA
ATOM     33  C   UNL     1      44.761   5.145  12.091  0.00  0.00    +0.000 A 
ATOM     34  H   UNL     1      42.257   6.032  10.321  0.00  0.00    +0.000 HD
ATOM     35  H   UNL     1      45.284   2.052  13.025  0.00  0.00    +0.000 HD
ENDBRANCH  21  24
ENDBRANCH  19  20
ENDBRANCH   4  19
TORSDOF 6
ENDMDL
MODEL 6
REMARK VINA RESULT:    -7.613      1.813      9.107
REMARK INTER + INTRA:         -11.167
REMARK INTER:                 -10.032
REMARK INTRA:                  -1.135
REMARK UNBOUND:                -0.883
REMARK  Name = 
REMARK  7 active torsions:
REMARK  status: ('A' for Active; 'I' for Inactive)
REMARK    1  A    between atoms: C_1  and  N_2
REMARK    2  A    between atoms: N_2  and  C_3
REMARK    3  A    between atoms: C_3  and  C_4
REMARK    4  A    between atoms: C_7  and  C_8
REMARK    5  A    between atoms: C_8  and  N_9
REMARK    6  A    between atoms: C_10  and  C_12
REMARK    7  A    between atoms: C_24  and  C_26
REMARK                            x       y       z     vdW  Elec       q    Type
REMARK                         _______ _______ _______ _____ _____    ______ ____
ROOT
ATOM      1  C   UNL     1      49.271   7.106  16.195  0.00  0.00    +0.000 A 
ATOM      2  C   UNL     1      49.098   8.355  15.593  0.00  0.00    +0.000 A 
ATOM      3  C   UNL     1      48.400   8.452  14.389  0.00  0.00    +0.000 A 
ATOM      4  C   UNL     1      47.898   7.291  13.805  0.00  0.00    +0.000 A 
ATOM      5  N   UNL     1      47.981   6.083  14.416  0.00  0.00    +0.000 NA
ATOM      6  C   UNL     1      48.651   6.020  15.586  0.00  0.00    +0.000 A 
ENDROOT
BRANCH   1   7
ATOM      7  C   UNL     1      50.191   6.914  17.370  0.00  0.00    +0.000 C 
BRANCH   7   9
ATOM      8  C   UNL     1      49.111   7.335  19.622  0.00  0.00    +0.000 C 
ATOM      9  N   UNL     1      49.659   6.413  18.636  0.00  0.00    +0.000 N 
ATOM     10  C   UNL     1      49.711   5.054  18.987  0.00  0.00    +0.000 C 
ATOM     11  O   UNL     1      49.200   4.646  20.036  0.00  0.00    +0.000 OA
BRANCH  10  12
ATOM     12  C   UNL     1      50.498   4.079  18.054  0.00  0.00    +0.000 C 
ATOM     13  C   UNL     1      49.599   2.913  17.605  0.00  0.00    +0.000 C 
ATOM     14  C   UNL     1      50.382   1.867  16.812  0.00  0.00    +0.000 C 
ATOM     15  C   UNL     1      51.621   1.422  17.579  0.00  0.00    +0.000 C 
ATOM     16  C   UNL     1      52.458   2.622  18.015  0.00  0.00    +0.000 C 
ATOM     17  N   UNL     1      51.667   3.565  18.802  0.00  0.00    +0.000 NA
ATOM     18  H   UNL     1      52.249   4.333  19.128  0.00  0.00    +0.000 HD
ENDBRANCH  10  12
ENDBRANCH   7   9
ENDBRANCH   1   7
BRANCH   4  19
ATOM     19  C   UNL     1      47.291   7.330  12.423  0.00  0.00    +0.000 C 
BRANCH  19  20
ATOM     20  N   UNL     1      46.674   6.085  12.039  0.00  0.00    +0.000 N 
ATOM     21  C   UNL     1      45.340   5.844  12.226  0.00  0.00    +0.000 C 
ATOM     22  O   UNL     1      44.599   6.649  12.787  0.00  0.00    +0.000 OA
ATOM     23  H   UNL     1      47.292   5.347  11.713  0.00  0.00    +0.000 HD
BRANCH  21  24
ATOM     24  C   UNL     1      44.834   4.593  11.665  0.00  0.00    +0.000 A 
ATOM     25  C   UNL     1      44.119   3.661  12.412  0.00  0.00    +0.000 A 
ATOM     26  N   UNL     1      43.761   2.613  11.603  0.00  0.00    +0.000 N 
ATOM     27  C   UNL     1      44.259   2.827  10.354  0.00  0.00    +0.000 A 
ATOM     28  N   UNL     1      44.108   1.954   9.332  0.00  0.00    +0.000 NA
ATOM     29  C   UNL     1      44.690   2.352   8.242  0.00  0.00    +0.000 A 
ATOM     30  N   UNL     1      45.387   3.534   8.100  0.00  0.00    +0.000 N 
ATOM     31  C   UNL     1      45.504   4.467   9.109  0.00  0.00    +0.000 A 
ATOM     32  O   UNL     1      46.034   5.559   8.936  0.00  0.00    +0.000 OA
ATOM     33  C   UNL     1      44.910   4.042  10.353  0.00  0.00    +0.000 A 
ATOM     34  H   UNL     1      43.220   1.803  11.875  0.00  0.00    +0.000 HD
ATOM     35  H   UNL     1      45.796   3.788   7.212  0.00  0.00    +0.000 HD
ENDBRANCH  21  24
ENDBRANCH  19  20
ENDBRANCH   4  19
TORSDOF 6
ENDMDL
MODEL 7
REMARK VINA RESULT:    -7.577      1.613      2.218
REMARK INTER + INTRA:         -11.118
REMARK INTER:                 -10.606
REMARK INTRA:                  -0.512
REMARK UNBOUND:                -0.883
REMARK  Name = 
REMARK  7 active torsions:
REMARK  status: ('A' for Active; 'I' for Inactive)
REMARK    1  A    between atoms: C_1  and  N_2
REMARK    2  A    between atoms: N_2  and  C_3
REMARK    3  A    between atoms: C_3  and  C_4
REMARK    4  A    between atoms: C_7  and  C_8
REMARK    5  A    between atoms: C_8  and  N_9
REMARK    6  A    between atoms: C_10  and  C_12
REMARK    7  A    between atoms: C_24  and  C_26
REMARK                            x       y       z     vdW  Elec       q    Type
REMARK                         _______ _______ _______ _____ _____    ______ ____
ROOT
ATOM      1  C   UNL     1      45.989   6.554  12.025  0.00  0.00    +0.000 A 
ATOM      2  C   UNL     1      45.990   7.876  12.479  0.00  0.00    +0.000 A 
ATOM      3  C   UNL     1      46.876   8.261  13.485  0.00  0.00    +0.000 A 
ATOM      4  C   UNL     1      47.738   7.310  14.026  0.00  0.00    +0.000 A 
ATOM      5  N   UNL     1      47.812   6.045  13.540  0.00  0.00    +0.000 NA
ATOM      6  C   UNL     1      46.951   5.703  12.558  0.00  0.00    +0.000 A 
ENDROOT
BRANCH   1   7
ATOM      7  C   UNL     1      44.919   6.034  11.104  0.00  0.00    +0.000 C 
BRANCH   7   9
ATOM      8  C   UNL     1      43.130   5.165  12.673  0.00  0.00    +0.000 C 
ATOM      9  N   UNL     1      44.036   4.958  11.550  0.00  0.00    +0.000 N 
ATOM     10  C   UNL     1      44.063   3.676  10.975  0.00  0.00    +0.000 C 
ATOM     11  O   UNL     1      43.266   2.802  11.329  0.00  0.00    +0.000 OA
BRANCH  10  12
ATOM     12  C   UNL     1      45.180   3.359   9.930  0.00  0.00    +0.000 C 
ATOM     13  C   UNL     1      45.126   4.356   8.759  0.00  0.00    +0.000 C 
ATOM     14  C   UNL     1      46.110   3.982   7.650  0.00  0.00    +0.000 C 
ATOM     15  C   UNL     1      45.921   2.531   7.226  0.00  0.00    +0.000 C 
ATOM     16  C   UNL     1      45.962   1.596   8.432  0.00  0.00    +0.000 C 
ATOM     17  N   UNL     1      44.975   1.979   9.437  0.00  0.00    +0.000 NA
ATOM     18  H   UNL     1      44.978   1.319  10.211  0.00  0.00    +0.000 HD
ENDBRANCH  10  12
ENDBRANCH   7   9
ENDBRANCH   1   7
BRANCH   4  19
ATOM     19  C   UNL     1      48.586   7.641  15.230  0.00  0.00    +0.000 C 
BRANCH  19  20
ATOM     20  N   UNL     1      49.296   6.502  15.755  0.00  0.00    +0.000 N 
ATOM     21  C   UNL     1      48.986   5.943  16.965  0.00  0.00    +0.000 C 
ATOM     22  O   UNL     1      48.125   6.414  17.705  0.00  0.00    +0.000 OA
ATOM     23  H   UNL     1      50.110   6.188  15.234  0.00  0.00    +0.000 HD
BRANCH  21  24
ATOM     24  C   UNL     1      49.701   4.714  17.301  0.00  0.00    +0.000 A 
ATOM     25  C   UNL     1      49.055   3.513  17.580  0.00  0.00    +0.000 A 
ATOM     26  N   UNL     1      49.992   2.543  17.829  0.00  0.00    +0.000 N 
ATOM     27  C   UNL     1      51.233   3.097  17.754  0.00  0.00    +0.000 A 
ATOM     28  N   UNL     1      52.373   2.406  17.985  0.00  0.00    +0.000 NA
ATOM     29  C   UNL     1      53.436   3.143  17.885  0.00  0.00    +0.000 A 
ATOM     30  N   UNL     1      53.444   4.486  17.569  0.00  0.00    +0.000 N 
ATOM     31  C   UNL     1      52.301   5.198  17.269  0.00  0.00    +0.000 A 
ATOM     32  O   UNL     1      52.334   6.362  16.886  0.00  0.00    +0.000 OA
ATOM     33  C   UNL     1      51.092   4.425  17.415  0.00  0.00    +0.000 A 
ATOM     34  H   UNL     1      49.808   1.571  18.041  0.00  0.00    +0.000 HD
ATOM     35  H   UNL     1      54.315   4.991  17.486  0.00  0.00    +0.000 HD
ENDBRANCH  21  24
ENDBRANCH  19  20
ENDBRANCH   4  19
TORSDOF 6
ENDMDL
MODEL 8
REMARK VINA RESULT:    -7.384      2.363      3.413
REMARK INTER + INTRA:         -10.858
REMARK INTER:                 -10.592
REMARK INTRA:                  -0.266
REMARK UNBOUND:                -0.883
REMARK  Name = 
REMARK  7 active torsions:
REMARK  status: ('A' for Active; 'I' for Inactive)
REMARK    1  A    between atoms: C_1  and  N_2
REMARK    2  A    between atoms: N_2  and  C_3
REMARK    3  A    between atoms: C_3  and  C_4
REMARK    4  A    between atoms: C_7  and  C_8
REMARK    5  A    between atoms: C_8  and  N_9
REMARK    6  A    between atoms: C_10  and  C_12
REMARK    7  A    between atoms: C_24  and  C_26
REMARK                            x       y       z     vdW  Elec       q    Type
REMARK                         _______ _______ _______ _____ _____    ______ ____
ROOT
ATOM      1  C   UNL     1      45.519   6.688  11.663  0.00  0.00    +0.000 A 
ATOM      2  C   UNL     1      45.591   8.059  11.919  0.00  0.00    +0.000 A 
ATOM      3  C   UNL     1      46.493   8.541  12.868  0.00  0.00    +0.000 A 
ATOM      4  C   UNL     1      47.300   7.635  13.553  0.00  0.00    +0.000 A 
ATOM      5  N   UNL     1      47.306   6.310  13.258  0.00  0.00    +0.000 NA
ATOM      6  C   UNL     1      46.432   5.873  12.326  0.00  0.00    +0.000 A 
ENDROOT
BRANCH   1   7
ATOM      7  C   UNL     1      44.426   6.096  10.816  0.00  0.00    +0.000 C 
BRANCH   7   9
ATOM      8  C   UNL     1      42.664   5.174  12.385  0.00  0.00    +0.000 C 
ATOM      9  N   UNL     1      43.641   4.972  11.323  0.00  0.00    +0.000 N 
ATOM     10  C   UNL     1      43.834   3.656  10.869  0.00  0.00    +0.000 C 
ATOM     11  O   UNL     1      43.117   2.733  11.269  0.00  0.00    +0.000 OA
BRANCH  10  12
ATOM     12  C   UNL     1      45.028   3.375   9.903  0.00  0.00    +0.000 C 
ATOM     13  C   UNL     1      45.039   4.386   8.744  0.00  0.00    +0.000 C 
ATOM     14  C   UNL     1      46.108   4.047   7.705  0.00  0.00    +0.000 C 
ATOM     15  C   UNL     1      45.978   2.599   7.249  0.00  0.00    +0.000 C 
ATOM     16  C   UNL     1      45.951   1.648   8.443  0.00  0.00    +0.000 C 
ATOM     17  N   UNL     1      44.886   1.998   9.379  0.00  0.00    +0.000 NA
ATOM     18  H   UNL     1      44.848   1.327  10.143  0.00  0.00    +0.000 HD
ENDBRANCH  10  12
ENDBRANCH   7   9
ENDBRANCH   1   7
BRANCH   4  19
ATOM     19  C   UNL     1      48.160   8.093  14.706  0.00  0.00    +0.000 C 
BRANCH  19  20
ATOM     20  N   UNL     1      48.316   7.092  15.730  0.00  0.00    +0.000 N 
ATOM     21  C   UNL     1      49.536   6.783  16.269  0.00  0.00    +0.000 C 
ATOM     22  O   UNL     1      50.579   7.296  15.870  0.00  0.00    +0.000 OA
ATOM     23  H   UNL     1      47.493   6.546  15.970  0.00  0.00    +0.000 HD
BRANCH  21  24
ATOM     24  C   UNL     1      49.518   5.847  17.391  0.00  0.00    +0.000 A 
ATOM     25  C   UNL     1      50.200   4.633  17.377  0.00  0.00    +0.000 A 
ATOM     26  N   UNL     1      50.013   3.996  18.576  0.00  0.00    +0.000 N 
ATOM     27  C   UNL     1      49.193   4.753  19.357  0.00  0.00    +0.000 A 
ATOM     28  N   UNL     1      48.787   4.380  20.592  0.00  0.00    +0.000 NA
ATOM     29  C   UNL     1      47.986   5.242  21.139  0.00  0.00    +0.000 A 
ATOM     30  N   UNL     1      47.579   6.426  20.559  0.00  0.00    +0.000 N 
ATOM     31  C   UNL     1      48.027   6.857  19.328  0.00  0.00    +0.000 A 
ATOM     32  O   UNL     1      47.742   7.959  18.874  0.00  0.00    +0.000 OA
ATOM     33  C   UNL     1      48.883   5.904  18.665  0.00  0.00    +0.000 A 
ATOM     34  H   UNL     1      50.408   3.106  18.852  0.00  0.00    +0.000 HD
ATOM     35  H   UNL     1      46.971   7.061  21.056  0.00  0.00    +0.000 HD
ENDBRANCH  21  24
ENDBRANCH  19  20
ENDBRANCH   4  19
TORSDOF 6
ENDMDL
MODEL 9
REMARK VINA RESULT:    -7.062      2.906      9.340
REMARK INTER + INTRA:         -10.422
REMARK INTER:                  -9.007
REMARK INTRA:                  -1.415
REMARK UNBOUND:                -0.883
REMARK  Name = 
REMARK  7 active torsions:
REMARK  status: ('A' for Active; 'I' for Inactive)
REMARK    1  A    between atoms: C_1  and  N_2
REMARK    2  A    between atoms: N_2  and  C_3
REMARK    3  A    between atoms: C_3  and  C_4
REMARK    4  A    between atoms: C_7  and  C_8
REMARK    5  A    between atoms: C_8  and  N_9
REMARK    6  A    between atoms: C_10  and  C_12
REMARK    7  A    between atoms: C_24  and  C_26
REMARK                            x       y       z     vdW  Elec       q    Type
REMARK                         _______ _______ _______ _____ _____    ______ ____
ROOT
ATOM      1  C   UNL     1      49.386   8.060  18.167  0.00  0.00    +0.000 A 
ATOM      2  C   UNL     1      50.172   7.521  17.146  0.00  0.00    +0.000 A 
ATOM      3  C   UNL     1      49.844   7.774  15.813  0.00  0.00    +0.000 A 
ATOM      4  C   UNL     1      48.726   8.556  15.530  0.00  0.00    +0.000 A 
ATOM      5  N   UNL     1      48.003   9.159  16.507  0.00  0.00    +0.000 NA
ATOM      6  C   UNL     1      48.349   8.906  17.787  0.00  0.00    +0.000 A 
ENDROOT
BRANCH   1   7
ATOM      7  C   UNL     1      49.562   7.648  19.603  0.00  0.00    +0.000 C 
BRANCH   7   9
ATOM      8  C   UNL     1      47.547   6.675  20.792  0.00  0.00    +0.000 C 
ATOM      9  N   UNL     1      48.830   6.495  20.123  0.00  0.00    +0.000 N 
ATOM     10  C   UNL     1      49.346   5.189  20.068  0.00  0.00    +0.000 C 
ATOM     11  O   UNL     1      48.682   4.224  20.459  0.00  0.00    +0.000 OA
BRANCH  10  12
ATOM     12  C   UNL     1      50.813   4.996  19.567  0.00  0.00    +0.000 C 
ATOM     13  C   UNL     1      50.849   4.079  18.332  0.00  0.00    +0.000 C 
ATOM     14  C   UNL     1      52.282   3.754  17.910  0.00  0.00    +0.000 C 
ATOM     15  C   UNL     1      53.086   3.221  19.089  0.00  0.00    +0.000 C 
ATOM     16  C   UNL     1      52.993   4.162  20.287  0.00  0.00    +0.000 C 
ATOM     17  N   UNL     1      51.604   4.403  20.669  0.00  0.00    +0.000 NA
ATOM     18  H   UNL     1      51.558   4.990  21.498  0.00  0.00    +0.000 HD
ENDBRANCH  10  12
ENDBRANCH   7   9
ENDBRANCH   1   7
BRANCH   4  19
ATOM     19  C   UNL     1      48.238   8.709  14.110  0.00  0.00    +0.000 C 
BRANCH  19  20
ATOM     20  N   UNL     1      47.206   7.766  13.760  0.00  0.00    +0.000 N 
ATOM     21  C   UNL     1      47.489   6.548  13.203  0.00  0.00    +0.000 C 
ATOM     22  O   UNL     1      48.634   6.208  12.913  0.00  0.00    +0.000 OA
ATOM     23  H   UNL     1      46.245   8.082  13.849  0.00  0.00    +0.000 HD
BRANCH  21  24
ATOM     24  C   UNL     1      46.351   5.647  13.030  0.00  0.00    +0.000 A 
ATOM     25  C   UNL     1      46.338   4.340  13.507  0.00  0.00    +0.000 A 
ATOM     26  N   UNL     1      45.129   3.764  13.214  0.00  0.00    +0.000 N 
ATOM     27  C   UNL     1      44.368   4.657  12.523  0.00  0.00    +0.000 A 
ATOM     28  N   UNL     1      43.130   4.378  12.057  0.00  0.00    +0.000 NA
ATOM     29  C   UNL     1      42.604   5.368  11.403  0.00  0.00    +0.000 A 
ATOM     30  N   UNL     1      43.208   6.592  11.195  0.00  0.00    +0.000 N 
ATOM     31  C   UNL     1      44.443   6.921  11.713  0.00  0.00    +0.000 A 
ATOM     32  O   UNL     1      44.919   8.046  11.610  0.00  0.00    +0.000 OA
ATOM     33  C   UNL     1      45.082   5.830  12.406  0.00  0.00    +0.000 A 
ATOM     34  H   UNL     1      44.835   2.827  13.458  0.00  0.00    +0.000 HD
ATOM     35  H   UNL     1      42.726   7.325  10.695  0.00  0.00    +0.000 HD
ENDBRANCH  21  24
ENDBRANCH  19  20
ENDBRANCH   4  19
TORSDOF 6
ENDMDL
