MODEL 1
REMARK VINA RESULT:    -8.296      0.000      0.000
REMARK INTER + INTRA:         -12.097
REMARK INTER:                 -11.207
REMARK INTRA:                  -0.891
REMARK UNBOUND:                -0.891
REMARK  Name = 
REMARK  7 active torsions:
REMARK  status: ('A' for Active; 'I' for Inactive)
REMARK    1  A    between atoms: C_1  and  C_2
REMARK    2  A    between atoms: C_2  and  C_3
REMARK    3  A    between atoms: C_3  and  N_4
REMARK    4  A    between atoms: C_3  and  C_17
REMARK    5  A    between atoms: C_5  and  C_7
REMARK    6  A    between atoms: C_20  and  C_21
REMARK    7  A    between atoms: C_21  and  N_22
REMARK                            x       y       z     vdW  Elec       q    Type
REMARK                         _______ _______ _______ _____ _____    ______ ____
ROOT
ATOM      1  C   UNL     1      47.454   6.912  12.795  0.00  0.00    +0.000 C 
ENDROOT
BRANCH   1   2
ATOM      2  C   UNL     1      46.449   6.000  12.074  0.00  0.00    +0.000 A 
ATOM      3  N   UNL     1      45.991   6.395  10.869  0.00  0.00    +0.000 NA
ATOM      4  C   UNL     1      45.235   5.508  10.184  0.00  0.00    +0.000 A 
ATOM      5  C   UNL     1      44.909   4.252  10.650  0.00  0.00    +0.000 A 
ATOM      6  C   UNL     1      45.383   3.967  11.911  0.00  0.00    +0.000 A 
ATOM      7  N   UNL     1      46.130   4.816  12.643  0.00  0.00    +0.000 NA
BRANCH   5   8
ATOM      8  C   UNL     1      44.131   3.262   9.842  0.00  0.00    +0.000 C 
BRANCH   8   9
ATOM      9  N   UNL     1      44.952   2.086   9.571  0.00  0.00    +0.000 N 
ATOM     10  C   UNL     1      45.692   2.179   8.378  0.00  0.00    +0.000 A 
ATOM     11  C   UNL     1      46.518   1.112   8.026  0.00  0.00    +0.000 A 
ATOM     12  C   UNL     1      47.273   1.182   6.855  0.00  0.00    +0.000 A 
ATOM     13  C   UNL     1      47.191   2.318   6.065  0.00  0.00    +0.000 A 
ATOM     14  C   UNL     1      46.359   3.339   6.487  0.00  0.00    +0.000 A 
ATOM     15  N   UNL     1      45.620   3.292   7.620  0.00  0.00    +0.000 NA
ATOM     16  H   UNL     1      44.411   1.227   9.549  0.00  0.00    +0.000 HD
ENDBRANCH   8   9
ENDBRANCH   5   8
ENDBRANCH   1   2
BRANCH   1  17
ATOM     17  N   UNL     1      48.040   6.271  13.975  0.00  0.00    +0.000 N 
ATOM     18  C   UNL     1      48.395   6.997  15.084  0.00  0.00    +0.000 C 
ATOM     19  O   UNL     1      48.247   8.216  15.138  0.00  0.00    +0.000 OA
ATOM     20  H   UNL     1      48.300   5.293  13.890  0.00  0.00    +0.000 HD
BRANCH  18  21
ATOM     21  C   UNL     1      48.923   6.259  16.238  0.00  0.00    +0.000 A 
ATOM     22  C   UNL     1      50.046   6.743  16.901  0.00  0.00    +0.000 A 
ATOM     23  S   UNL     1      50.522   5.795  18.233  0.00  0.00    +0.000 S 
ATOM     24  C   UNL     1      49.283   4.669  17.941  0.00  0.00    +0.000 A 
ATOM     25  N   UNL     1      49.149   3.562  18.721  0.00  0.00    +0.000 NA
ATOM     26  C   UNL     1      48.202   2.765  18.355  0.00  0.00    +0.000 A 
ATOM     27  N   UNL     1      47.372   2.980  17.285  0.00  0.00    +0.000 N 
ATOM     28  C   UNL     1      47.427   4.112  16.508  0.00  0.00    +0.000 A 
ATOM     29  O   UNL     1      46.618   4.317  15.611  0.00  0.00    +0.000 OA
ATOM     30  C   UNL     1      48.501   5.024  16.855  0.00  0.00    +0.000 A 
ATOM     31  H   UNL     1      46.640   2.323  17.062  0.00  0.00    +0.000 HD
ENDBRANCH  18  21
ENDBRANCH   1  17
BRANCH   1  33
ATOM     32  C   UNL     1      48.725   8.895  11.728  0.00  0.00    +0.000 C 
ATOM     33  C   UNL     1      48.530   7.390  11.795  0.00  0.00    +0.000 C 
ENDBRANCH   1  33
TORSDOF 6
ENDMDL
MODEL 2
REMARK VINA RESULT:    -8.120      2.724      3.968
REMARK INTER + INTRA:         -11.859
REMARK INTER:                 -10.887
REMARK INTRA:                  -0.972
REMARK UNBOUND:                -0.891
REMARK  Name = 
REMARK  7 active torsions:
REMARK  status: ('A' for Active; 'I' for Inactive)
REMARK    1  A    between atoms: C_1  and  C_2
REMARK    2  A    between atoms: C_2  and  C_3
REMARK    3  A    between atoms: C_3  and  N_4
REMARK    4  A    between atoms: C_3  and  C_17
REMARK    5  A    between atoms: C_5  and  C_7
REMARK    6  A    between atoms: C_20  and  C_21
REMARK    7  A    between atoms: C_21  and  N_22
REMARK                            x       y       z     vdW  Elec       q    Type
REMARK                         _______ _______ _______ _____ _____    ______ ____
ROOT
ATOM      1  C   UNL     1      47.475   4.986  14.572  0.00  0.00    +0.000 C 
ENDROOT
BRANCH   1   2
ATOM      2  C   UNL     1      46.471   4.747  13.433  0.00  0.00    +0.000 A 
ATOM      3  N   UNL     1      46.223   5.768  12.587  0.00  0.00    +0.000 NA
ATOM      4  C   UNL     1      45.464   5.490  11.503  0.00  0.00    +0.000 A 
ATOM      5  C   UNL     1      44.935   4.246  11.232  0.00  0.00    +0.000 A 
ATOM      6  C   UNL     1      45.204   3.287  12.183  0.00  0.00    +0.000 A 
ATOM      7  N   UNL     1      45.945   3.511  13.287  0.00  0.00    +0.000 NA
BRANCH   5   8
ATOM      8  C   UNL     1      44.157   3.947   9.989  0.00  0.00    +0.000 C 
BRANCH   8   9
ATOM      9  N   UNL     1      44.894   4.410   8.818  0.00  0.00    +0.000 N 
ATOM     10  C   UNL     1      45.650   3.401   8.192  0.00  0.00    +0.000 A 
ATOM     11  C   UNL     1      46.388   3.734   7.056  0.00  0.00    +0.000 A 
ATOM     12  C   UNL     1      47.136   2.751   6.409  0.00  0.00    +0.000 A 
ATOM     13  C   UNL     1      47.126   1.457   6.905  0.00  0.00    +0.000 A 
ATOM     14  C   UNL     1      46.359   1.203   8.027  0.00  0.00    +0.000 A 
ATOM     15  N   UNL     1      45.625   2.141   8.670  0.00  0.00    +0.000 NA
ATOM     16  H   UNL     1      45.509   5.191   9.026  0.00  0.00    +0.000 HD
ENDBRANCH   8   9
ENDBRANCH   5   8
ENDBRANCH   1   2
BRANCH   1  17
ATOM     17  N   UNL     1      47.608   6.405  14.909  0.00  0.00    +0.000 N 
ATOM     18  C   UNL     1      48.795   6.929  15.354  0.00  0.00    +0.000 C 
ATOM     19  O   UNL     1      49.799   6.234  15.500  0.00  0.00    +0.000 OA
ATOM     20  H   UNL     1      46.756   6.958  14.932  0.00  0.00    +0.000 HD
BRANCH  18  21
ATOM     21  C   UNL     1      48.846   8.373  15.613  0.00  0.00    +0.000 A 
ATOM     22  C   UNL     1      49.300   9.230  14.616  0.00  0.00    +0.000 A 
ATOM     23  S   UNL     1      49.275  10.875  15.056  0.00  0.00    +0.000 S 
ATOM     24  C   UNL     1      48.713  10.502  16.616  0.00  0.00    +0.000 A 
ATOM     25  N   UNL     1      48.510  11.484  17.537  0.00  0.00    +0.000 NA
ATOM     26  C   UNL     1      48.136  11.058  18.695  0.00  0.00    +0.000 A 
ATOM     27  N   UNL     1      47.937   9.739  19.014  0.00  0.00    +0.000 N 
ATOM     28  C   UNL     1      48.067   8.719  18.103  0.00  0.00    +0.000 A 
ATOM     29  O   UNL     1      47.801   7.559  18.394  0.00  0.00    +0.000 OA
ATOM     30  C   UNL     1      48.525   9.143  16.792  0.00  0.00    +0.000 A 
ATOM     31  H   UNL     1      47.628   9.474  19.937  0.00  0.00    +0.000 HD
ENDBRANCH  18  21
ENDBRANCH   1  17
BRANCH   1  33
ATOM     32  C   UNL     1      48.097   3.072  16.196  0.00  0.00    +0.000 C 
ATOM     33  C   UNL     1      47.082   4.129  15.797  0.00  0.00    +0.000 C 
ENDBRANCH   1  33
TORSDOF 6
ENDMDL
MODEL 3
REMARK VINA RESULT:    -7.756      1.655      2.026
REMARK INTER + INTRA:         -11.367
REMARK INTER:                 -10.740
REMARK INTRA:                  -0.627
REMARK UNBOUND:                -0.891
REMARK  Name = 
REMARK  7 active torsions:
REMARK  status: ('A' for Active; 'I' for Inactive)
REMARK    1  A    between atoms: C_1  and  C_2
REMARK    2  A    between atoms: C_2  and  C_3
REMARK    3  A    between atoms: C_3  and  N_4
REMARK    4  A    between atoms: C_3  and  C_17
REMARK    5  A    between atoms: C_5  and  C_7
REMARK    6  A    between atoms: C_20  and  C_21
REMARK    7  A    between atoms: C_21  and  N_22
REMARK                            x       y       z     vdW  Elec       q    Type
REMARK                         _______ _______ _______ _____ _____    ______ ____
ROOT
ATOM      1  C   UNL     1      47.691   6.716  13.509  0.00  0.00    +0.000 C 
ENDROOT
BRANCH   1   2
ATOM      2  C   UNL     1      46.649   6.020  12.618  0.00  0.00    +0.000 A 
ATOM      3  N   UNL     1      46.399   6.552  11.405  0.00  0.00    +0.000 NA
ATOM      4  C   UNL     1      45.602   5.839  10.579  0.00  0.00    +0.000 A 
ATOM      5  C   UNL     1      45.037   4.626  10.911  0.00  0.00    +0.000 A 
ATOM      6  C   UNL     1      45.314   4.195  12.189  0.00  0.00    +0.000 A 
ATOM      7  N   UNL     1      46.091   4.870  13.059  0.00  0.00    +0.000 NA
BRANCH   5   8
ATOM      8  C   UNL     1      44.217   3.821   9.952  0.00  0.00    +0.000 C 
BRANCH   8   9
ATOM      9  N   UNL     1      44.845   2.522   9.730  0.00  0.00    +0.000 N 
ATOM     10  C   UNL     1      45.609   2.461   8.549  0.00  0.00    +0.000 A 
ATOM     11  C   UNL     1      46.260   1.266   8.243  0.00  0.00    +0.000 A 
ATOM     12  C   UNL     1      47.034   1.180   7.086  0.00  0.00    +0.000 A 
ATOM     13  C   UNL     1      47.147   2.291   6.265  0.00  0.00    +0.000 A 
ATOM     14  C   UNL     1      46.483   3.442   6.643  0.00  0.00    +0.000 A 
ATOM     15  N   UNL     1      45.727   3.548   7.761  0.00  0.00    +0.000 NA
ATOM     16  H   UNL     1      44.173   1.760   9.719  0.00  0.00    +0.000 HD
ENDBRANCH   8   9
ENDBRANCH   5   8
ENDBRANCH   1   2
BRANCH   1  17
ATOM     17  N   UNL     1      47.918   5.998  14.765  0.00  0.00    +0.000 N 
ATOM     18  C   UNL     1      48.518   6.604  15.839  0.00  0.00    +0.000 C 
ATOM     19  O   UNL     1      48.900   7.772  15.798  0.00  0.00    +0.000 OA
ATOM     20  H   UNL     1      47.741   4.998  14.765  0.00  0.00    +0.000 HD
BRANCH  18  21
ATOM     21  C   UNL     1      48.653   5.820  17.074  0.00  0.00    +0.000 A 
ATOM     22  C   UNL     1      49.125   4.514  17.004  0.00  0.00    +0.000 A 
ATOM     23  S   UNL     1      49.252   3.745  18.518  0.00  0.00    +0.000 S 
ATOM     24  C   UNL     1      48.624   5.106  19.320  0.00  0.00    +0.000 A 
ATOM     25  N   UNL     1      48.435   5.095  20.667  0.00  0.00    +0.000 NA
ATOM     26  C   UNL     1      47.902   6.171  21.138  0.00  0.00    +0.000 A 
ATOM     27  N   UNL     1      47.550   7.262  20.385  0.00  0.00    +0.000 N 
ATOM     28  C   UNL     1      47.780   7.345  19.033  0.00  0.00    +0.000 A 
ATOM     29  O   UNL     1      47.533   8.364  18.400  0.00  0.00    +0.000 OA
ATOM     30  C   UNL     1      48.344   6.142  18.447  0.00  0.00    +0.000 A 
ATOM     31  H   UNL     1      47.151   8.079  20.819  0.00  0.00    +0.000 HD
ENDBRANCH  18  21
ENDBRANCH   1  17
BRANCH   1  33
ATOM     32  C   UNL     1      49.266   8.358  12.279  0.00  0.00    +0.000 C 
ATOM     33  C   UNL     1      48.997   6.925  12.710  0.00  0.00    +0.000 C 
ENDBRANCH   1  33
TORSDOF 6
ENDMDL
MODEL 4
REMARK VINA RESULT:    -7.606      1.545      2.243
REMARK INTER + INTRA:         -11.165
REMARK INTER:                 -10.298
REMARK INTRA:                  -0.868
REMARK UNBOUND:                -0.891
REMARK  Name = 
REMARK  7 active torsions:
REMARK  status: ('A' for Active; 'I' for Inactive)
REMARK    1  A    between atoms: C_1  and  C_2
REMARK    2  A    between atoms: C_2  and  C_3
REMARK    3  A    between atoms: C_3  and  N_4
REMARK    4  A    between atoms: C_3  and  C_17
REMARK    5  A    between atoms: C_5  and  C_7
REMARK    6  A    between atoms: C_20  and  C_21
REMARK    7  A    between atoms: C_21  and  N_22
REMARK                            x       y       z     vdW  Elec       q    Type
REMARK                         _______ _______ _______ _____ _____    ______ ____
ROOT
ATOM      1  C   UNL     1      47.400   6.895  13.382  0.00  0.00    +0.000 C 
ENDROOT
BRANCH   1   2
ATOM      2  C   UNL     1      46.372   6.063  12.599  0.00  0.00    +0.000 A 
ATOM      3  N   UNL     1      45.775   6.637  11.534  0.00  0.00    +0.000 NA
ATOM      4  C   UNL     1      44.997   5.839  10.768  0.00  0.00    +0.000 A 
ATOM      5  C   UNL     1      44.783   4.501  11.020  0.00  0.00    +0.000 A 
ATOM      6  C   UNL     1      45.397   4.025  12.158  0.00  0.00    +0.000 A 
ATOM      7  N   UNL     1      46.172   4.777  12.964  0.00  0.00    +0.000 NA
BRANCH   5   8
ATOM      8  C   UNL     1      43.976   3.623  10.117  0.00  0.00    +0.000 C 
BRANCH   8   9
ATOM      9  N   UNL     1      44.702   2.386   9.848  0.00  0.00    +0.000 N 
ATOM     10  C   UNL     1      45.501   2.441   8.690  0.00  0.00    +0.000 A 
ATOM     11  C   UNL     1      46.244   1.314   8.344  0.00  0.00    +0.000 A 
ATOM     12  C   UNL     1      47.054   1.345   7.208  0.00  0.00    +0.000 A 
ATOM     13  C   UNL     1      47.108   2.503   6.448  0.00  0.00    +0.000 A 
ATOM     14  C   UNL     1      46.352   3.583   6.864  0.00  0.00    +0.000 A 
ATOM     15  N   UNL     1      45.561   3.574   7.962  0.00  0.00    +0.000 NA
ATOM     16  H   UNL     1      44.089   1.579   9.778  0.00  0.00    +0.000 HD
ENDBRANCH   8   9
ENDBRANCH   5   8
ENDBRANCH   1   2
BRANCH   1  17
ATOM     17  N   UNL     1      48.022   6.133  14.467  0.00  0.00    +0.000 N 
ATOM     18  C   UNL     1      48.546   6.756  15.572  0.00  0.00    +0.000 C 
ATOM     19  O   UNL     1      48.528   7.978  15.700  0.00  0.00    +0.000 OA
ATOM     20  H   UNL     1      48.173   5.141  14.309  0.00  0.00    +0.000 HD
BRANCH  18  21
ATOM     21  C   UNL     1      49.099   5.904  16.633  0.00  0.00    +0.000 A 
ATOM     22  C   UNL     1      48.237   5.153  17.424  0.00  0.00    +0.000 A 
ATOM     23  S   UNL     1      49.027   4.197  18.590  0.00  0.00    +0.000 S 
ATOM     24  C   UNL     1      50.548   4.794  18.124  0.00  0.00    +0.000 A 
ATOM     25  N   UNL     1      51.680   4.396  18.767  0.00  0.00    +0.000 NA
ATOM     26  C   UNL     1      52.758   4.968  18.348  0.00  0.00    +0.000 A 
ATOM     27  N   UNL     1      52.809   5.895  17.339  0.00  0.00    +0.000 N 
ATOM     28  C   UNL     1      51.704   6.280  16.619  0.00  0.00    +0.000 A 
ATOM     29  O   UNL     1      51.791   7.046  15.667  0.00  0.00    +0.000 OA
ATOM     30  C   UNL     1      50.457   5.694  17.076  0.00  0.00    +0.000 A 
ATOM     31  H   UNL     1      53.689   6.292  17.049  0.00  0.00    +0.000 HD
ENDBRANCH  18  21
ENDBRANCH   1  17
BRANCH   1  33
ATOM     32  C   UNL     1      48.496   8.998  12.350  0.00  0.00    +0.000 C 
ATOM     33  C   UNL     1      48.445   7.480  12.405  0.00  0.00    +0.000 C 
ENDBRANCH   1  33
TORSDOF 6
ENDMDL
MODEL 5
REMARK VINA RESULT:    -7.546      2.826      4.433
REMARK INTER + INTRA:         -11.083
REMARK INTER:                 -10.208
REMARK INTRA:                  -0.875
REMARK UNBOUND:                -0.891
REMARK  Name = 
REMARK  7 active torsions:
REMARK  status: ('A' for Active; 'I' for Inactive)
REMARK    1  A    between atoms: C_1  and  C_2
REMARK    2  A    between atoms: C_2  and  C_3
REMARK    3  A    between atoms: C_3  and  N_4
REMARK    4  A    between atoms: C_3  and  C_17
REMARK    5  A    between atoms: C_5  and  C_7
REMARK    6  A    between atoms: C_20  and  C_21
REMARK    7  A    between atoms: C_21  and  N_22
REMARK                            x       y       z     vdW  Elec       q    Type
REMARK                         _______ _______ _______ _____ _____    ______ ____
ROOT
ATOM      1  C   UNL     1      47.989   4.557  15.761  0.00  0.00    +0.000 C 
ENDROOT
BRANCH   1   2
ATOM      2  C   UNL     1      47.177   4.699  14.464  0.00  0.00    +0.000 A 
ATOM      3  N   UNL     1      46.539   3.606  13.995  0.00  0.00    +0.000 NA
ATOM      4  C   UNL     1      45.706   3.790  12.947  0.00  0.00    +0.000 A 
ATOM      5  C   UNL     1      45.486   5.009  12.342  0.00  0.00    +0.000 A 
ATOM      6  C   UNL     1      46.223   6.050  12.863  0.00  0.00    +0.000 A 
ATOM      7  N   UNL     1      47.076   5.922  13.898  0.00  0.00    +0.000 NA
BRANCH   5   8
ATOM      8  C   UNL     1      44.504   5.199  11.229  0.00  0.00    +0.000 C 
BRANCH   8   9
ATOM      9  N   UNL     1      45.209   5.507   9.990  0.00  0.00    +0.000 N 
ATOM     10  C   UNL     1      45.506   4.371   9.213  0.00  0.00    +0.000 A 
ATOM     11  C   UNL     1      46.173   4.552   8.002  0.00  0.00    +0.000 A 
ATOM     12  C   UNL     1      46.469   3.445   7.206  0.00  0.00    +0.000 A 
ATOM     13  C   UNL     1      46.086   2.183   7.634  0.00  0.00    +0.000 A 
ATOM     14  C   UNL     1      45.417   2.087   8.840  0.00  0.00    +0.000 A 
ATOM     15  N   UNL     1      45.119   3.147   9.627  0.00  0.00    +0.000 NA
ATOM     16  H   UNL     1      46.070   6.023  10.147  0.00  0.00    +0.000 HD
ENDBRANCH   8   9
ENDBRANCH   5   8
ENDBRANCH   1   2
BRANCH   1  17
ATOM     17  N   UNL     1      47.652   5.589  16.744  0.00  0.00    +0.000 N 
ATOM     18  C   UNL     1      48.620   6.202  17.499  0.00  0.00    +0.000 C 
ATOM     19  O   UNL     1      49.809   5.911  17.395  0.00  0.00    +0.000 OA
ATOM     20  H   UNL     1      46.667   5.737  16.943  0.00  0.00    +0.000 HD
BRANCH  18  21
ATOM     21  C   UNL     1      48.192   7.265  18.419  0.00  0.00    +0.000 A 
ATOM     22  C   UNL     1      47.887   6.944  19.737  0.00  0.00    +0.000 A 
ATOM     23  S   UNL     1      47.434   8.284  20.685  0.00  0.00    +0.000 S 
ATOM     24  C   UNL     1      47.570   9.335  19.357  0.00  0.00    +0.000 A 
ATOM     25  N   UNL     1      47.278  10.659  19.483  0.00  0.00    +0.000 NA
ATOM     26  C   UNL     1      47.371  11.331  18.386  0.00  0.00    +0.000 A 
ATOM     27  N   UNL     1      47.738  10.801  17.175  0.00  0.00    +0.000 N 
ATOM     28  C   UNL     1      48.103   9.487  17.012  0.00  0.00    +0.000 A 
ATOM     29  O   UNL     1      48.508   9.060  15.937  0.00  0.00    +0.000 OA
ATOM     30  C   UNL     1      47.979   8.678  18.210  0.00  0.00    +0.000 A 
ATOM     31  H   UNL     1      47.807  11.387  16.358  0.00  0.00    +0.000 HD
ENDBRANCH  18  21
ENDBRANCH   1  17
BRANCH   1  33
ATOM     32  C   UNL     1      47.225   3.062  17.729  0.00  0.00    +0.000 C 
ATOM     33  C   UNL     1      47.813   3.130  16.329  0.00  0.00    +0.000 C 
ENDBRANCH   1  33
TORSDOF 6
ENDMDL
MODEL 6
REMARK VINA RESULT:    -7.265      2.348      4.376
REMARK INTER + INTRA:         -10.705
REMARK INTER:                  -9.534
REMARK INTRA:                  -1.171
REMARK UNBOUND:                -0.891
REMARK  Name = 
REMARK  7 active torsions:
REMARK  status: ('A' for Active; 'I' for Inactive)
REMARK    1  A    between atoms: C_1  and  C_2
REMARK    2  A    between atoms: C_2  and  C_3
REMARK    3  A    between atoms: C_3  and  N_4
REMARK    4  A    between atoms: C_3  and  C_17
REMARK    5  A    between atoms: C_5  and  C_7
REMARK    6  A    between atoms: C_20  and  C_21
REMARK    7  A    between atoms: C_21  and  N_22
REMARK                            x       y       z     vdW  Elec       q    Type
REMARK                         _______ _______ _______ _____ _____    ______ ____
ROOT
ATOM      1  C   UNL     1      47.883   4.715  15.778  0.00  0.00    +0.000 C 
ENDROOT
BRANCH   1   2
ATOM      2  C   UNL     1      47.046   4.492  14.508  0.00  0.00    +0.000 A 
ATOM      3  N   UNL     1      47.065   3.266  13.948  0.00  0.00    +0.000 NA
ATOM      4  C   UNL     1      46.202   3.047  12.930  0.00  0.00    +0.000 A 
ATOM      5  C   UNL     1      45.330   3.997  12.443  0.00  0.00    +0.000 A 
ATOM      6  C   UNL     1      45.425   5.230  13.050  0.00  0.00    +0.000 A 
ATOM      7  N   UNL     1      46.274   5.507  14.059  0.00  0.00    +0.000 NA
BRANCH   5   8
ATOM      8  C   UNL     1      44.335   3.710  11.363  0.00  0.00    +0.000 C 
BRANCH   8   9
ATOM      9  N   UNL     1      44.736   2.519  10.621  0.00  0.00    +0.000 N 
ATOM     10  C   UNL     1      45.335   2.805   9.379  0.00  0.00    +0.000 A 
ATOM     11  C   UNL     1      45.764   1.738   8.590  0.00  0.00    +0.000 A 
ATOM     12  C   UNL     1      46.371   1.992   7.360  0.00  0.00    +0.000 A 
ATOM     13  C   UNL     1      46.542   3.304   6.949  0.00  0.00    +0.000 A 
ATOM     14  C   UNL     1      46.102   4.307   7.793  0.00  0.00    +0.000 A 
ATOM     15  N   UNL     1      45.511   4.083   8.990  0.00  0.00    +0.000 NA
ATOM     16  H   UNL     1      43.966   1.875  10.467  0.00  0.00    +0.000 HD
ENDBRANCH   8   9
ENDBRANCH   5   8
ENDBRANCH   1   2
BRANCH   1  17
ATOM     17  N   UNL     1      48.213   6.127  15.985  0.00  0.00    +0.000 N 
ATOM     18  C   UNL     1      49.497   6.531  16.253  0.00  0.00    +0.000 C 
ATOM     19  O   UNL     1      50.426   5.732  16.339  0.00  0.00    +0.000 OA
ATOM     20  H   UNL     1      47.437   6.778  16.061  0.00  0.00    +0.000 HD
BRANCH  18  21
ATOM     21  C   UNL     1      49.740   7.973  16.391  0.00  0.00    +0.000 A 
ATOM     22  C   UNL     1      50.281   8.463  17.575  0.00  0.00    +0.000 A 
ATOM     23  S   UNL     1      50.530  10.147  17.574  0.00  0.00    +0.000 S 
ATOM     24  C   UNL     1      49.869  10.296  16.016  0.00  0.00    +0.000 A 
ATOM     25  N   UNL     1      49.750  11.515  15.422  0.00  0.00    +0.000 NA
ATOM     26  C   UNL     1      49.183  11.490  14.264  0.00  0.00    +0.000 A 
ATOM     27  N   UNL     1      48.731  10.354  13.641  0.00  0.00    +0.000 N 
ATOM     28  C   UNL     1      48.886   9.097  14.171  0.00  0.00    +0.000 A 
ATOM     29  O   UNL     1      48.549   8.093  13.554  0.00  0.00    +0.000 OA
ATOM     30  C   UNL     1      49.485   9.074  15.492  0.00  0.00    +0.000 A 
ATOM     31  H   UNL     1      48.310  10.403  12.726  0.00  0.00    +0.000 HD
ENDBRANCH  18  21
ENDBRANCH   1  17
BRANCH   1  33
ATOM     32  C   UNL     1      46.987   5.031  18.184  0.00  0.00    +0.000 C 
ATOM     33  C   UNL     1      47.153   4.101  16.994  0.00  0.00    +0.000 C 
ENDBRANCH   1  33
TORSDOF 6
ENDMDL
MODEL 7
REMARK VINA RESULT:    -7.229      3.637      8.135
REMARK INTER + INTRA:         -10.656
REMARK INTER:                  -9.432
REMARK INTRA:                  -1.224
REMARK UNBOUND:                -0.891
REMARK  Name = 
REMARK  7 active torsions:
REMARK  status: ('A' for Active; 'I' for Inactive)
REMARK    1  A    between atoms: C_1  and  C_2
REMARK    2  A    between atoms: C_2  and  C_3
REMARK    3  A    between atoms: C_3  and  N_4
REMARK    4  A    between atoms: C_3  and  C_17
REMARK    5  A    between atoms: C_5  and  C_7
REMARK    6  A    between atoms: C_20  and  C_21
REMARK    7  A    between atoms: C_21  and  N_22
REMARK                            x       y       z     vdW  Elec       q    Type
REMARK                         _______ _______ _______ _____ _____    ______ ____
ROOT
ATOM      1  C   UNL     1      48.271   7.362  14.376  0.00  0.00    +0.000 C 
ENDROOT
BRANCH   1   2
ATOM      2  C   UNL     1      48.780   6.574  15.593  0.00  0.00    +0.000 A 
ATOM      3  N   UNL     1      48.248   5.356  15.824  0.00  0.00    +0.000 NA
ATOM      4  C   UNL     1      48.820   4.617  16.801  0.00  0.00    +0.000 A 
ATOM      5  C   UNL     1      49.889   5.040  17.562  0.00  0.00    +0.000 A 
ATOM      6  C   UNL     1      50.324   6.317  17.281  0.00  0.00    +0.000 A 
ATOM      7  N   UNL     1      49.784   7.102  16.327  0.00  0.00    +0.000 NA
BRANCH   5   8
ATOM      8  C   UNL     1      50.550   4.175  18.588  0.00  0.00    +0.000 C 
BRANCH   8   9
ATOM      9  N   UNL     1      50.629   2.801  18.103  0.00  0.00    +0.000 N 
ATOM     10  C   UNL     1      51.947   2.352  17.894  0.00  0.00    +0.000 A 
ATOM     11  C   UNL     1      52.137   1.048  17.438  0.00  0.00    +0.000 A 
ATOM     12  C   UNL     1      53.433   0.573  17.233  0.00  0.00    +0.000 A 
ATOM     13  C   UNL     1      54.509   1.407  17.495  0.00  0.00    +0.000 A 
ATOM     14  C   UNL     1      54.238   2.682  17.957  0.00  0.00    +0.000 A 
ATOM     15  N   UNL     1      52.989   3.163  18.164  0.00  0.00    +0.000 NA
ATOM     16  H   UNL     1      50.099   2.656  17.249  0.00  0.00    +0.000 HD
ENDBRANCH   8   9
ENDBRANCH   5   8
ENDBRANCH   1   2
BRANCH   1  17
ATOM     17  N   UNL     1      47.003   6.836  13.864  0.00  0.00    +0.000 N 
ATOM     18  C   UNL     1      46.715   6.839  12.522  0.00  0.00    +0.000 C 
ATOM     19  O   UNL     1      47.499   7.289  11.689  0.00  0.00    +0.000 OA
ATOM     20  H   UNL     1      46.291   6.597  14.547  0.00  0.00    +0.000 HD
BRANCH  18  21
ATOM     21  C   UNL     1      45.443   6.241  12.099  0.00  0.00    +0.000 A 
ATOM     22  C   UNL     1      44.450   7.056  11.566  0.00  0.00    +0.000 A 
ATOM     23  S   UNL     1      43.045   6.215  11.098  0.00  0.00    +0.000 S 
ATOM     24  C   UNL     1      43.685   4.738  11.643  0.00  0.00    +0.000 A 
ATOM     25  N   UNL     1      42.956   3.591  11.566  0.00  0.00    +0.000 NA
ATOM     26  C   UNL     1      43.541   2.555  12.065  0.00  0.00    +0.000 A 
ATOM     27  N   UNL     1      44.792   2.559  12.627  0.00  0.00    +0.000 N 
ATOM     28  C   UNL     1      45.590   3.677  12.670  0.00  0.00    +0.000 A 
ATOM     29  O   UNL     1      46.736   3.632  13.101  0.00  0.00    +0.000 OA
ATOM     30  C   UNL     1      44.963   4.880  12.155  0.00  0.00    +0.000 A 
ATOM     31  H   UNL     1      45.198   1.709  12.985  0.00  0.00    +0.000 HD
ENDBRANCH  18  21
ENDBRANCH   1  17
BRANCH   1  33
ATOM     32  C   UNL     1      49.068   9.776  13.902  0.00  0.00    +0.000 C 
ATOM     33  C   UNL     1      48.180   8.863  14.731  0.00  0.00    +0.000 C 
ENDBRANCH   1  33
TORSDOF 6
ENDMDL
MODEL 8
REMARK VINA RESULT:    -7.040      2.272      3.473
REMARK INTER + INTRA:         -10.400
REMARK INTER:                  -9.330
REMARK INTRA:                  -1.069
REMARK UNBOUND:                -0.891
REMARK  Name = 
REMARK  7 active torsions:
REMARK  status: ('A' for Active; 'I' for Inactive)
REMARK    1  A    between atoms: C_1  and  C_2
REMARK    2  A    between atoms: C_2  and  C_3
REMARK    3  A    between atoms: C_3  and  N_4
REMARK    4  A    between atoms: C_3  and  C_17
REMARK    5  A    between atoms: C_5  and  C_7
REMARK    6  A    between atoms: C_20  and  C_21
REMARK    7  A    between atoms: C_21  and  N_22
REMARK                            x       y       z     vdW  Elec       q    Type
REMARK                         _______ _______ _______ _____ _____    ______ ____
ROOT
ATOM      1  C   UNL     1      49.164   7.657  15.563  0.00  0.00    +0.000 C 
ENDROOT
BRANCH   1   2
ATOM      2  C   UNL     1      48.188   7.136  14.496  0.00  0.00    +0.000 A 
ATOM      3  N   UNL     1      47.941   5.811  14.461  0.00  0.00    +0.000 NA
ATOM      4  C   UNL     1      46.963   5.396  13.624  0.00  0.00    +0.000 A 
ATOM      5  C   UNL     1      46.230   6.240  12.817  0.00  0.00    +0.000 A 
ATOM      6  C   UNL     1      46.595   7.566  12.891  0.00  0.00    +0.000 A 
ATOM      7  N   UNL     1      47.569   8.033  13.698  0.00  0.00    +0.000 NA
BRANCH   5   8
ATOM      8  C   UNL     1      45.105   5.764  11.953  0.00  0.00    +0.000 C 
BRANCH   8   9
ATOM      9  N   UNL     1      45.508   5.794  10.551  0.00  0.00    +0.000 N 
ATOM     10  C   UNL     1      45.274   4.584   9.871  0.00  0.00    +0.000 A 
ATOM     11  C   UNL     1      45.616   4.505   8.522  0.00  0.00    +0.000 A 
ATOM     12  C   UNL     1      45.384   3.322   7.821  0.00  0.00    +0.000 A 
ATOM     13  C   UNL     1      44.811   2.246   8.480  0.00  0.00    +0.000 A 
ATOM     14  C   UNL     1      44.489   2.406   9.815  0.00  0.00    +0.000 A 
ATOM     15  N   UNL     1      44.704   3.545  10.514  0.00  0.00    +0.000 NA
ATOM     16  H   UNL     1      46.483   6.049  10.429  0.00  0.00    +0.000 HD
ENDBRANCH   8   9
ENDBRANCH   5   8
ENDBRANCH   1   2
BRANCH   1  17
ATOM     17  N   UNL     1      50.154   6.650  15.951  0.00  0.00    +0.000 N 
ATOM     18  C   UNL     1      50.270   6.221  17.249  0.00  0.00    +0.000 C 
ATOM     19  O   UNL     1      49.559   6.665  18.147  0.00  0.00    +0.000 OA
ATOM     20  H   UNL     1      50.841   6.382  15.252  0.00  0.00    +0.000 HD
BRANCH  18  21
ATOM     21  C   UNL     1      51.254   5.168  17.531  0.00  0.00    +0.000 A 
ATOM     22  C   UNL     1      52.550   5.524  17.889  0.00  0.00    +0.000 A 
ATOM     23  S   UNL     1      53.566   4.195  18.210  0.00  0.00    +0.000 S 
ATOM     24  C   UNL     1      52.332   3.092  17.827  0.00  0.00    +0.000 A 
ATOM     25  N   UNL     1      52.558   1.751  17.865  0.00  0.00    +0.000 NA
ATOM     26  C   UNL     1      51.553   1.031  17.498  0.00  0.00    +0.000 A 
ATOM     27  N   UNL     1      50.337   1.530  17.105  0.00  0.00    +0.000 N 
ATOM     28  C   UNL     1      50.040   2.872  17.112  0.00  0.00    +0.000 A 
ATOM     29  O   UNL     1      48.920   3.284  16.837  0.00  0.00    +0.000 OA
ATOM     30  C   UNL     1      51.152   3.728  17.480  0.00  0.00    +0.000 A 
ATOM     31  H   UNL     1      49.587   0.910  16.845  0.00  0.00    +0.000 HD
ENDBRANCH  18  21
ENDBRANCH   1  17
BRANCH   1  33
ATOM     32  C   UNL     1      50.404   9.847  16.161  0.00  0.00    +0.000 C 
ATOM     33  C   UNL     1      49.823   8.964  15.068  0.00  0.00    +0.000 C 
ENDBRANCH   1  33
TORSDOF 6
ENDMDL
MODEL 9
REMARK VINA RESULT:    -7.027      2.028      3.132
REMARK INTER + INTRA:         -10.383
REMARK INTER:                  -9.694
REMARK INTRA:                  -0.689
REMARK UNBOUND:                -0.891
REMARK  Name = 
REMARK  7 active torsions:
REMARK  status: ('A' for Active; 'I' for Inactive)
REMARK    1  A    between atoms: C_1  and  C_2
REMARK    2  A    between atoms: C_2  and  C_3
REMARK    3  A    between atoms: C_3  and  N_4
REMARK    4  A    between atoms: C_3  and  C_17
REMARK    5  A    between atoms: C_5  and  C_7
REMARK    6  A    between atoms: C_20  and  C_21
REMARK    7  A    between atoms: C_21  and  N_22
REMARK                            x       y       z     vdW  Elec       q    Type
REMARK                         _______ _______ _______ _____ _____    ______ ____
ROOT
ATOM      1  C   UNL     1      46.801   7.437  13.035  0.00  0.00    +0.000 C 
ENDROOT
BRANCH   1   2
ATOM      2  C   UNL     1      46.230   6.285  12.194  0.00  0.00    +0.000 A 
ATOM      3  N   UNL     1      45.916   5.137  12.827  0.00  0.00    +0.000 NA
ATOM      4  C   UNL     1      45.269   4.197  12.101  0.00  0.00    +0.000 A 
ATOM      5  C   UNL     1      44.931   4.348  10.773  0.00  0.00    +0.000 A 
ATOM      6  C   UNL     1      45.341   5.535  10.207  0.00  0.00    +0.000 A 
ATOM      7  N   UNL     1      45.998   6.500  10.880  0.00  0.00    +0.000 NA
BRANCH   5   8
ATOM      8  C   UNL     1      44.151   3.322  10.012  0.00  0.00    +0.000 C 
BRANCH   8   9
ATOM      9  N   UNL     1      44.996   2.167   9.726  0.00  0.00    +0.000 N 
ATOM     10  C   UNL     1      45.665   2.250   8.490  0.00  0.00    +0.000 A 
ATOM     11  C   UNL     1      46.506   1.201   8.120  0.00  0.00    +0.000 A 
ATOM     12  C   UNL     1      47.190   1.262   6.906  0.00  0.00    +0.000 A 
ATOM     13  C   UNL     1      47.025   2.372   6.092  0.00  0.00    +0.000 A 
ATOM     14  C   UNL     1      46.184   3.376   6.534  0.00  0.00    +0.000 A 
ATOM     15  N   UNL     1      45.512   3.338   7.708  0.00  0.00    +0.000 NA
ATOM     16  H   UNL     1      44.484   1.291   9.757  0.00  0.00    +0.000 HD
ENDBRANCH   8   9
ENDBRANCH   5   8
ENDBRANCH   1   2
BRANCH   1  17
ATOM     17  N   UNL     1      47.974   7.030  13.812  0.00  0.00    +0.000 N 
ATOM     18  C   UNL     1      48.368   7.720  14.931  0.00  0.00    +0.000 C 
ATOM     19  O   UNL     1      47.764   8.713  15.329  0.00  0.00    +0.000 OA
ATOM     20  H   UNL     1      48.564   6.304  13.415  0.00  0.00    +0.000 HD
BRANCH  18  21
ATOM     21  C   UNL     1      49.524   7.204  15.675  0.00  0.00    +0.000 A 
ATOM     22  C   UNL     1      49.319   6.553  16.887  0.00  0.00    +0.000 A 
ATOM     23  S   UNL     1      50.750   5.987  17.616  0.00  0.00    +0.000 S 
ATOM     24  C   UNL     1      51.704   6.643  16.372  0.00  0.00    +0.000 A 
ATOM     25  N   UNL     1      53.061   6.540  16.406  0.00  0.00    +0.000 NA
ATOM     26  C   UNL     1      53.664   7.128  15.429  0.00  0.00    +0.000 A 
ATOM     27  N   UNL     1      53.032   7.802  14.415  0.00  0.00    +0.000 N 
ATOM     28  C   UNL     1      51.665   7.878  14.303  0.00  0.00    +0.000 A 
ATOM     29  O   UNL     1      51.128   8.414  13.342  0.00  0.00    +0.000 OA
ATOM     30  C   UNL     1      50.940   7.264  15.400  0.00  0.00    +0.000 A 
ATOM     31  H   UNL     1      53.564   8.226  13.671  0.00  0.00    +0.000 HD
ENDBRANCH  18  21
ENDBRANCH   1  17
BRANCH   1  33
ATOM     32  C   UNL     1      46.089   9.783  12.211  0.00  0.00    +0.000 C 
ATOM     33  C   UNL     1      47.096   8.648  12.122  0.00  0.00    +0.000 C 
ENDBRANCH   1  33
TORSDOF 6
ENDMDL
