MODEL 1
REMARK VINA RESULT:    -8.198      0.000      0.000
REMARK INTER + INTRA:         -11.604
REMARK INTER:                 -10.595
REMARK INTRA:                  -1.009
REMARK UNBOUND:                -1.009
REMARK  Name = 
REMARK  5 active torsions:
REMARK  status: ('A' for Active; 'I' for Inactive)
REMARK    1  A    between atoms: C_2  and  C_5
REMARK    2  A    between atoms: C_7  and  C_8
REMARK    3  A    between atoms: C_12  and  C_13
REMARK    4  A    between atoms: C_13  and  N_14
REMARK    5  A    between atoms: C_19  and  C_20
REMARK                            x       y       z     vdW  Elec       q    Type
REMARK                         _______ _______ _______ _____ _____    ______ ____
ROOT
ATOM      1  C   UNL     1      46.980   6.663  12.460  0.00  0.00    +0.000 A 
ATOM      2  C   UNL     1      47.165   5.847  13.590  0.00  0.00    +0.000 A 
ATOM      3  C   UNL     1      46.266   4.825  13.914  0.00  0.00    +0.000 A 
ATOM      4  C   UNL     1      45.130   4.617  13.135  0.00  0.00    +0.000 A 
ATOM      5  C   UNL     1      44.887   5.426  12.023  0.00  0.00    +0.000 A 
ATOM      6  C   UNL     1      45.836   6.410  11.676  0.00  0.00    +0.000 A 
ENDROOT
BRANCH   1   9
ATOM      7  C   UNL     1      50.138   8.522  11.414  0.00  0.00    +0.000 A 
ATOM      8  C   UNL     1      49.249   7.481  11.712  0.00  0.00    +0.000 A 
ATOM      9  C   UNL     1      47.931   7.754  12.121  0.00  0.00    +0.000 A 
ATOM     10  C   UNL     1      47.565   9.104  12.184  0.00  0.00    +0.000 A 
ATOM     11  C   UNL     1      48.487  10.084  11.850  0.00  0.00    +0.000 A 
ATOM     12  N   UNL     1      49.754   9.826  11.473  0.00  0.00    +0.000 NA
BRANCH   7  14
ATOM     13  F   UNL     1      52.121   9.102  10.161  0.00  0.00    +0.000 F 
ATOM     14  C   UNL     1      51.576   8.196  11.031  0.00  0.00    +0.000 C 
ATOM     15  F   UNL     1      51.705   6.987  10.413  0.00  0.00    +0.000 F 
ATOM     16  F   UNL     1      52.426   8.169  12.098  0.00  0.00    +0.000 F 
ENDBRANCH   7  14
ENDBRANCH   1   9
BRANCH   5  17
ATOM     17  C   UNL     1      43.607   5.292  11.232  0.00  0.00    +0.000 C 
BRANCH  17  18
ATOM     18  N   UNL     1      43.883   5.142   9.818  0.00  0.00    +0.000 N 
ATOM     19  C   UNL     1      44.496   3.976   9.375  0.00  0.00    +0.000 A 
ATOM     20  C   UNL     1      44.220   2.735   9.904  0.00  0.00    +0.000 A 
ATOM     21  C   UNL     1      44.854   1.656   9.339  0.00  0.00    +0.000 A 
ATOM     22  N   UNL     1      45.698   1.758   8.303  0.00  0.00    +0.000 NA
ATOM     23  C   UNL     1      45.908   3.002   7.811  0.00  0.00    +0.000 A 
ATOM     24  N   UNL     1      45.332   4.119   8.336  0.00  0.00    +0.000 NA
ATOM     25  H   UNL     1      44.347   5.937   9.384  0.00  0.00    +0.000 HD
BRANCH  23  26
ATOM     26  C   UNL     1      46.816   3.157   6.583  0.00  0.00    +0.000 C 
ATOM     27  F   UNL     1      46.809   4.415   6.045  0.00  0.00    +0.000 F 
ATOM     28  F   UNL     1      48.131   2.891   6.851  0.00  0.00    +0.000 F 
ATOM     29  F   UNL     1      46.475   2.325   5.552  0.00  0.00    +0.000 F 
ENDBRANCH  23  26
ENDBRANCH  17  18
ENDBRANCH   5  17
TORSDOF 5
ENDMDL
MODEL 2
REMARK VINA RESULT:    -8.145      3.813      4.807
REMARK INTER + INTRA:         -11.534
REMARK INTER:                 -10.642
REMARK INTRA:                  -0.892
REMARK UNBOUND:                -1.009
REMARK  Name = 
REMARK  5 active torsions:
REMARK  status: ('A' for Active; 'I' for Inactive)
REMARK    1  A    between atoms: C_2  and  C_5
REMARK    2  A    between atoms: C_7  and  C_8
REMARK    3  A    between atoms: C_12  and  C_13
REMARK    4  A    between atoms: C_13  and  N_14
REMARK    5  A    between atoms: C_19  and  C_20
REMARK                            x       y       z     vdW  Elec       q    Type
REMARK                         _______ _______ _______ _____ _____    ______ ____
ROOT
ATOM      1  C   UNL     1      47.912   6.481  13.849  0.00  0.00    +0.000 A 
ATOM      2  C   UNL     1      48.827   7.154  13.019  0.00  0.00    +0.000 A 
ATOM      3  C   UNL     1      48.498   7.525  11.711  0.00  0.00    +0.000 A 
ATOM      4  C   UNL     1      47.252   7.197  11.181  0.00  0.00    +0.000 A 
ATOM      5  C   UNL     1      46.325   6.498  11.956  0.00  0.00    +0.000 A 
ATOM      6  C   UNL     1      46.650   6.187  13.292  0.00  0.00    +0.000 A 
ENDROOT
BRANCH   1   9
ATOM      7  C   UNL     1      48.307   4.433  17.037  0.00  0.00    +0.000 A 
ATOM      8  C   UNL     1      47.984   4.790  15.722  0.00  0.00    +0.000 A 
ATOM      9  C   UNL     1      48.265   6.079  15.236  0.00  0.00    +0.000 A 
ATOM     10  C   UNL     1      48.899   6.956  16.124  0.00  0.00    +0.000 A 
ATOM     11  C   UNL     1      49.215   6.530  17.405  0.00  0.00    +0.000 A 
ATOM     12  N   UNL     1      48.933   5.300  17.878  0.00  0.00    +0.000 NA
BRANCH   7  14
ATOM     13  F   UNL     1      48.547   2.035  16.864  0.00  0.00    +0.000 F 
ATOM     14  C   UNL     1      47.937   3.048  17.553  0.00  0.00    +0.000 C 
ATOM     15  F   UNL     1      46.601   2.784  17.467  0.00  0.00    +0.000 F 
ATOM     16  F   UNL     1      48.279   2.849  18.859  0.00  0.00    +0.000 F 
ENDBRANCH   7  14
ENDBRANCH   1   9
BRANCH   5  17
ATOM     17  C   UNL     1      45.014   6.034  11.365  0.00  0.00    +0.000 C 
BRANCH  17  18
ATOM     18  N   UNL     1      45.143   5.789   9.943  0.00  0.00    +0.000 N 
ATOM     19  C   UNL     1      45.222   4.477   9.494  0.00  0.00    +0.000 A 
ATOM     20  C   UNL     1      44.501   3.446  10.055  0.00  0.00    +0.000 A 
ATOM     21  C   UNL     1      44.628   2.205   9.481  0.00  0.00    +0.000 A 
ATOM     22  N   UNL     1      45.394   1.965   8.408  0.00  0.00    +0.000 NA
ATOM     23  C   UNL     1      46.058   3.025   7.887  0.00  0.00    +0.000 A 
ATOM     24  N   UNL     1      45.998   4.278   8.417  0.00  0.00    +0.000 NA
ATOM     25  H   UNL     1      45.864   6.335   9.477  0.00  0.00    +0.000 HD
BRANCH  23  26
ATOM     26  C   UNL     1      46.895   2.809   6.620  0.00  0.00    +0.000 C 
ATOM     27  F   UNL     1      46.595   3.674   5.602  0.00  0.00    +0.000 F 
ATOM     28  F   UNL     1      48.238   2.960   6.831  0.00  0.00    +0.000 F 
ATOM     29  F   UNL     1      46.747   1.560   6.081  0.00  0.00    +0.000 F 
ENDBRANCH  23  26
ENDBRANCH  17  18
ENDBRANCH   5  17
TORSDOF 5
ENDMDL
MODEL 3
REMARK VINA RESULT:    -7.871      3.365      4.542
REMARK INTER + INTRA:         -11.181
REMARK INTER:                 -10.213
REMARK INTRA:                  -0.968
REMARK UNBOUND:                -1.009
REMARK  Name = 
REMARK  5 active torsions:
REMARK  status: ('A' for Active; 'I' for Inactive)
REMARK    1  A    between atoms: C_2  and  C_5
REMARK    2  A    between atoms: C_7  and  C_8
REMARK    3  A    between atoms: C_12  and  C_13
REMARK    4  A    between atoms: C_13  and  N_14
REMARK    5  A    between atoms: C_19  and  C_20
REMARK                            x       y       z     vdW  Elec       q    Type
REMARK                         _______ _______ _______ _____ _____    ______ ____
ROOT
ATOM      1  C   UNL     1      47.262   5.760  13.892  0.00  0.00    +0.000 A 
ATOM      2  C   UNL     1      48.151   6.606  13.205  0.00  0.00    +0.000 A 
ATOM      3  C   UNL     1      47.807   7.200  11.986  0.00  0.00    +0.000 A 
ATOM      4  C   UNL     1      46.573   6.931  11.398  0.00  0.00    +0.000 A 
ATOM      5  C   UNL     1      45.672   6.069  12.027  0.00  0.00    +0.000 A 
ATOM      6  C   UNL     1      46.011   5.529  13.284  0.00  0.00    +0.000 A 
ENDROOT
BRANCH   1   9
ATOM      7  C   UNL     1      48.813   5.149  17.318  0.00  0.00    +0.000 A 
ATOM      8  C   UNL     1      48.460   5.772  16.115  0.00  0.00    +0.000 A 
ATOM      9  C   UNL     1      47.631   5.121  15.183  0.00  0.00    +0.000 A 
ATOM     10  C   UNL     1      47.171   3.848  15.540  0.00  0.00    +0.000 A 
ATOM     11  C   UNL     1      47.538   3.300  16.759  0.00  0.00    +0.000 A 
ATOM     12  N   UNL     1      48.344   3.915  17.647  0.00  0.00    +0.000 NA
BRANCH   7  14
ATOM     13  F   UNL     1      49.185   6.924  18.915  0.00  0.00    +0.000 F 
ATOM     14  C   UNL     1      49.759   5.855  18.281  0.00  0.00    +0.000 C 
ATOM     15  F   UNL     1      50.869   6.358  17.669  0.00  0.00    +0.000 F 
ATOM     16  F   UNL     1      50.212   5.047  19.283  0.00  0.00    +0.000 F 
ENDBRANCH   7  14
ENDBRANCH   1   9
BRANCH   5  17
ATOM     17  C   UNL     1      44.378   5.676  11.353  0.00  0.00    +0.000 C 
BRANCH  17  18
ATOM     18  N   UNL     1      44.569   5.487   9.930  0.00  0.00    +0.000 N 
ATOM     19  C   UNL     1      44.901   4.222   9.461  0.00  0.00    +0.000 A 
ATOM     20  C   UNL     1      44.382   3.062   9.994  0.00  0.00    +0.000 A 
ATOM     21  C   UNL     1      44.750   1.879   9.402  0.00  0.00    +0.000 A 
ATOM     22  N   UNL     1      45.562   1.809   8.339  0.00  0.00    +0.000 NA
ATOM     23  C   UNL     1      46.018   2.984   7.845  0.00  0.00    +0.000 A 
ATOM     24  N   UNL     1      45.715   4.193   8.394  0.00  0.00    +0.000 NA
ATOM     25  H   UNL     1      45.180   6.167   9.484  0.00  0.00    +0.000 HD
BRANCH  23  26
ATOM     26  C   UNL     1      46.898   2.954   6.588  0.00  0.00    +0.000 C 
ATOM     27  F   UNL     1      46.744   4.047   5.778  0.00  0.00    +0.000 F 
ATOM     28  F   UNL     1      48.236   2.906   6.870  0.00  0.00    +0.000 F 
ATOM     29  F   UNL     1      46.652   1.876   5.783  0.00  0.00    +0.000 F 
ENDBRANCH  23  26
ENDBRANCH  17  18
ENDBRANCH   5  17
TORSDOF 5
ENDMDL
MODEL 4
REMARK VINA RESULT:    -7.860      4.315      8.357
REMARK INTER + INTRA:         -11.167
REMARK INTER:                 -10.358
REMARK INTRA:                  -0.809
REMARK UNBOUND:                -1.009
REMARK  Name = 
REMARK  5 active torsions:
REMARK  status: ('A' for Active; 'I' for Inactive)
REMARK    1  A    between atoms: C_2  and  C_5
REMARK    2  A    between atoms: C_7  and  C_8
REMARK    3  A    between atoms: C_12  and  C_13
REMARK    4  A    between atoms: C_13  and  N_14
REMARK    5  A    between atoms: C_19  and  C_20
REMARK                            x       y       z     vdW  Elec       q    Type
REMARK                         _______ _______ _______ _____ _____    ______ ____
ROOT
ATOM      1  C   UNL     1      45.374   6.551  11.979  0.00  0.00    +0.000 A 
ATOM      2  C   UNL     1      44.822   7.765  11.529  0.00  0.00    +0.000 A 
ATOM      3  C   UNL     1      45.395   8.998  11.857  0.00  0.00    +0.000 A 
ATOM      4  C   UNL     1      46.518   9.054  12.680  0.00  0.00    +0.000 A 
ATOM      5  C   UNL     1      47.078   7.876  13.178  0.00  0.00    +0.000 A 
ATOM      6  C   UNL     1      46.526   6.640  12.787  0.00  0.00    +0.000 A 
ENDROOT
BRANCH   1   9
ATOM      7  C   UNL     1      44.503   3.325  10.147  0.00  0.00    +0.000 A 
ATOM      8  C   UNL     1      45.105   4.550  10.462  0.00  0.00    +0.000 A 
ATOM      9  C   UNL     1      44.760   5.241  11.638  0.00  0.00    +0.000 A 
ATOM     10  C   UNL     1      43.814   4.626  12.468  0.00  0.00    +0.000 A 
ATOM     11  C   UNL     1      43.277   3.399  12.108  0.00  0.00    +0.000 A 
ATOM     12  N   UNL     1      43.595   2.743  10.976  0.00  0.00    +0.000 NA
BRANCH   7  14
ATOM     13  F   UNL     1      46.203   2.508   8.637  0.00  0.00    +0.000 F 
ATOM     14  C   UNL     1      44.855   2.629   8.838  0.00  0.00    +0.000 C 
ATOM     15  F   UNL     1      44.389   3.290   7.739  0.00  0.00    +0.000 F 
ATOM     16  F   UNL     1      44.364   1.359   8.753  0.00  0.00    +0.000 F 
ENDBRANCH   7  14
ENDBRANCH   1   9
BRANCH   5  17
ATOM     17  C   UNL     1      48.225   7.920  14.161  0.00  0.00    +0.000 C 
BRANCH  17  18
ATOM     18  N   UNL     1      47.964   7.067  15.303  0.00  0.00    +0.000 N 
ATOM     19  C   UNL     1      49.022   6.378  15.881  0.00  0.00    +0.000 A 
ATOM     20  C   UNL     1      50.286   6.912  16.010  0.00  0.00    +0.000 A 
ATOM     21  C   UNL     1      51.229   6.147  16.650  0.00  0.00    +0.000 A 
ATOM     22  N   UNL     1      50.972   4.935  17.160  0.00  0.00    +0.000 NA
ATOM     23  C   UNL     1      49.705   4.476  17.024  0.00  0.00    +0.000 A 
ATOM     24  N   UNL     1      48.724   5.170  16.381  0.00  0.00    +0.000 NA
ATOM     25  H   UNL     1      47.183   6.425  15.190  0.00  0.00    +0.000 HD
BRANCH  23  26
ATOM     26  C   UNL     1      49.349   3.121  17.651  0.00  0.00    +0.000 C 
ATOM     27  F   UNL     1      48.819   3.215  18.909  0.00  0.00    +0.000 F 
ATOM     28  F   UNL     1      48.424   2.421  16.926  0.00  0.00    +0.000 F 
ATOM     29  F   UNL     1      50.425   2.287  17.778  0.00  0.00    +0.000 F 
ENDBRANCH  23  26
ENDBRANCH  17  18
ENDBRANCH   5  17
TORSDOF 5
ENDMDL
MODEL 5
REMARK VINA RESULT:    -7.739      4.211      8.173
REMARK INTER + INTRA:         -11.010
REMARK INTER:                 -10.227
REMARK INTRA:                  -0.782
REMARK UNBOUND:                -1.009
REMARK  Name = 
REMARK  5 active torsions:
REMARK  status: ('A' for Active; 'I' for Inactive)
REMARK    1  A    between atoms: C_2  and  C_5
REMARK    2  A    between atoms: C_7  and  C_8
REMARK    3  A    between atoms: C_12  and  C_13
REMARK    4  A    between atoms: C_13  and  N_14
REMARK    5  A    between atoms: C_19  and  C_20
REMARK                            x       y       z     vdW  Elec       q    Type
REMARK                         _______ _______ _______ _____ _____    ______ ____
ROOT
ATOM      1  C   UNL     1      45.418   6.773  11.726  0.00  0.00    +0.000 A 
ATOM      2  C   UNL     1      44.796   8.004  11.449  0.00  0.00    +0.000 A 
ATOM      3  C   UNL     1      45.305   9.211  11.940  0.00  0.00    +0.000 A 
ATOM      4  C   UNL     1      46.432   9.217  12.758  0.00  0.00    +0.000 A 
ATOM      5  C   UNL     1      47.061   8.015  13.089  0.00  0.00    +0.000 A 
ATOM      6  C   UNL     1      46.573   6.815  12.534  0.00  0.00    +0.000 A 
ENDROOT
BRANCH   1   9
ATOM      7  C   UNL     1      44.843   3.689   9.563  0.00  0.00    +0.000 A 
ATOM      8  C   UNL     1      45.380   4.889  10.044  0.00  0.00    +0.000 A 
ATOM      9  C   UNL     1      44.873   5.489  11.211  0.00  0.00    +0.000 A 
ATOM     10  C   UNL     1      43.835   4.810  11.860  0.00  0.00    +0.000 A 
ATOM     11  C   UNL     1      43.367   3.612  11.344  0.00  0.00    +0.000 A 
ATOM     12  N   UNL     1      43.841   3.043  10.219  0.00  0.00    +0.000 NA
BRANCH   7  14
ATOM     13  F   UNL     1      44.549   3.313   7.194  0.00  0.00    +0.000 F 
ATOM     14  C   UNL     1      45.374   3.094   8.265  0.00  0.00    +0.000 C 
ATOM     15  F   UNL     1      45.533   1.741   8.322  0.00  0.00    +0.000 F 
ATOM     16  F   UNL     1      46.585   3.603   7.893  0.00  0.00    +0.000 F 
ENDBRANCH   7  14
ENDBRANCH   1   9
BRANCH   5  17
ATOM     17  C   UNL     1      48.215   7.988  14.065  0.00  0.00    +0.000 C 
BRANCH  17  18
ATOM     18  N   UNL     1      47.910   7.152  15.208  0.00  0.00    +0.000 N 
ATOM     19  C   UNL     1      48.937   6.432  15.804  0.00  0.00    +0.000 A 
ATOM     20  C   UNL     1      50.215   6.924  15.947  0.00  0.00    +0.000 A 
ATOM     21  C   UNL     1      51.124   6.131  16.605  0.00  0.00    +0.000 A 
ATOM     22  N   UNL     1      50.819   4.932  17.118  0.00  0.00    +0.000 NA
ATOM     23  C   UNL     1      49.539   4.515  16.968  0.00  0.00    +0.000 A 
ATOM     24  N   UNL     1      48.591   5.237  16.307  0.00  0.00    +0.000 NA
ATOM     25  H   UNL     1      47.109   6.536  15.088  0.00  0.00    +0.000 HD
BRANCH  23  26
ATOM     26  C   UNL     1      49.130   3.177  17.597  0.00  0.00    +0.000 C 
ATOM     27  F   UNL     1      48.033   2.602  17.013  0.00  0.00    +0.000 F 
ATOM     28  F   UNL     1      50.111   2.227  17.525  0.00  0.00    +0.000 F 
ATOM     29  F   UNL     1      48.814   3.279  18.924  0.00  0.00    +0.000 F 
ENDBRANCH  23  26
ENDBRANCH  17  18
ENDBRANCH   5  17
TORSDOF 5
ENDMDL
MODEL 6
REMARK VINA RESULT:    -7.653      3.576      4.592
REMARK INTER + INTRA:         -10.899
REMARK INTER:                 -11.244
REMARK INTRA:                   0.345
REMARK UNBOUND:                -1.009
REMARK  Name = 
REMARK  5 active torsions:
REMARK  status: ('A' for Active; 'I' for Inactive)
REMARK    1  A    between atoms: C_2  and  C_5
REMARK    2  A    between atoms: C_7  and  C_8
REMARK    3  A    between atoms: C_12  and  C_13
REMARK    4  A    between atoms: C_13  and  N_14
REMARK    5  A    between atoms: C_19  and  C_20
REMARK                            x       y       z     vdW  Elec       q    Type
REMARK                         _______ _______ _______ _____ _____    ______ ____
ROOT
ATOM      1  C   UNL     1      45.287   5.256  13.169  0.00  0.00    +0.000 A 
ATOM      2  C   UNL     1      44.553   6.409  12.836  0.00  0.00    +0.000 A 
ATOM      3  C   UNL     1      43.444   6.354  11.985  0.00  0.00    +0.000 A 
ATOM      4  C   UNL     1      43.061   5.145  11.409  0.00  0.00    +0.000 A 
ATOM      5  C   UNL     1      43.782   3.981  11.684  0.00  0.00    +0.000 A 
ATOM      6  C   UNL     1      44.858   4.044  12.593  0.00  0.00    +0.000 A 
ENDROOT
BRANCH   1   9
ATOM      7  C   UNL     1      47.851   4.378  15.847  0.00  0.00    +0.000 A 
ATOM      8  C   UNL     1      46.742   4.297  14.996  0.00  0.00    +0.000 A 
ATOM      9  C   UNL     1      46.471   5.317  14.067  0.00  0.00    +0.000 A 
ATOM     10  C   UNL     1      47.376   6.384  14.031  0.00  0.00    +0.000 A 
ATOM     11  C   UNL     1      48.469   6.389  14.883  0.00  0.00    +0.000 A 
ATOM     12  N   UNL     1      48.723   5.421  15.785  0.00  0.00    +0.000 NA
BRANCH   7  14
ATOM     13  F   UNL     1      46.935   2.865  17.493  0.00  0.00    +0.000 F 
ATOM     14  C   UNL     1      48.087   3.285  16.883  0.00  0.00    +0.000 C 
ATOM     15  F   UNL     1      48.905   3.680  17.900  0.00  0.00    +0.000 F 
ATOM     16  F   UNL     1      48.647   2.157  16.361  0.00  0.00    +0.000 F 
ENDBRANCH   7  14
ENDBRANCH   1   9
BRANCH   5  17
ATOM     17  C   UNL     1      43.453   2.683  10.983  0.00  0.00    +0.000 C 
BRANCH  17  18
ATOM     18  N   UNL     1      44.614   2.154  10.298  0.00  0.00    +0.000 N 
ATOM     19  C   UNL     1      45.218   2.923   9.312  0.00  0.00    +0.000 A 
ATOM     20  C   UNL     1      45.344   4.292   9.398  0.00  0.00    +0.000 A 
ATOM     21  C   UNL     1      46.011   4.928   8.380  0.00  0.00    +0.000 A 
ATOM     22  N   UNL     1      46.550   4.282   7.337  0.00  0.00    +0.000 NA
ATOM     23  C   UNL     1      46.416   2.934   7.323  0.00  0.00    +0.000 A 
ATOM     24  N   UNL     1      45.747   2.240   8.285  0.00  0.00    +0.000 NA
ATOM     25  H   UNL     1      44.511   1.203   9.949  0.00  0.00    +0.000 HD
BRANCH  23  26
ATOM     26  C   UNL     1      47.075   2.148   6.181  0.00  0.00    +0.000 C 
ATOM     27  F   UNL     1      46.610   2.482   4.938  0.00  0.00    +0.000 F 
ATOM     28  F   UNL     1      48.429   2.330   6.116  0.00  0.00    +0.000 F 
ATOM     29  F   UNL     1      46.890   0.796   6.281  0.00  0.00    +0.000 F 
ENDBRANCH  23  26
ENDBRANCH  17  18
ENDBRANCH   5  17
TORSDOF 5
ENDMDL
MODEL 7
REMARK VINA RESULT:    -7.276      4.524      8.126
REMARK INTER + INTRA:         -10.411
REMARK INTER:                  -9.418
REMARK INTRA:                  -0.993
REMARK UNBOUND:                -1.009
REMARK  Name = 
REMARK  5 active torsions:
REMARK  status: ('A' for Active; 'I' for Inactive)
REMARK    1  A    between atoms: C_2  and  C_5
REMARK    2  A    between atoms: C_7  and  C_8
REMARK    3  A    between atoms: C_12  and  C_13
REMARK    4  A    between atoms: C_13  and  N_14
REMARK    5  A    between atoms: C_19  and  C_20
REMARK                            x       y       z     vdW  Elec       q    Type
REMARK                         _______ _______ _______ _____ _____    ______ ____
ROOT
ATOM      1  C   UNL     1      47.114   6.993  12.341  0.00  0.00    +0.000 A 
ATOM      2  C   UNL     1      48.035   7.408  11.362  0.00  0.00    +0.000 A 
ATOM      3  C   UNL     1      49.178   8.142  11.694  0.00  0.00    +0.000 A 
ATOM      4  C   UNL     1      49.413   8.517  13.014  0.00  0.00    +0.000 A 
ATOM      5  C   UNL     1      48.508   8.157  14.014  0.00  0.00    +0.000 A 
ATOM      6  C   UNL     1      47.393   7.364  13.671  0.00  0.00    +0.000 A 
ENDROOT
BRANCH   1   9
ATOM      7  C   UNL     1      44.687   4.687  10.520  0.00  0.00    +0.000 A 
ATOM      8  C   UNL     1      45.850   5.394  10.849  0.00  0.00    +0.000 A 
ATOM      9  C   UNL     1      45.894   6.220  11.987  0.00  0.00    +0.000 A 
ATOM     10  C   UNL     1      44.732   6.269  12.767  0.00  0.00    +0.000 A 
ATOM     11  C   UNL     1      43.623   5.523  12.398  0.00  0.00    +0.000 A 
ATOM     12  N   UNL     1      43.574   4.743  11.301  0.00  0.00    +0.000 NA
BRANCH   7  14
ATOM     13  F   UNL     1      45.884   3.682   8.678  0.00  0.00    +0.000 F 
ATOM     14  C   UNL     1      44.651   3.846   9.250  0.00  0.00    +0.000 C 
ATOM     15  F   UNL     1      43.873   4.390   8.270  0.00  0.00    +0.000 F 
ATOM     16  F   UNL     1      44.179   2.583   9.452  0.00  0.00    +0.000 F 
ENDBRANCH   7  14
ENDBRANCH   1   9
BRANCH   5  17
ATOM     17  C   UNL     1      48.684   8.649  15.432  0.00  0.00    +0.000 C 
BRANCH  17  18
ATOM     18  N   UNL     1      48.203   7.669  16.386  0.00  0.00    +0.000 N 
ATOM     19  C   UNL     1      48.975   6.542  16.634  0.00  0.00    +0.000 A 
ATOM     20  C   UNL     1      50.351   6.570  16.687  0.00  0.00    +0.000 A 
ATOM     21  C   UNL     1      50.992   5.395  16.996  0.00  0.00    +0.000 A 
ATOM     22  N   UNL     1      50.346   4.251  17.261  0.00  0.00    +0.000 NA
ATOM     23  C   UNL     1      48.993   4.294  17.218  0.00  0.00    +0.000 A 
ATOM     24  N   UNL     1      48.292   5.417  16.896  0.00  0.00    +0.000 NA
ATOM     25  H   UNL     1      47.237   7.378  16.252  0.00  0.00    +0.000 HD
BRANCH  23  26
ATOM     26  C   UNL     1      48.212   3.024  17.578  0.00  0.00    +0.000 C 
ATOM     27  F   UNL     1      46.872   3.104  17.311  0.00  0.00    +0.000 F 
ATOM     28  F   UNL     1      48.645   1.917  16.902  0.00  0.00    +0.000 F 
ATOM     29  F   UNL     1      48.292   2.699  18.905  0.00  0.00    +0.000 F 
ENDBRANCH  23  26
ENDBRANCH  17  18
ENDBRANCH   5  17
TORSDOF 5
ENDMDL
MODEL 8
REMARK VINA RESULT:    -6.901      3.730      8.652
REMARK INTER + INTRA:          -9.926
REMARK INTER:                  -9.238
REMARK INTRA:                  -0.689
REMARK UNBOUND:                -1.009
REMARK  Name = 
REMARK  5 active torsions:
REMARK  status: ('A' for Active; 'I' for Inactive)
REMARK    1  A    between atoms: C_2  and  C_5
REMARK    2  A    between atoms: C_7  and  C_8
REMARK    3  A    between atoms: C_12  and  C_13
REMARK    4  A    between atoms: C_13  and  N_14
REMARK    5  A    between atoms: C_19  and  C_20
REMARK                            x       y       z     vdW  Elec       q    Type
REMARK                         _______ _______ _______ _____ _____    ______ ____
ROOT
ATOM      1  C   UNL     1      45.378   6.595  11.678  0.00  0.00    +0.000 A 
ATOM      2  C   UNL     1      44.651   7.794  11.559  0.00  0.00    +0.000 A 
ATOM      3  C   UNL     1      45.246   9.039  11.787  0.00  0.00    +0.000 A 
ATOM      4  C   UNL     1      46.579   9.119  12.180  0.00  0.00    +0.000 A 
ATOM      5  C   UNL     1      47.330   7.953  12.345  0.00  0.00    +0.000 A 
ATOM      6  C   UNL     1      46.732   6.711  12.051  0.00  0.00    +0.000 A 
ENDROOT
BRANCH   1   9
ATOM      7  C   UNL     1      44.492   3.223  10.141  0.00  0.00    +0.000 A 
ATOM      8  C   UNL     1      45.113   4.460  10.357  0.00  0.00    +0.000 A 
ATOM      9  C   UNL     1      44.743   5.271  11.444  0.00  0.00    +0.000 A 
ATOM     10  C   UNL     1      43.753   4.762  12.294  0.00  0.00    +0.000 A 
ATOM     11  C   UNL     1      43.198   3.518  12.037  0.00  0.00    +0.000 A 
ATOM     12  N   UNL     1      43.540   2.746  10.988  0.00  0.00    +0.000 NA
BRANCH   7  14
ATOM     13  F   UNL     1      44.231   1.184   8.870  0.00  0.00    +0.000 F 
ATOM     14  C   UNL     1      44.873   2.393   8.921  0.00  0.00    +0.000 C 
ATOM     15  F   UNL     1      46.203   2.092   8.872  0.00  0.00    +0.000 F 
ATOM     16  F   UNL     1      44.578   3.005   7.738  0.00  0.00    +0.000 F 
ENDBRANCH   7  14
ENDBRANCH   1   9
BRANCH   5  17
ATOM     17  C   UNL     1      48.742   8.010  12.879  0.00  0.00    +0.000 C 
BRANCH  17  18
ATOM     18  N   UNL     1      48.787   7.618  14.273  0.00  0.00    +0.000 N 
ATOM     19  C   UNL     1      50.022   7.378  14.862  0.00  0.00    +0.000 A 
ATOM     20  C   UNL     1      51.148   8.119  14.576  0.00  0.00    +0.000 A 
ATOM     21  C   UNL     1      52.294   7.814  15.269  0.00  0.00    +0.000 A 
ATOM     22  N   UNL     1      52.355   6.857  16.206  0.00  0.00    +0.000 NA
ATOM     23  C   UNL     1      51.209   6.182  16.460  0.00  0.00    +0.000 A 
ATOM     24  N   UNL     1      50.042   6.415  15.796  0.00  0.00    +0.000 NA
ATOM     25  H   UNL     1      48.154   6.863  14.528  0.00  0.00    +0.000 HD
BRANCH  23  26
ATOM     26  C   UNL     1      51.217   5.124  17.570  0.00  0.00    +0.000 C 
ATOM     27  F   UNL     1      50.213   4.199  17.463  0.00  0.00    +0.000 F 
ATOM     28  F   UNL     1      52.373   4.392  17.606  0.00  0.00    +0.000 F 
ATOM     29  F   UNL     1      51.080   5.655  18.823  0.00  0.00    +0.000 F 
ENDBRANCH  23  26
ENDBRANCH  17  18
ENDBRANCH   5  17
TORSDOF 5
ENDMDL
MODEL 9
REMARK VINA RESULT:    -6.886      2.226      7.364
REMARK INTER + INTRA:          -9.908
REMARK INTER:                  -9.075
REMARK INTRA:                  -0.833
REMARK UNBOUND:                -1.009
REMARK  Name = 
REMARK  5 active torsions:
REMARK  status: ('A' for Active; 'I' for Inactive)
REMARK    1  A    between atoms: C_2  and  C_5
REMARK    2  A    between atoms: C_7  and  C_8
REMARK    3  A    between atoms: C_12  and  C_13
REMARK    4  A    between atoms: C_13  and  N_14
REMARK    5  A    between atoms: C_19  and  C_20
REMARK                            x       y       z     vdW  Elec       q    Type
REMARK                         _______ _______ _______ _____ _____    ______ ____
ROOT
ATOM      1  C   UNL     1      45.552   6.746  11.675  0.00  0.00    +0.000 A 
ATOM      2  C   UNL     1      44.865   7.968  11.568  0.00  0.00    +0.000 A 
ATOM      3  C   UNL     1      45.498   9.191  11.819  0.00  0.00    +0.000 A 
ATOM      4  C   UNL     1      46.830   9.222  12.225  0.00  0.00    +0.000 A 
ATOM      5  C   UNL     1      47.541   8.030  12.379  0.00  0.00    +0.000 A 
ATOM      6  C   UNL     1      46.907   6.812  12.061  0.00  0.00    +0.000 A 
ENDROOT
BRANCH   1   9
ATOM      7  C   UNL     1      44.561   3.434  10.072  0.00  0.00    +0.000 A 
ATOM      8  C   UNL     1      45.219   4.647  10.311  0.00  0.00    +0.000 A 
ATOM      9  C   UNL     1      44.878   5.446  11.417  0.00  0.00    +0.000 A 
ATOM     10  C   UNL     1      43.876   4.949  12.260  0.00  0.00    +0.000 A 
ATOM     11  C   UNL     1      43.284   3.728  11.979  0.00  0.00    +0.000 A 
ATOM     12  N   UNL     1      43.598   2.967  10.913  0.00  0.00    +0.000 NA
BRANCH   7  14
ATOM     13  F   UNL     1      44.400   1.350   8.861  0.00  0.00    +0.000 F 
ATOM     14  C   UNL     1      44.912   2.619   8.833  0.00  0.00    +0.000 C 
ATOM     15  F   UNL     1      46.256   2.458   8.661  0.00  0.00    +0.000 F 
ATOM     16  F   UNL     1      44.445   3.168   7.675  0.00  0.00    +0.000 F 
ENDBRANCH   7  14
ENDBRANCH   1   9
BRANCH   5  17
ATOM     17  C   UNL     1      48.950   8.034  12.925  0.00  0.00    +0.000 C 
BRANCH  17  18
ATOM     18  N   UNL     1      49.812   7.168  12.147  0.00  0.00    +0.000 N 
ATOM     19  C   UNL     1      50.931   7.715  11.532  0.00  0.00    +0.000 A 
ATOM     20  C   UNL     1      51.701   8.699  12.110  0.00  0.00    +0.000 A 
ATOM     21  C   UNL     1      52.813   9.115  11.419  0.00  0.00    +0.000 A 
ATOM     22  N   UNL     1      53.181   8.599  10.239  0.00  0.00    +0.000 NA
ATOM     23  C   UNL     1      52.398   7.617   9.735  0.00  0.00    +0.000 A 
ATOM     24  N   UNL     1      51.268   7.171  10.352  0.00  0.00    +0.000 NA
ATOM     25  H   UNL     1      49.331   6.574  11.476  0.00  0.00    +0.000 HD
BRANCH  23  26
ATOM     26  C   UNL     1      52.818   6.953   8.417  0.00  0.00    +0.000 C 
ATOM     27  F   UNL     1      53.620   7.737   7.632  0.00  0.00    +0.000 F 
ATOM     28  F   UNL     1      53.522   5.794   8.600  0.00  0.00    +0.000 F 
ATOM     29  F   UNL     1      51.758   6.617   7.620  0.00  0.00    +0.000 F 
ENDBRANCH  23  26
ENDBRANCH  17  18
ENDBRANCH   5  17
TORSDOF 5
ENDMDL
