MODEL 1
REMARK VINA RESULT:    -7.789      0.000      0.000
REMARK INTER + INTRA:         -10.858
REMARK INTER:                 -10.293
REMARK INTRA:                  -0.565
REMARK UNBOUND:                -0.565
REMARK  Name = 
REMARK  7 active torsions:
REMARK  status: ('A' for Active; 'I' for Inactive)
REMARK    1  A    between atoms: C_1  and  C_2
REMARK    2  A    between atoms: N_4  and  C_5
REMARK    3  A    between atoms: C_5  and  C_6
REMARK    4  A    between atoms: C_9  and  O_10
REMARK    5  A    between atoms: O_10  and  C_11
REMARK    6  A    between atoms: C_11  and  C_12
REMARK    7  A    between atoms: C_14  and  N_15
REMARK                            x       y       z     vdW  Elec       q    Type
REMARK                         _______ _______ _______ _____ _____    ______ ____
ROOT
ATOM      1  C   UNL     1      46.178   4.866  12.991  0.00  0.00    +0.000 A 
ATOM      2  C   UNL     1      46.013   5.710  11.895  0.00  0.00    +0.000 A 
ATOM      3  C   UNL     1      45.378   5.221  10.754  0.00  0.00    +0.000 A 
ATOM      4  C   UNL     1      44.907   3.914  10.732  0.00  0.00    +0.000 A 
ATOM      5  C   UNL     1      45.143   3.131  11.854  0.00  0.00    +0.000 A 
ATOM      6  N   UNL     1      45.743   3.580  12.981  0.00  0.00    +0.000 NA
ENDROOT
BRANCH   1   7
ATOM      7  C   UNL     1      46.807   5.377  14.271  0.00  0.00    +0.000 C 
BRANCH   7  11
ATOM      8  C   UNL     1      47.496   3.062  17.235  0.00  0.00    +0.000 C 
ATOM      9  C   UNL     1      47.628   4.235  16.290  0.00  0.00    +0.000 C 
ATOM     10  N   UNL     1      48.636   5.042  16.388  0.00  0.00    +0.000 NA
ATOM     11  N   UNL     1      46.656   4.412  15.347  0.00  0.00    +0.000 N 
ATOM     12  H   UNL     1      49.261   4.756  17.148  0.00  0.00    +0.000 HD
ATOM     13  H   UNL     1      46.018   3.646  15.161  0.00  0.00    +0.000 HD
ENDBRANCH   7  11
ENDBRANCH   1   7
BRANCH   4  14
ATOM     14  O   UNL     1      44.246   3.526   9.601  0.00  0.00    +0.000 OA
BRANCH  14  15
ATOM     15  C   UNL     1      44.785   4.042   8.380  0.00  0.00    +0.000 C 
BRANCH  15  16
ATOM     16  C   UNL     1      45.731   3.046   7.764  0.00  0.00    +0.000 A 
ATOM     17  C   UNL     1      46.588   3.457   6.733  0.00  0.00    +0.000 A 
ATOM     18  C   UNL     1      47.442   2.534   6.141  0.00  0.00    +0.000 A 
ATOM     19  N   UNL     1      47.476   1.244   6.493  0.00  0.00    +0.000 NA
ATOM     20  C   UNL     1      46.629   0.862   7.476  0.00  0.00    +0.000 A 
ATOM     21 CL   UNL     1      46.710  -0.805   7.875  0.00  0.00    +0.000 Cl
ATOM     22  C   UNL     1      45.747   1.703   8.131  0.00  0.00    +0.000 A 
BRANCH  18  23
ATOM     23  N   UNL     1      48.266   2.925   5.088  0.00  0.00    +0.000 N 
ATOM     24  H   UNL     1      48.782   2.150   4.691  0.00  0.00    +0.000 HD
ATOM     25  H   UNL     1      47.679   3.390   4.399  0.00  0.00    +0.000 HD
ENDBRANCH  18  23
ENDBRANCH  15  16
ENDBRANCH  14  15
ENDBRANCH   4  14
TORSDOF 6
ENDMDL
MODEL 2
REMARK VINA RESULT:    -7.199      1.244      1.837
REMARK INTER + INTRA:         -10.078
REMARK INTER:                  -9.554
REMARK INTRA:                  -0.524
REMARK UNBOUND:                -0.565
REMARK  Name = 
REMARK  7 active torsions:
REMARK  status: ('A' for Active; 'I' for Inactive)
REMARK    1  A    between atoms: C_1  and  C_2
REMARK    2  A    between atoms: N_4  and  C_5
REMARK    3  A    between atoms: C_5  and  C_6
REMARK    4  A    between atoms: C_9  and  O_10
REMARK    5  A    between atoms: O_10  and  C_11
REMARK    6  A    between atoms: C_11  and  C_12
REMARK    7  A    between atoms: C_14  and  N_15
REMARK                            x       y       z     vdW  Elec       q    Type
REMARK                         _______ _______ _______ _____ _____    ______ ____
ROOT
ATOM      1  C   UNL     1      46.290   4.754  13.142  0.00  0.00    +0.000 A 
ATOM      2  C   UNL     1      46.123   5.574  12.028  0.00  0.00    +0.000 A 
ATOM      3  C   UNL     1      45.454   5.071  10.913  0.00  0.00    +0.000 A 
ATOM      4  C   UNL     1      44.953   3.774  10.934  0.00  0.00    +0.000 A 
ATOM      5  C   UNL     1      45.195   3.014  12.070  0.00  0.00    +0.000 A 
ATOM      6  N   UNL     1      45.828   3.478  13.174  0.00  0.00    +0.000 NA
ENDROOT
BRANCH   1   7
ATOM      7  C   UNL     1      46.957   5.283  14.396  0.00  0.00    +0.000 C 
BRANCH   7  11
ATOM      8  C   UNL     1      47.478   3.005  17.422  0.00  0.00    +0.000 C 
ATOM      9  C   UNL     1      47.722   4.110  16.420  0.00  0.00    +0.000 C 
ATOM     10  N   UNL     1      48.837   4.766  16.429  0.00  0.00    +0.000 NA
ATOM     11  N   UNL     1      46.732   4.390  15.521  0.00  0.00    +0.000 N 
ATOM     12  H   UNL     1      49.458   4.421  17.168  0.00  0.00    +0.000 HD
ATOM     13  H   UNL     1      45.981   3.718  15.402  0.00  0.00    +0.000 HD
ENDBRANCH   7  11
ENDBRANCH   1   7
BRANCH   4  14
ATOM     14  O   UNL     1      44.261   3.373   9.826  0.00  0.00    +0.000 OA
BRANCH  14  15
ATOM     15  C   UNL     1      44.689   3.971   8.598  0.00  0.00    +0.000 C 
BRANCH  15  16
ATOM     16  C   UNL     1      45.551   3.010   7.822  0.00  0.00    +0.000 A 
ATOM     17  C   UNL     1      45.702   1.694   8.283  0.00  0.00    +0.000 A 
ATOM     18  C   UNL     1      46.519   0.812   7.587  0.00  0.00    +0.000 A 
ATOM     19  N   UNL     1      47.202   1.164   6.493  0.00  0.00    +0.000 NA
ATOM     20  C   UNL     1      47.060   2.442   6.074  0.00  0.00    +0.000 A 
ATOM     21 CL   UNL     1      47.969   2.836   4.673  0.00  0.00    +0.000 Cl
ATOM     22  C   UNL     1      46.266   3.392   6.691  0.00  0.00    +0.000 A 
BRANCH  18  23
ATOM     23  N   UNL     1      46.707  -0.484   8.062  0.00  0.00    +0.000 N 
ATOM     24  H   UNL     1      45.932  -1.095   7.840  0.00  0.00    +0.000 HD
ATOM     25  H   UNL     1      47.587  -0.823   7.679  0.00  0.00    +0.000 HD
ENDBRANCH  18  23
ENDBRANCH  15  16
ENDBRANCH  14  15
ENDBRANCH   4  14
TORSDOF 6
ENDMDL
MODEL 3
REMARK VINA RESULT:    -6.959      1.805      2.438
REMARK INTER + INTRA:          -9.761
REMARK INTER:                  -9.182
REMARK INTRA:                  -0.580
REMARK UNBOUND:                -0.565
REMARK  Name = 
REMARK  7 active torsions:
REMARK  status: ('A' for Active; 'I' for Inactive)
REMARK    1  A    between atoms: C_1  and  C_2
REMARK    2  A    between atoms: N_4  and  C_5
REMARK    3  A    between atoms: C_5  and  C_6
REMARK    4  A    between atoms: C_9  and  O_10
REMARK    5  A    between atoms: O_10  and  C_11
REMARK    6  A    between atoms: C_11  and  C_12
REMARK    7  A    between atoms: C_14  and  N_15
REMARK                            x       y       z     vdW  Elec       q    Type
REMARK                         _______ _______ _______ _____ _____    ______ ____
ROOT
ATOM      1  C   UNL     1      46.398   5.386  12.733  0.00  0.00    +0.000 A 
ATOM      2  C   UNL     1      46.252   6.022  11.502  0.00  0.00    +0.000 A 
ATOM      3  C   UNL     1      45.574   5.364  10.476  0.00  0.00    +0.000 A 
ATOM      4  C   UNL     1      45.043   4.099  10.700  0.00  0.00    +0.000 A 
ATOM      5  C   UNL     1      45.264   3.524  11.944  0.00  0.00    +0.000 A 
ATOM      6  N   UNL     1      45.905   4.142  12.963  0.00  0.00    +0.000 NA
ENDROOT
BRANCH   1   7
ATOM      7  C   UNL     1      47.075   6.091  13.891  0.00  0.00    +0.000 C 
BRANCH   7  11
ATOM      8  C   UNL     1      48.701   9.361  12.759  0.00  0.00    +0.000 C 
ATOM      9  C   UNL     1      47.765   8.417  13.479  0.00  0.00    +0.000 C 
ATOM     10  N   UNL     1      46.752   8.879  14.139  0.00  0.00    +0.000 NA
ATOM     11  N   UNL     1      48.029   7.079  13.412  0.00  0.00    +0.000 N 
ATOM     12  H   UNL     1      46.712   9.901  14.079  0.00  0.00    +0.000 HD
ATOM     13  H   UNL     1      48.686   6.748  12.713  0.00  0.00    +0.000 HD
ENDBRANCH   7  11
ENDBRANCH   1   7
BRANCH   4  14
ATOM     14  O   UNL     1      44.344   3.543   9.666  0.00  0.00    +0.000 OA
BRANCH  14  15
ATOM     15  C   UNL     1      44.743   3.982   8.363  0.00  0.00    +0.000 C 
BRANCH  15  16
ATOM     16  C   UNL     1      45.705   2.998   7.752  0.00  0.00    +0.000 A 
ATOM     17  C   UNL     1      46.567   3.421   6.730  0.00  0.00    +0.000 A 
ATOM     18  C   UNL     1      47.436   2.510   6.143  0.00  0.00    +0.000 A 
ATOM     19  N   UNL     1      47.480   1.220   6.491  0.00  0.00    +0.000 NA
ATOM     20  C   UNL     1      46.629   0.824   7.464  0.00  0.00    +0.000 A 
ATOM     21 CL   UNL     1      46.724  -0.843   7.858  0.00  0.00    +0.000 Cl
ATOM     22  C   UNL     1      45.732   1.654   8.115  0.00  0.00    +0.000 A 
BRANCH  18  23
ATOM     23  N   UNL     1      48.265   2.913   5.098  0.00  0.00    +0.000 N 
ATOM     24  H   UNL     1      48.760   2.139   4.675  0.00  0.00    +0.000 HD
ATOM     25  H   UNL     1      47.686   3.413   4.426  0.00  0.00    +0.000 HD
ENDBRANCH  18  23
ENDBRANCH  15  16
ENDBRANCH  14  15
ENDBRANCH   4  14
TORSDOF 6
ENDMDL
MODEL 4
REMARK VINA RESULT:    -6.910      2.878      7.003
REMARK INTER + INTRA:          -9.696
REMARK INTER:                  -9.647
REMARK INTRA:                  -0.050
REMARK UNBOUND:                -0.565
REMARK  Name = 
REMARK  7 active torsions:
REMARK  status: ('A' for Active; 'I' for Inactive)
REMARK    1  A    between atoms: C_1  and  C_2
REMARK    2  A    between atoms: N_4  and  C_5
REMARK    3  A    between atoms: C_5  and  C_6
REMARK    4  A    between atoms: C_9  and  O_10
REMARK    5  A    between atoms: O_10  and  C_11
REMARK    6  A    between atoms: C_11  and  C_12
REMARK    7  A    between atoms: C_14  and  N_15
REMARK                            x       y       z     vdW  Elec       q    Type
REMARK                         _______ _______ _______ _____ _____    ______ ____
ROOT
ATOM      1  C   UNL     1      44.521   2.724   9.550  0.00  0.00    +0.000 A 
ATOM      2  C   UNL     1      44.819   4.030   9.168  0.00  0.00    +0.000 A 
ATOM      3  C   UNL     1      44.391   5.085   9.975  0.00  0.00    +0.000 A 
ATOM      4  C   UNL     1      43.694   4.818  11.147  0.00  0.00    +0.000 A 
ATOM      5  C   UNL     1      43.410   3.490  11.434  0.00  0.00    +0.000 A 
ATOM      6  N   UNL     1      43.823   2.445  10.680  0.00  0.00    +0.000 NA
ENDROOT
BRANCH   1   7
ATOM      7  C   UNL     1      45.021   1.549   8.733  0.00  0.00    +0.000 C 
BRANCH   7  11
ATOM      8  C   UNL     1      48.145   1.728   6.537  0.00  0.00    +0.000 C 
ATOM      9  C   UNL     1      47.024   1.141   7.363  0.00  0.00    +0.000 C 
ATOM     10  N   UNL     1      47.026  -0.117   7.667  0.00  0.00    +0.000 NA
ATOM     11  N   UNL     1      46.020   1.975   7.767  0.00  0.00    +0.000 N 
ATOM     12  H   UNL     1      47.853  -0.585   7.282  0.00  0.00    +0.000 HD
ATOM     13  H   UNL     1      46.167   2.976   7.703  0.00  0.00    +0.000 HD
ENDBRANCH   7  11
ENDBRANCH   1   7
BRANCH   4  14
ATOM     14  O   UNL     1      43.358   5.900  11.912  0.00  0.00    +0.000 OA
BRANCH  14  15
ATOM     15  C   UNL     1      44.316   6.963  11.908  0.00  0.00    +0.000 C 
BRANCH  15  16
ATOM     16  C   UNL     1      45.627   6.486  12.475  0.00  0.00    +0.000 A 
ATOM     17  C   UNL     1      45.627   5.505  13.477  0.00  0.00    +0.000 A 
ATOM     18  C   UNL     1      46.833   5.082  14.024  0.00  0.00    +0.000 A 
ATOM     19  N   UNL     1      48.015   5.588  13.657  0.00  0.00    +0.000 NA
ATOM     20  C   UNL     1      47.994   6.548  12.704  0.00  0.00    +0.000 A 
ATOM     21 CL   UNL     1      49.539   7.165  12.283  0.00  0.00    +0.000 Cl
ATOM     22  C   UNL     1      46.850   7.030  12.093  0.00  0.00    +0.000 A 
BRANCH  18  23
ATOM     23  N   UNL     1      46.839   4.139  15.049  0.00  0.00    +0.000 N 
ATOM     24  H   UNL     1      46.065   3.490  14.984  0.00  0.00    +0.000 HD
ATOM     25  H   UNL     1      47.740   3.666  15.021  0.00  0.00    +0.000 HD
ENDBRANCH  18  23
ENDBRANCH  15  16
ENDBRANCH  14  15
ENDBRANCH   4  14
TORSDOF 6
ENDMDL
MODEL 5
REMARK VINA RESULT:    -6.835      3.408      8.251
REMARK INTER + INTRA:          -9.597
REMARK INTER:                  -9.072
REMARK INTRA:                  -0.525
REMARK UNBOUND:                -0.565
REMARK  Name = 
REMARK  7 active torsions:
REMARK  status: ('A' for Active; 'I' for Inactive)
REMARK    1  A    between atoms: C_1  and  C_2
REMARK    2  A    between atoms: N_4  and  C_5
REMARK    3  A    between atoms: C_5  and  C_6
REMARK    4  A    between atoms: C_9  and  O_10
REMARK    5  A    between atoms: O_10  and  C_11
REMARK    6  A    between atoms: C_11  and  C_12
REMARK    7  A    between atoms: C_14  and  N_15
REMARK                            x       y       z     vdW  Elec       q    Type
REMARK                         _______ _______ _______ _____ _____    ______ ____
ROOT
ATOM      1  C   UNL     1      45.016   3.960   9.916  0.00  0.00    +0.000 A 
ATOM      2  C   UNL     1      45.376   5.304   9.976  0.00  0.00    +0.000 A 
ATOM      3  C   UNL     1      45.688   5.866  11.214  0.00  0.00    +0.000 A 
ATOM      4  C   UNL     1      45.651   5.078  12.359  0.00  0.00    +0.000 A 
ATOM      5  C   UNL     1      45.248   3.758  12.213  0.00  0.00    +0.000 A 
ATOM      6  N   UNL     1      44.953   3.180  11.025  0.00  0.00    +0.000 NA
ENDROOT
BRANCH   1   7
ATOM      7  C   UNL     1      44.729   3.298   8.583  0.00  0.00    +0.000 C 
BRANCH   7  11
ATOM      8  C   UNL     1      47.743   1.886   6.702  0.00  0.00    +0.000 C 
ATOM      9  C   UNL     1      46.754   2.891   7.244  0.00  0.00    +0.000 C 
ATOM     10  N   UNL     1      46.784   4.121   6.841  0.00  0.00    +0.000 NA
ATOM     11  N   UNL     1      45.843   2.461   8.168  0.00  0.00    +0.000 N 
ATOM     12  H   UNL     1      47.529   4.261   6.151  0.00  0.00    +0.000 HD
ATOM     13  H   UNL     1      45.708   1.463   8.286  0.00  0.00    +0.000 HD
ENDBRANCH   7  11
ENDBRANCH   1   7
BRANCH   4  14
ATOM     14  O   UNL     1      46.024   5.685  13.525  0.00  0.00    +0.000 OA
BRANCH  14  15
ATOM     15  C   UNL     1      47.437   5.774  13.734  0.00  0.00    +0.000 C 
BRANCH  15  16
ATOM     16  C   UNL     1      47.781   5.388  15.148  0.00  0.00    +0.000 A 
ATOM     17  C   UNL     1      47.193   4.246  15.712  0.00  0.00    +0.000 A 
ATOM     18  C   UNL     1      47.484   3.901  17.026  0.00  0.00    +0.000 A 
ATOM     19  N   UNL     1      48.292   4.627  17.806  0.00  0.00    +0.000 NA
ATOM     20  C   UNL     1      48.834   5.736  17.253  0.00  0.00    +0.000 A 
ATOM     21 CL   UNL     1      49.851   6.631  18.305  0.00  0.00    +0.000 Cl
ATOM     22  C   UNL     1      48.613   6.159  15.954  0.00  0.00    +0.000 A 
BRANCH  18  23
ATOM     23  N   UNL     1      46.872   2.792  17.606  0.00  0.00    +0.000 N 
ATOM     24  H   UNL     1      46.174   2.375  17.004  0.00  0.00    +0.000 HD
ATOM     25  H   UNL     1      47.608   2.135  17.856  0.00  0.00    +0.000 HD
ENDBRANCH  18  23
ENDBRANCH  15  16
ENDBRANCH  14  15
ENDBRANCH   4  14
TORSDOF 6
ENDMDL
MODEL 6
REMARK VINA RESULT:    -6.820      3.781      7.392
REMARK INTER + INTRA:          -9.578
REMARK INTER:                  -9.027
REMARK INTRA:                  -0.551
REMARK UNBOUND:                -0.565
REMARK  Name = 
REMARK  7 active torsions:
REMARK  status: ('A' for Active; 'I' for Inactive)
REMARK    1  A    between atoms: C_1  and  C_2
REMARK    2  A    between atoms: N_4  and  C_5
REMARK    3  A    between atoms: C_5  and  C_6
REMARK    4  A    between atoms: C_9  and  O_10
REMARK    5  A    between atoms: O_10  and  C_11
REMARK    6  A    between atoms: C_11  and  C_12
REMARK    7  A    between atoms: C_14  and  N_15
REMARK                            x       y       z     vdW  Elec       q    Type
REMARK                         _______ _______ _______ _____ _____    ______ ____
ROOT
ATOM      1  C   UNL     1      44.631   2.933   9.670  0.00  0.00    +0.000 A 
ATOM      2  C   UNL     1      45.234   4.166   9.434  0.00  0.00    +0.000 A 
ATOM      3  C   UNL     1      44.938   5.237  10.277  0.00  0.00    +0.000 A 
ATOM      4  C   UNL     1      44.065   5.055  11.344  0.00  0.00    +0.000 A 
ATOM      5  C   UNL     1      43.482   3.803  11.485  0.00  0.00    +0.000 A 
ATOM      6  N   UNL     1      43.760   2.742  10.693  0.00  0.00    +0.000 NA
ENDROOT
BRANCH   1   7
ATOM      7  C   UNL     1      44.973   1.730   8.814  0.00  0.00    +0.000 C 
BRANCH   7  11
ATOM      8  C   UNL     1      48.027   1.704   6.514  0.00  0.00    +0.000 C 
ATOM      9  C   UNL     1      46.916   1.193   7.402  0.00  0.00    +0.000 C 
ATOM     10  N   UNL     1      46.888  -0.049   7.764  0.00  0.00    +0.000 NA
ATOM     11  N   UNL     1      45.953   2.078   7.797  0.00  0.00    +0.000 N 
ATOM     12  H   UNL     1      47.685  -0.562   7.375  0.00  0.00    +0.000 HD
ATOM     13  H   UNL     1      46.130   3.070   7.682  0.00  0.00    +0.000 HD
ENDBRANCH   7  11
ENDBRANCH   1   7
BRANCH   4  14
ATOM     14  O   UNL     1      43.869   6.134  12.158  0.00  0.00    +0.000 OA
BRANCH  14  15
ATOM     15  C   UNL     1      44.864   6.315  13.170  0.00  0.00    +0.000 C 
BRANCH  15  16
ATOM     16  C   UNL     1      45.824   7.405  12.771  0.00  0.00    +0.000 A 
ATOM     17  C   UNL     1      45.361   8.726  12.669  0.00  0.00    +0.000 A 
ATOM     18  C   UNL     1      46.235   9.731  12.273  0.00  0.00    +0.000 A 
ATOM     19  N   UNL     1      47.513   9.499  11.954  0.00  0.00    +0.000 NA
ATOM     20  C   UNL     1      47.937   8.217  12.039  0.00  0.00    +0.000 A 
ATOM     21 CL   UNL     1      49.580   7.981  11.607  0.00  0.00    +0.000 Cl
ATOM     22  C   UNL     1      47.148   7.149  12.430  0.00  0.00    +0.000 A 
BRANCH  18  23
ATOM     23  N   UNL     1      45.774  11.037  12.128  0.00  0.00    +0.000 N 
ATOM     24  H   UNL     1      46.502  11.724  12.275  0.00  0.00    +0.000 HD
ATOM     25  H   UNL     1      45.356  11.111  11.204  0.00  0.00    +0.000 HD
ENDBRANCH  18  23
ENDBRANCH  15  16
ENDBRANCH  14  15
ENDBRANCH   4  14
TORSDOF 6
ENDMDL
MODEL 7
REMARK VINA RESULT:    -6.501      3.851      8.930
REMARK INTER + INTRA:          -9.156
REMARK INTER:                  -8.574
REMARK INTRA:                  -0.581
REMARK UNBOUND:                -0.565
REMARK  Name = 
REMARK  7 active torsions:
REMARK  status: ('A' for Active; 'I' for Inactive)
REMARK    1  A    between atoms: C_1  and  C_2
REMARK    2  A    between atoms: N_4  and  C_5
REMARK    3  A    between atoms: C_5  and  C_6
REMARK    4  A    between atoms: C_9  and  O_10
REMARK    5  A    between atoms: O_10  and  C_11
REMARK    6  A    between atoms: C_11  and  C_12
REMARK    7  A    between atoms: C_14  and  N_15
REMARK                            x       y       z     vdW  Elec       q    Type
REMARK                         _______ _______ _______ _____ _____    ______ ____
ROOT
ATOM      1  C   UNL     1      44.739   4.537  11.418  0.00  0.00    +0.000 A 
ATOM      2  C   UNL     1      45.236   5.762  11.858  0.00  0.00    +0.000 A 
ATOM      3  C   UNL     1      46.159   5.781  12.903  0.00  0.00    +0.000 A 
ATOM      4  C   UNL     1      46.580   4.587  13.475  0.00  0.00    +0.000 A 
ATOM      5  C   UNL     1      46.008   3.414  13.000  0.00  0.00    +0.000 A 
ATOM      6  N   UNL     1      45.121   3.361  11.978  0.00  0.00    +0.000 NA
ENDROOT
BRANCH   1   7
ATOM      7  C   UNL     1      43.781   4.469  10.245  0.00  0.00    +0.000 C 
BRANCH   7  11
ATOM      8  C   UNL     1      45.941   3.425   7.269  0.00  0.00    +0.000 C 
ATOM      9  C   UNL     1      45.015   3.312   8.458  0.00  0.00    +0.000 C 
ATOM     10  N   UNL     1      44.720   2.151   8.949  0.00  0.00    +0.000 NA
ATOM     11  N   UNL     1      44.503   4.465   8.983  0.00  0.00    +0.000 N 
ATOM     12  H   UNL     1      45.192   1.404   8.430  0.00  0.00    +0.000 HD
ATOM     13  H   UNL     1      44.928   5.347   8.720  0.00  0.00    +0.000 HD
ENDBRANCH   7  11
ENDBRANCH   1   7
BRANCH   4  14
ATOM     14  O   UNL     1      47.527   4.684  14.454  0.00  0.00    +0.000 OA
BRANCH  14  15
ATOM     15  C   UNL     1      47.261   3.915  15.632  0.00  0.00    +0.000 C 
BRANCH  15  16
ATOM     16  C   UNL     1      48.003   4.489  16.809  0.00  0.00    +0.000 A 
ATOM     17  C   UNL     1      47.973   3.813  18.037  0.00  0.00    +0.000 A 
ATOM     18  C   UNL     1      48.633   4.353  19.135  0.00  0.00    +0.000 A 
ATOM     19  N   UNL     1      49.288   5.517  19.089  0.00  0.00    +0.000 NA
ATOM     20  C   UNL     1      49.290   6.165  17.902  0.00  0.00    +0.000 A 
ATOM     21 CL   UNL     1      50.136   7.658  17.908  0.00  0.00    +0.000 Cl
ATOM     22  C   UNL     1      48.671   5.709  16.751  0.00  0.00    +0.000 A 
BRANCH  18  23
ATOM     23  N   UNL     1      48.573   3.708  20.369  0.00  0.00    +0.000 N 
ATOM     24  H   UNL     1      49.203   4.114  21.049  0.00  0.00    +0.000 HD
ATOM     25  H   UNL     1      47.604   3.734  20.678  0.00  0.00    +0.000 HD
ENDBRANCH  18  23
ENDBRANCH  15  16
ENDBRANCH  14  15
ENDBRANCH   4  14
TORSDOF 6
ENDMDL
MODEL 8
REMARK VINA RESULT:    -6.482      3.735      7.489
REMARK INTER + INTRA:          -9.131
REMARK INTER:                  -8.437
REMARK INTRA:                  -0.694
REMARK UNBOUND:                -0.565
REMARK  Name = 
REMARK  7 active torsions:
REMARK  status: ('A' for Active; 'I' for Inactive)
REMARK    1  A    between atoms: C_1  and  C_2
REMARK    2  A    between atoms: N_4  and  C_5
REMARK    3  A    between atoms: C_5  and  C_6
REMARK    4  A    between atoms: C_9  and  O_10
REMARK    5  A    between atoms: O_10  and  C_11
REMARK    6  A    between atoms: C_11  and  C_12
REMARK    7  A    between atoms: C_14  and  N_15
REMARK                            x       y       z     vdW  Elec       q    Type
REMARK                         _______ _______ _______ _____ _____    ______ ____
ROOT
ATOM      1  C   UNL     1      45.033   3.841   9.741  0.00  0.00    +0.000 A 
ATOM      2  C   UNL     1      44.870   3.164  10.948  0.00  0.00    +0.000 A 
ATOM      3  C   UNL     1      45.099   3.847  12.142  0.00  0.00    +0.000 A 
ATOM      4  C   UNL     1      45.468   5.186  12.113  0.00  0.00    +0.000 A 
ATOM      5  C   UNL     1      45.641   5.774  10.866  0.00  0.00    +0.000 A 
ATOM      6  N   UNL     1      45.413   5.143   9.691  0.00  0.00    +0.000 NA
ENDROOT
BRANCH   1   7
ATOM      7  C   UNL     1      44.734   3.152   8.424  0.00  0.00    +0.000 C 
BRANCH   7  11
ATOM      8  C   UNL     1      47.868   2.058   6.528  0.00  0.00    +0.000 C 
ATOM      9  C   UNL     1      46.831   2.965   7.149  0.00  0.00    +0.000 C 
ATOM     10  N   UNL     1      46.851   4.238   6.916  0.00  0.00    +0.000 NA
ATOM     11  N   UNL     1      45.887   2.398   7.958  0.00  0.00    +0.000 N 
ATOM     12  H   UNL     1      47.625   4.482   6.290  0.00  0.00    +0.000 HD
ATOM     13  H   UNL     1      45.770   1.391   7.934  0.00  0.00    +0.000 HD
ENDBRANCH   7  11
ENDBRANCH   1   7
BRANCH   4  14
ATOM     14  O   UNL     1      45.619   5.801  13.323  0.00  0.00    +0.000 OA
BRANCH  14  15
ATOM     15  C   UNL     1      46.955   5.801  13.838  0.00  0.00    +0.000 C 
BRANCH  15  16
ATOM     16  C   UNL     1      47.728   6.967  13.281  0.00  0.00    +0.000 A 
ATOM     17  C   UNL     1      47.228   8.267  13.448  0.00  0.00    +0.000 A 
ATOM     18  C   UNL     1      47.923   9.344  12.912  0.00  0.00    +0.000 A 
ATOM     19  N   UNL     1      49.053   9.204  12.210  0.00  0.00    +0.000 NA
ATOM     20  C   UNL     1      49.510   7.942  12.042  0.00  0.00    +0.000 A 
ATOM     21 CL   UNL     1      50.955   7.826  11.125  0.00  0.00    +0.000 Cl
ATOM     22  C   UNL     1      48.896   6.807  12.542  0.00  0.00    +0.000 A 
BRANCH  18  23
ATOM     23  N   UNL     1      47.411  10.634  13.037  0.00  0.00    +0.000 N 
ATOM     24  H   UNL     1      47.786  11.269  12.344  0.00  0.00    +0.000 HD
ATOM     25  H   UNL     1      46.397  10.565  12.987  0.00  0.00    +0.000 HD
ENDBRANCH  18  23
ENDBRANCH  15  16
ENDBRANCH  14  15
ENDBRANCH   4  14
TORSDOF 6
ENDMDL
MODEL 9
REMARK VINA RESULT:    -6.452      3.296      7.348
REMARK INTER + INTRA:          -9.091
REMARK INTER:                  -8.495
REMARK INTRA:                  -0.597
REMARK UNBOUND:                -0.565
REMARK  Name = 
REMARK  7 active torsions:
REMARK  status: ('A' for Active; 'I' for Inactive)
REMARK    1  A    between atoms: C_1  and  C_2
REMARK    2  A    between atoms: N_4  and  C_5
REMARK    3  A    between atoms: C_5  and  C_6
REMARK    4  A    between atoms: C_9  and  O_10
REMARK    5  A    between atoms: O_10  and  C_11
REMARK    6  A    between atoms: C_11  and  C_12
REMARK    7  A    between atoms: C_14  and  N_15
REMARK                            x       y       z     vdW  Elec       q    Type
REMARK                         _______ _______ _______ _____ _____    ______ ____
ROOT
ATOM      1  C   UNL     1      44.900   3.307  10.059  0.00  0.00    +0.000 A 
ATOM      2  C   UNL     1      45.201   4.612   9.677  0.00  0.00    +0.000 A 
ATOM      3  C   UNL     1      45.260   5.606  10.654  0.00  0.00    +0.000 A 
ATOM      4  C   UNL     1      45.036   5.280  11.986  0.00  0.00    +0.000 A 
ATOM      5  C   UNL     1      44.709   3.962  12.275  0.00  0.00    +0.000 A 
ATOM      6  N   UNL     1      44.658   2.972  11.352  0.00  0.00    +0.000 NA
ENDROOT
BRANCH   1   7
ATOM      7  C   UNL     1      44.887   2.188   9.037  0.00  0.00    +0.000 C 
BRANCH   7  11
ATOM      8  C   UNL     1      47.857   1.829   6.657  0.00  0.00    +0.000 C 
ATOM      9  C   UNL     1      46.723   1.442   7.577  0.00  0.00    +0.000 C 
ATOM     10  N   UNL     1      46.573   0.211   7.948  0.00  0.00    +0.000 NA
ATOM     11  N   UNL     1      45.871   2.425   7.993  0.00  0.00    +0.000 N 
ATOM     12  H   UNL     1      47.300  -0.385   7.540  0.00  0.00    +0.000 HD
ATOM     13  H   UNL     1      46.149   3.392   7.867  0.00  0.00    +0.000 HD
ENDBRANCH   7  11
ENDBRANCH   1   7
BRANCH   4  14
ATOM     14  O   UNL     1      45.167   6.296  12.889  0.00  0.00    +0.000 OA
BRANCH  14  15
ATOM     15  C   UNL     1      45.818   7.468  12.390  0.00  0.00    +0.000 C 
BRANCH  15  16
ATOM     16  C   UNL     1      47.290   7.421  12.703  0.00  0.00    +0.000 A 
ATOM     17  C   UNL     1      47.706   7.234  14.029  0.00  0.00    +0.000 A 
ATOM     18  C   UNL     1      49.063   7.219  14.328  0.00  0.00    +0.000 A 
ATOM     19  N   UNL     1      50.013   7.401  13.404  0.00  0.00    +0.000 NA
ATOM     20  C   UNL     1      49.593   7.599  12.133  0.00  0.00    +0.000 A 
ATOM     21 CL   UNL     1      50.855   7.838  10.997  0.00  0.00    +0.000 Cl
ATOM     22  C   UNL     1      48.268   7.624  11.734  0.00  0.00    +0.000 A 
BRANCH  18  23
ATOM     23  N   UNL     1      49.483   7.076  15.648  0.00  0.00    +0.000 N 
ATOM     24  H   UNL     1      48.843   6.520  16.201  0.00  0.00    +0.000 HD
ATOM     25  H   UNL     1      50.419   6.677  15.627  0.00  0.00    +0.000 HD
ENDBRANCH  18  23
ENDBRANCH  15  16
ENDBRANCH  14  15
ENDBRANCH   4  14
TORSDOF 6
ENDMDL
