MODEL 1
REMARK VINA RESULT:    -8.171      0.000      0.000
REMARK INTER + INTRA:         -12.263
REMARK INTER:                 -11.515
REMARK INTRA:                  -0.747
REMARK UNBOUND:                -0.747
REMARK  Name = 
REMARK  8 active torsions:
REMARK  status: ('A' for Active; 'I' for Inactive)
REMARK    1  A    between atoms: C_1  and  C_2
REMARK    2  A    between atoms: C_2  and  C_3
REMARK    3  A    between atoms: C_7  and  O_8
REMARK    4  A    between atoms: O_8  and  C_9
REMARK    5  A    between atoms: C_9  and  C_10
REMARK    6  A    between atoms: C_10  and  C_13
REMARK    7  A    between atoms: C_16  and  C_17
REMARK    8  A    between atoms: C_24  and  C_25
REMARK                            x       y       z     vdW  Elec       q    Type
REMARK                         _______ _______ _______ _____ _____    ______ ____
ROOT
ATOM      1  C   UNL     1      45.344   4.437  11.386  0.00  0.00    +0.000 A 
ATOM      2  C   UNL     1      45.668   5.767  11.053  0.00  0.00    +0.000 A 
ATOM      3  C   UNL     1      46.263   6.624  11.978  0.00  0.00    +0.000 A 
ATOM      4  C   UNL     1      46.544   6.178  13.267  0.00  0.00    +0.000 A 
ATOM      5  C   UNL     1      46.239   4.869  13.633  0.00  0.00    +0.000 A 
ATOM      6  C   UNL     1      45.664   4.006  12.689  0.00  0.00    +0.000 A 
ENDROOT
BRANCH   1   8
ATOM      7  C   UNL     1      43.448   2.844  11.105  0.00  0.00    +0.000 C 
ATOM      8  C   UNL     1      44.587   3.570  10.364  0.00  0.00    +0.000 C 
ATOM      9  C   UNL     1      44.049   4.404   9.181  0.00  0.00    +0.000 C 
ATOM     10  O   UNL     1      44.965   4.269   8.076  0.00  0.00    +0.000 OA
ATOM     11  C   UNL     1      46.030   3.374   8.469  0.00  0.00    +0.000 C 
ATOM     12  C   UNL     1      45.432   2.548   9.597  0.00  0.00    +0.000 C 
BRANCH  11  13
ATOM     13  C   UNL     1      46.597   2.522   7.325  0.00  0.00    +0.000 C 
ATOM     14  F   UNL     1      46.051   2.822   6.128  0.00  0.00    +0.000 F 
ATOM     15  F   UNL     1      47.936   2.706   7.216  0.00  0.00    +0.000 F 
ATOM     16  F   UNL     1      46.401   1.198   7.534  0.00  0.00    +0.000 F 
ENDBRANCH  11  13
ENDBRANCH   1   8
BRANCH   5  17
ATOM     17  O   UNL     1      46.437   4.322  14.875  0.00  0.00    +0.000 OA
BRANCH  17  18
ATOM     18  C   UNL     1      47.554   4.832  15.622  0.00  0.00    +0.000 C 
BRANCH  18  19
ATOM     19  C   UNL     1      47.697   4.133  16.981  0.00  0.00    +0.000 C 
ATOM     20  F   UNL     1      47.493   5.064  17.964  0.00  0.00    +0.000 F 
ATOM     21  F   UNL     1      46.644   3.265  17.108  0.00  0.00    +0.000 F 
BRANCH  19  22
ATOM     22  C   UNL     1      49.028   3.420  17.110  0.00  0.00    +0.000 A 
ATOM     23  C   UNL     1      49.156   2.115  16.649  0.00  0.00    +0.000 A 
ATOM     24  N   UNL     1      50.292   1.387  16.792  0.00  0.00    +0.000 NA
ATOM     25  C   UNL     1      51.322   2.022  17.406  0.00  0.00    +0.000 A 
ATOM     26  C   UNL     1      51.225   3.337  17.827  0.00  0.00    +0.000 A 
ATOM     27  N   UNL     1      50.086   4.063  17.691  0.00  0.00    +0.000 NA
BRANCH  25  28
ATOM     28  C   UNL     1      52.503   1.257  17.657  0.00  0.00    +0.000 C 
ATOM     29  N   UNL     1      53.438   0.603  17.891  0.00  0.00    +0.000 NA
ENDBRANCH  25  28
ENDBRANCH  19  22
ENDBRANCH  18  19
ENDBRANCH  17  18
ENDBRANCH   5  17
TORSDOF 7
ENDMDL
MODEL 2
REMARK VINA RESULT:    -7.964      1.716      2.463
REMARK INTER + INTRA:         -11.970
REMARK INTER:                 -10.940
REMARK INTRA:                  -1.030
REMARK UNBOUND:                -0.747
REMARK  Name = 
REMARK  8 active torsions:
REMARK  status: ('A' for Active; 'I' for Inactive)
REMARK    1  A    between atoms: C_1  and  C_2
REMARK    2  A    between atoms: C_2  and  C_3
REMARK    3  A    between atoms: C_7  and  O_8
REMARK    4  A    between atoms: O_8  and  C_9
REMARK    5  A    between atoms: C_9  and  C_10
REMARK    6  A    between atoms: C_10  and  C_13
REMARK    7  A    between atoms: C_16  and  C_17
REMARK    8  A    between atoms: C_24  and  C_25
REMARK                            x       y       z     vdW  Elec       q    Type
REMARK                         _______ _______ _______ _____ _____    ______ ____
ROOT
ATOM      1  C   UNL     1      45.578   5.164  12.490  0.00  0.00    +0.000 A 
ATOM      2  C   UNL     1      45.870   6.438  11.966  0.00  0.00    +0.000 A 
ATOM      3  C   UNL     1      46.888   7.227  12.499  0.00  0.00    +0.000 A 
ATOM      4  C   UNL     1      47.640   6.768  13.577  0.00  0.00    +0.000 A 
ATOM      5  C   UNL     1      47.381   5.512  14.121  0.00  0.00    +0.000 A 
ATOM      6  C   UNL     1      46.371   4.715  13.563  0.00  0.00    +0.000 A 
ENDROOT
BRANCH   1   8
ATOM      7  C   UNL     1      43.403   4.115  13.105  0.00  0.00    +0.000 C 
ATOM      8  C   UNL     1      44.371   4.384  11.937  0.00  0.00    +0.000 C 
ATOM      9  C   UNL     1      43.671   5.137  10.785  0.00  0.00    +0.000 C 
ATOM     10  O   UNL     1      44.138   4.592   9.536  0.00  0.00    +0.000 OA
ATOM     11  C   UNL     1      45.060   3.516   9.820  0.00  0.00    +0.000 C 
ATOM     12  C   UNL     1      44.695   3.066  11.226  0.00  0.00    +0.000 C 
BRANCH  11  13
ATOM     13  C   UNL     1      45.042   2.376   8.792  0.00  0.00    +0.000 C 
ATOM     14  F   UNL     1      46.274   1.892   8.525  0.00  0.00    +0.000 F 
ATOM     15  F   UNL     1      44.290   1.343   9.244  0.00  0.00    +0.000 F 
ATOM     16  F   UNL     1      44.501   2.766   7.613  0.00  0.00    +0.000 F 
ENDBRANCH  11  13
ENDBRANCH   1   8
BRANCH   5  17
ATOM     17  O   UNL     1      48.028   4.961  15.198  0.00  0.00    +0.000 OA
BRANCH  17  18
ATOM     18  C   UNL     1      47.200   4.271  16.150  0.00  0.00    +0.000 C 
BRANCH  18  19
ATOM     19  C   UNL     1      47.952   3.116  16.825  0.00  0.00    +0.000 C 
ATOM     20  F   UNL     1      47.065   2.428  17.610  0.00  0.00    +0.000 F 
ATOM     21  F   UNL     1      48.302   2.225  15.844  0.00  0.00    +0.000 F 
BRANCH  19  22
ATOM     22  C   UNL     1      49.163   3.605  17.594  0.00  0.00    +0.000 A 
ATOM     23  C   UNL     1      48.985   4.295  18.789  0.00  0.00    +0.000 A 
ATOM     24  N   UNL     1      50.012   4.825  19.499  0.00  0.00    +0.000 NA
ATOM     25  C   UNL     1      51.249   4.625  18.977  0.00  0.00    +0.000 A 
ATOM     26  C   UNL     1      51.446   3.899  17.815  0.00  0.00    +0.000 A 
ATOM     27  N   UNL     1      50.417   3.375  17.101  0.00  0.00    +0.000 NA
BRANCH  25  28
ATOM     28  C   UNL     1      52.348   5.248  19.647  0.00  0.00    +0.000 C 
ATOM     29  N   UNL     1      53.267   5.759  20.148  0.00  0.00    +0.000 NA
ENDBRANCH  25  28
ENDBRANCH  19  22
ENDBRANCH  18  19
ENDBRANCH  17  18
ENDBRANCH   5  17
TORSDOF 7
ENDMDL
MODEL 3
REMARK VINA RESULT:    -7.731      4.665      8.466
REMARK INTER + INTRA:         -11.642
REMARK INTER:                 -10.589
REMARK INTRA:                  -1.053
REMARK UNBOUND:                -0.747
REMARK  Name = 
REMARK  8 active torsions:
REMARK  status: ('A' for Active; 'I' for Inactive)
REMARK    1  A    between atoms: C_1  and  C_2
REMARK    2  A    between atoms: C_2  and  C_3
REMARK    3  A    between atoms: C_7  and  O_8
REMARK    4  A    between atoms: O_8  and  C_9
REMARK    5  A    between atoms: C_9  and  C_10
REMARK    6  A    between atoms: C_10  and  C_13
REMARK    7  A    between atoms: C_16  and  C_17
REMARK    8  A    between atoms: C_24  and  C_25
REMARK                            x       y       z     vdW  Elec       q    Type
REMARK                         _______ _______ _______ _____ _____    ______ ____
ROOT
ATOM      1  C   UNL     1      47.203   8.151  12.475  0.00  0.00    +0.000 A 
ATOM      2  C   UNL     1      46.738   9.437  12.138  0.00  0.00    +0.000 A 
ATOM      3  C   UNL     1      45.429   9.645  11.704  0.00  0.00    +0.000 A 
ATOM      4  C   UNL     1      44.549   8.573  11.588  0.00  0.00    +0.000 A 
ATOM      5  C   UNL     1      44.974   7.286  11.913  0.00  0.00    +0.000 A 
ATOM      6  C   UNL     1      46.284   7.089  12.372  0.00  0.00    +0.000 A 
ENDROOT
BRANCH   1   8
ATOM      7  C   UNL     1      49.478   7.769  11.531  0.00  0.00    +0.000 C 
ATOM      8  C   UNL     1      48.687   7.962  12.839  0.00  0.00    +0.000 C 
ATOM      9  C   UNL     1      49.239   9.146  13.662  0.00  0.00    +0.000 C 
ATOM     10  O   UNL     1      49.222   8.777  15.056  0.00  0.00    +0.000 OA
ATOM     11  C   UNL     1      48.731   7.422  15.166  0.00  0.00    +0.000 C 
ATOM     12  C   UNL     1      48.999   6.810  13.800  0.00  0.00    +0.000 C 
BRANCH  11  13
ATOM     13  C   UNL     1      49.342   6.619  16.324  0.00  0.00    +0.000 C 
ATOM     14  F   UNL     1      49.378   7.312  17.481  0.00  0.00    +0.000 F 
ATOM     15  F   UNL     1      48.623   5.492  16.549  0.00  0.00    +0.000 F 
ATOM     16  F   UNL     1      50.609   6.225  16.053  0.00  0.00    +0.000 F 
ENDBRANCH  11  13
ENDBRANCH   1   8
BRANCH   5  17
ATOM     17  O   UNL     1      44.216   6.147  11.812  0.00  0.00    +0.000 OA
BRANCH  17  18
ATOM     18  C   UNL     1      44.916   4.952  11.429  0.00  0.00    +0.000 C 
BRANCH  18  19
ATOM     19  C   UNL     1      44.125   4.135  10.398  0.00  0.00    +0.000 C 
ATOM     20  F   UNL     1      43.447   3.148  11.062  0.00  0.00    +0.000 F 
ATOM     21  F   UNL     1      43.141   4.948   9.898  0.00  0.00    +0.000 F 
BRANCH  19  22
ATOM     22  C   UNL     1      45.019   3.598   9.299  0.00  0.00    +0.000 A 
ATOM     23  C   UNL     1      45.212   2.226   9.179  0.00  0.00    +0.000 A 
ATOM     24  N   UNL     1      46.050   1.673   8.267  0.00  0.00    +0.000 NA
ATOM     25  C   UNL     1      46.690   2.548   7.452  0.00  0.00    +0.000 A 
ATOM     26  C   UNL     1      46.472   3.913   7.527  0.00  0.00    +0.000 A 
ATOM     27  N   UNL     1      45.638   4.468   8.444  0.00  0.00    +0.000 NA
BRANCH  25  28
ATOM     28  C   UNL     1      47.651   2.009   6.541  0.00  0.00    +0.000 C 
ATOM     29  N   UNL     1      48.422   1.607   5.766  0.00  0.00    +0.000 NA
ENDBRANCH  25  28
ENDBRANCH  19  22
ENDBRANCH  18  19
ENDBRANCH  17  18
ENDBRANCH   5  17
TORSDOF 7
ENDMDL
MODEL 4
REMARK VINA RESULT:    -7.536      4.393      9.343
REMARK INTER + INTRA:         -11.368
REMARK INTER:                 -10.512
REMARK INTRA:                  -0.856
REMARK UNBOUND:                -0.747
REMARK  Name = 
REMARK  8 active torsions:
REMARK  status: ('A' for Active; 'I' for Inactive)
REMARK    1  A    between atoms: C_1  and  C_2
REMARK    2  A    between atoms: C_2  and  C_3
REMARK    3  A    between atoms: C_7  and  O_8
REMARK    4  A    between atoms: O_8  and  C_9
REMARK    5  A    between atoms: C_9  and  C_10
REMARK    6  A    between atoms: C_10  and  C_13
REMARK    7  A    between atoms: C_16  and  C_17
REMARK    8  A    between atoms: C_24  and  C_25
REMARK                            x       y       z     vdW  Elec       q    Type
REMARK                         _______ _______ _______ _____ _____    ______ ____
ROOT
ATOM      1  C   UNL     1      47.916   5.140  15.688  0.00  0.00    +0.000 A 
ATOM      2  C   UNL     1      48.478   6.253  15.034  0.00  0.00    +0.000 A 
ATOM      3  C   UNL     1      48.059   6.635  13.760  0.00  0.00    +0.000 A 
ATOM      4  C   UNL     1      47.071   5.911  13.100  0.00  0.00    +0.000 A 
ATOM      5  C   UNL     1      46.490   4.804  13.716  0.00  0.00    +0.000 A 
ATOM      6  C   UNL     1      46.900   4.441  15.007  0.00  0.00    +0.000 A 
ENDROOT
BRANCH   1   8
ATOM      7  C   UNL     1      48.702   3.169  16.996  0.00  0.00    +0.000 C 
ATOM      8  C   UNL     1      48.493   4.695  17.044  0.00  0.00    +0.000 C 
ATOM      9  C   UNL     1      49.806   5.433  17.386  0.00  0.00    +0.000 C 
ATOM     10  O   UNL     1      49.496   6.520  18.282  0.00  0.00    +0.000 OA
ATOM     11  C   UNL     1      48.078   6.495  18.560  0.00  0.00    +0.000 C 
ATOM     12  C   UNL     1      47.662   5.060  18.278  0.00  0.00    +0.000 C 
BRANCH  11  13
ATOM     13  C   UNL     1      47.699   6.974  19.969  0.00  0.00    +0.000 C 
ATOM     14  F   UNL     1      47.093   8.179  19.967  0.00  0.00    +0.000 F 
ATOM     15  F   UNL     1      46.850   6.095  20.555  0.00  0.00    +0.000 F 
ATOM     16  F   UNL     1      48.781   7.070  20.778  0.00  0.00    +0.000 F 
ENDBRANCH  11  13
ENDBRANCH   1   8
BRANCH   5  17
ATOM     17  O   UNL     1      45.534   3.993  13.160  0.00  0.00    +0.000 OA
BRANCH  17  18
ATOM     18  C   UNL     1      44.317   4.638  12.747  0.00  0.00    +0.000 C 
BRANCH  18  19
ATOM     19  C   UNL     1      43.552   3.801  11.714  0.00  0.00    +0.000 C 
ATOM     20  F   UNL     1      43.185   2.622  12.306  0.00  0.00    +0.000 F 
ATOM     21  F   UNL     1      42.367   4.440  11.463  0.00  0.00    +0.000 F 
BRANCH  19  22
ATOM     22  C   UNL     1      44.357   3.598  10.446  0.00  0.00    +0.000 A 
ATOM     23  C   UNL     1      44.920   4.697   9.807  0.00  0.00    +0.000 A 
ATOM     24  N   UNL     1      45.595   4.606   8.633  0.00  0.00    +0.000 NA
ATOM     25  C   UNL     1      45.706   3.356   8.116  0.00  0.00    +0.000 A 
ATOM     26  C   UNL     1      45.193   2.247   8.765  0.00  0.00    +0.000 A 
ATOM     27  N   UNL     1      44.512   2.339   9.937  0.00  0.00    +0.000 NA
BRANCH  25  28
ATOM     28  C   UNL     1      46.328   3.233   6.835  0.00  0.00    +0.000 C 
ATOM     29  N   UNL     1      46.825   3.182   5.784  0.00  0.00    +0.000 NA
ENDBRANCH  25  28
ENDBRANCH  19  22
ENDBRANCH  18  19
ENDBRANCH  17  18
ENDBRANCH   5  17
TORSDOF 7
ENDMDL
MODEL 5
REMARK VINA RESULT:    -7.404      5.203      8.217
REMARK INTER + INTRA:         -11.181
REMARK INTER:                 -10.239
REMARK INTRA:                  -0.942
REMARK UNBOUND:                -0.747
REMARK  Name = 
REMARK  8 active torsions:
REMARK  status: ('A' for Active; 'I' for Inactive)
REMARK    1  A    between atoms: C_1  and  C_2
REMARK    2  A    between atoms: C_2  and  C_3
REMARK    3  A    between atoms: C_7  and  O_8
REMARK    4  A    between atoms: O_8  and  C_9
REMARK    5  A    between atoms: C_9  and  C_10
REMARK    6  A    between atoms: C_10  and  C_13
REMARK    7  A    between atoms: C_16  and  C_17
REMARK    8  A    between atoms: C_24  and  C_25
REMARK                            x       y       z     vdW  Elec       q    Type
REMARK                         _______ _______ _______ _____ _____    ______ ____
ROOT
ATOM      1  C   UNL     1      48.298   7.518  12.817  0.00  0.00    +0.000 A 
ATOM      2  C   UNL     1      48.514   6.862  14.044  0.00  0.00    +0.000 A 
ATOM      3  C   UNL     1      47.723   5.785  14.442  0.00  0.00    +0.000 A 
ATOM      4  C   UNL     1      46.688   5.337  13.627  0.00  0.00    +0.000 A 
ATOM      5  C   UNL     1      46.444   5.960  12.405  0.00  0.00    +0.000 A 
ATOM      6  C   UNL     1      47.260   7.027  12.001  0.00  0.00    +0.000 A 
ENDROOT
BRANCH   1   8
ATOM      7  C   UNL     1      48.159   9.964  12.359  0.00  0.00    +0.000 C 
ATOM      8  C   UNL     1      49.127   8.771  12.479  0.00  0.00    +0.000 C 
ATOM      9  C   UNL     1      50.227   9.040  13.528  0.00  0.00    +0.000 C 
ATOM     10  O   UNL     1      51.473   8.520  13.023  0.00  0.00    +0.000 OA
ATOM     11  C   UNL     1      51.242   7.973  11.705  0.00  0.00    +0.000 C 
ATOM     12  C   UNL     1      49.989   8.683  11.216  0.00  0.00    +0.000 C 
BRANCH  11  13
ATOM     13  C   UNL     1      52.432   8.108  10.745  0.00  0.00    +0.000 C 
ATOM     14  F   UNL     1      52.122   7.768   9.476  0.00  0.00    +0.000 F 
ATOM     15  F   UNL     1      52.881   9.387  10.723  0.00  0.00    +0.000 F 
ATOM     16  F   UNL     1      53.478   7.335  11.123  0.00  0.00    +0.000 F 
ENDBRANCH  11  13
ENDBRANCH   1   8
BRANCH   5  17
ATOM     17  O   UNL     1      45.439   5.634  11.530  0.00  0.00    +0.000 OA
BRANCH  17  18
ATOM     18  C   UNL     1      44.866   4.324  11.682  0.00  0.00    +0.000 C 
BRANCH  18  19
ATOM     19  C   UNL     1      44.049   3.914  10.449  0.00  0.00    +0.000 C 
ATOM     20  F   UNL     1      43.123   2.984  10.839  0.00  0.00    +0.000 F 
ATOM     21  F   UNL     1      43.305   5.000  10.070  0.00  0.00    +0.000 F 
BRANCH  19  22
ATOM     22  C   UNL     1      44.938   3.424   9.324  0.00  0.00    +0.000 A 
ATOM     23  C   UNL     1      45.218   2.067   9.211  0.00  0.00    +0.000 A 
ATOM     24  N   UNL     1      46.059   1.559   8.275  0.00  0.00    +0.000 NA
ATOM     25  C   UNL     1      46.608   2.465   7.427  0.00  0.00    +0.000 A 
ATOM     26  C   UNL     1      46.301   3.813   7.497  0.00  0.00    +0.000 A 
ATOM     27  N   UNL     1      45.465   4.322   8.438  0.00  0.00    +0.000 NA
BRANCH  25  28
ATOM     28  C   UNL     1      47.570   1.980   6.488  0.00  0.00    +0.000 C 
ATOM     29  N   UNL     1      48.388   1.617   5.743  0.00  0.00    +0.000 NA
ENDBRANCH  25  28
ENDBRANCH  19  22
ENDBRANCH  18  19
ENDBRANCH  17  18
ENDBRANCH   5  17
TORSDOF 7
ENDMDL
MODEL 6
REMARK VINA RESULT:    -7.370      2.111      2.985
REMARK INTER + INTRA:         -11.133
REMARK INTER:                 -10.160
REMARK INTRA:                  -0.973
REMARK UNBOUND:                -0.747
REMARK  Name = 
REMARK  8 active torsions:
REMARK  status: ('A' for Active; 'I' for Inactive)
REMARK    1  A    between atoms: C_1  and  C_2
REMARK    2  A    between atoms: C_2  and  C_3
REMARK    3  A    between atoms: C_7  and  O_8
REMARK    4  A    between atoms: O_8  and  C_9
REMARK    5  A    between atoms: C_9  and  C_10
REMARK    6  A    between atoms: C_10  and  C_13
REMARK    7  A    between atoms: C_16  and  C_17
REMARK    8  A    between atoms: C_24  and  C_25
REMARK                            x       y       z     vdW  Elec       q    Type
REMARK                         _______ _______ _______ _____ _____    ______ ____
ROOT
ATOM      1  C   UNL     1      46.794   6.616  12.228  0.00  0.00    +0.000 A 
ATOM      2  C   UNL     1      47.829   7.396  11.674  0.00  0.00    +0.000 A 
ATOM      3  C   UNL     1      49.031   7.593  12.351  0.00  0.00    +0.000 A 
ATOM      4  C   UNL     1      49.233   7.022  13.605  0.00  0.00    +0.000 A 
ATOM      5  C   UNL     1      48.233   6.243  14.184  0.00  0.00    +0.000 A 
ATOM      6  C   UNL     1      47.036   6.030  13.485  0.00  0.00    +0.000 A 
ENDROOT
BRANCH   1   8
ATOM      7  C   UNL     1      44.833   7.936  11.440  0.00  0.00    +0.000 C 
ATOM      8  C   UNL     1      45.447   6.524  11.489  0.00  0.00    +0.000 C 
ATOM      9  C   UNL     1      45.601   5.926  10.073  0.00  0.00    +0.000 C 
ATOM     10  O   UNL     1      45.254   4.528  10.131  0.00  0.00    +0.000 OA
ATOM     11  C   UNL     1      44.855   4.209  11.483  0.00  0.00    +0.000 C 
ATOM     12  C   UNL     1      44.427   5.542  12.076  0.00  0.00    +0.000 C 
BRANCH  11  13
ATOM     13  C   UNL     1      43.775   3.122  11.586  0.00  0.00    +0.000 C 
ATOM     14  F   UNL     1      42.523   3.620  11.509  0.00  0.00    +0.000 F 
ATOM     15  F   UNL     1      43.914   2.220  10.583  0.00  0.00    +0.000 F 
ATOM     16  F   UNL     1      43.862   2.431  12.747  0.00  0.00    +0.000 F 
ENDBRANCH  11  13
ENDBRANCH   1   8
BRANCH   5  17
ATOM     17  O   UNL     1      48.297   5.655  15.421  0.00  0.00    +0.000 OA
BRANCH  17  18
ATOM     18  C   UNL     1      47.269   4.695  15.721  0.00  0.00    +0.000 C 
BRANCH  18  19
ATOM     19  C   UNL     1      47.500   4.022  17.080  0.00  0.00    +0.000 C 
ATOM     20  F   UNL     1      47.273   4.950  18.062  0.00  0.00    +0.000 F 
ATOM     21  F   UNL     1      46.506   3.093  17.252  0.00  0.00    +0.000 F 
BRANCH  19  22
ATOM     22  C   UNL     1      48.875   3.393  17.171  0.00  0.00    +0.000 A 
ATOM     23  C   UNL     1      49.121   2.182  16.532  0.00  0.00    +0.000 A 
ATOM     24  N   UNL     1      50.302   1.522  16.623  0.00  0.00    +0.000 NA
ATOM     25  C   UNL     1      51.256   2.129  17.374  0.00  0.00    +0.000 A 
ATOM     26  C   UNL     1      51.043   3.357  17.976  0.00  0.00    +0.000 A 
ATOM     27  N   UNL     1      49.858   4.014  17.890  0.00  0.00    +0.000 NA
BRANCH  25  28
ATOM     28  C   UNL     1      52.482   1.420  17.569  0.00  0.00    +0.000 C 
ATOM     29  N   UNL     1      53.453   0.800  17.737  0.00  0.00    +0.000 NA
ENDBRANCH  25  28
ENDBRANCH  19  22
ENDBRANCH  18  19
ENDBRANCH  17  18
ENDBRANCH   5  17
TORSDOF 7
ENDMDL
MODEL 7
REMARK VINA RESULT:    -6.907      4.266      8.247
REMARK INTER + INTRA:         -10.481
REMARK INTER:                  -9.110
REMARK INTRA:                  -1.371
REMARK UNBOUND:                -0.747
REMARK  Name = 
REMARK  8 active torsions:
REMARK  status: ('A' for Active; 'I' for Inactive)
REMARK    1  A    between atoms: C_1  and  C_2
REMARK    2  A    between atoms: C_2  and  C_3
REMARK    3  A    between atoms: C_7  and  O_8
REMARK    4  A    between atoms: O_8  and  C_9
REMARK    5  A    between atoms: C_9  and  C_10
REMARK    6  A    between atoms: C_10  and  C_13
REMARK    7  A    between atoms: C_16  and  C_17
REMARK    8  A    between atoms: C_24  and  C_25
REMARK                            x       y       z     vdW  Elec       q    Type
REMARK                         _______ _______ _______ _____ _____    ______ ____
ROOT
ATOM      1  C   UNL     1      48.505   7.570  17.581  0.00  0.00    +0.000 A 
ATOM      2  C   UNL     1      48.144   8.842  18.068  0.00  0.00    +0.000 A 
ATOM      3  C   UNL     1      48.203   9.974  17.257  0.00  0.00    +0.000 A 
ATOM      4  C   UNL     1      48.632   9.869  15.936  0.00  0.00    +0.000 A 
ATOM      5  C   UNL     1      48.995   8.628  15.419  0.00  0.00    +0.000 A 
ATOM      6  C   UNL     1      48.909   7.490  16.234  0.00  0.00    +0.000 A 
ENDROOT
BRANCH   1   8
ATOM      7  C   UNL     1      49.378   6.769  19.773  0.00  0.00    +0.000 C 
ATOM      8  C   UNL     1      48.528   6.374  18.550  0.00  0.00    +0.000 C 
ATOM      9  C   UNL     1      47.106   5.938  18.969  0.00  0.00    +0.000 C 
ATOM     10  O   UNL     1      46.720   4.811  18.157  0.00  0.00    +0.000 OA
ATOM     11  C   UNL     1      47.818   4.480  17.278  0.00  0.00    +0.000 C 
ATOM     12  C   UNL     1      49.045   5.053  17.972  0.00  0.00    +0.000 C 
BRANCH  11  13
ATOM     13  C   UNL     1      47.945   2.984  16.956  0.00  0.00    +0.000 C 
ATOM     14  F   UNL     1      49.138   2.469  17.319  0.00  0.00    +0.000 F 
ATOM     15  F   UNL     1      46.986   2.278  17.603  0.00  0.00    +0.000 F 
ATOM     16  F   UNL     1      47.786   2.736  15.634  0.00  0.00    +0.000 F 
ENDBRANCH  11  13
ENDBRANCH   1   8
BRANCH   5  17
ATOM     17  O   UNL     1      49.461   8.399  14.149  0.00  0.00    +0.000 OA
BRANCH  17  18
ATOM     18  C   UNL     1      49.062   7.159  13.541  0.00  0.00    +0.000 C 
BRANCH  18  19
ATOM     19  C   UNL     1      48.046   7.381  12.412  0.00  0.00    +0.000 C 
ATOM     20  F   UNL     1      47.575   8.664  12.506  0.00  0.00    +0.000 F 
ATOM     21  F   UNL     1      48.735   7.356  11.228  0.00  0.00    +0.000 F 
BRANCH  19  22
ATOM     22  C   UNL     1      46.940   6.345  12.438  0.00  0.00    +0.000 A 
ATOM     23  C   UNL     1      46.827   5.489  13.528  0.00  0.00    +0.000 A 
ATOM     24  N   UNL     1      45.909   4.491  13.595  0.00  0.00    +0.000 NA
ATOM     25  C   UNL     1      45.081   4.384  12.525  0.00  0.00    +0.000 A 
ATOM     26  C   UNL     1      45.150   5.260  11.455  0.00  0.00    +0.000 A 
ATOM     27  N   UNL     1      46.073   6.254  11.386  0.00  0.00    +0.000 NA
BRANCH  25  28
ATOM     28  C   UNL     1      44.163   3.289  12.517  0.00  0.00    +0.000 C 
ATOM     29  N   UNL     1      43.387   2.422  12.478  0.00  0.00    +0.000 NA
ENDBRANCH  25  28
ENDBRANCH  19  22
ENDBRANCH  18  19
ENDBRANCH  17  18
ENDBRANCH   5  17
TORSDOF 7
ENDMDL
MODEL 8
REMARK VINA RESULT:    -6.781      5.060      8.333
REMARK INTER + INTRA:         -10.303
REMARK INTER:                  -9.478
REMARK INTRA:                  -0.825
REMARK UNBOUND:                -0.747
REMARK  Name = 
REMARK  8 active torsions:
REMARK  status: ('A' for Active; 'I' for Inactive)
REMARK    1  A    between atoms: C_1  and  C_2
REMARK    2  A    between atoms: C_2  and  C_3
REMARK    3  A    between atoms: C_7  and  O_8
REMARK    4  A    between atoms: O_8  and  C_9
REMARK    5  A    between atoms: C_9  and  C_10
REMARK    6  A    between atoms: C_10  and  C_13
REMARK    7  A    between atoms: C_16  and  C_17
REMARK    8  A    between atoms: C_24  and  C_25
REMARK                            x       y       z     vdW  Elec       q    Type
REMARK                         _______ _______ _______ _____ _____    ______ ____
ROOT
ATOM      1  C   UNL     1      48.295   6.556  14.785  0.00  0.00    +0.000 A 
ATOM      2  C   UNL     1      48.180   5.587  15.801  0.00  0.00    +0.000 A 
ATOM      3  C   UNL     1      47.394   4.448  15.633  0.00  0.00    +0.000 A 
ATOM      4  C   UNL     1      46.694   4.248  14.447  0.00  0.00    +0.000 A 
ATOM      5  C   UNL     1      46.784   5.184  13.419  0.00  0.00    +0.000 A 
ATOM      6  C   UNL     1      47.596   6.315  13.587  0.00  0.00    +0.000 A 
ENDROOT
BRANCH   1   8
ATOM      7  C   UNL     1      48.461   8.529  16.299  0.00  0.00    +0.000 C 
ATOM      8  C   UNL     1      49.085   7.848  15.065  0.00  0.00    +0.000 C 
ATOM      9  C   UNL     1      50.590   7.573  15.274  0.00  0.00    +0.000 C 
ATOM     10  O   UNL     1      51.278   7.850  14.038  0.00  0.00    +0.000 OA
ATOM     11  C   UNL     1      50.312   8.317  13.070  0.00  0.00    +0.000 C 
ATOM     12  C   UNL     1      49.161   8.850  13.910  0.00  0.00    +0.000 C 
BRANCH  11  13
ATOM     13  C   UNL     1      50.862   9.344  12.069  0.00  0.00    +0.000 C 
ATOM     14  F   UNL     1      51.626  10.289  12.656  0.00  0.00    +0.000 F 
ATOM     15  F   UNL     1      51.625   8.730  11.132  0.00  0.00    +0.000 F 
ATOM     16  F   UNL     1      49.870   9.985  11.406  0.00  0.00    +0.000 F 
ENDBRANCH  11  13
ENDBRANCH   1   8
BRANCH   5  17
ATOM     17  O   UNL     1      46.121   5.117  12.220  0.00  0.00    +0.000 OA
BRANCH  17  18
ATOM     18  C   UNL     1      44.868   4.413  12.225  0.00  0.00    +0.000 C 
BRANCH  18  19
ATOM     19  C   UNL     1      44.134   4.547  10.884  0.00  0.00    +0.000 C 
ATOM     20  F   UNL     1      42.872   4.038  11.034  0.00  0.00    +0.000 F 
ATOM     21  F   UNL     1      43.939   5.884  10.655  0.00  0.00    +0.000 F 
BRANCH  19  22
ATOM     22  C   UNL     1      44.902   3.892   9.754  0.00  0.00    +0.000 A 
ATOM     23  C   UNL     1      44.999   2.506   9.702  0.00  0.00    +0.000 A 
ATOM     24  N   UNL     1      45.726   1.848   8.764  0.00  0.00    +0.000 NA
ATOM     25  C   UNL     1      46.352   2.633   7.851  0.00  0.00    +0.000 A 
ATOM     26  C   UNL     1      46.226   4.012   7.861  0.00  0.00    +0.000 A 
ATOM     27  N   UNL     1      45.504   4.670   8.804  0.00  0.00    +0.000 NA
BRANCH  25  28
ATOM     28  C   UNL     1      47.201   1.982   6.903  0.00  0.00    +0.000 C 
ATOM     29  N   UNL     1      47.927   1.444   6.169  0.00  0.00    +0.000 NA
ENDBRANCH  25  28
ENDBRANCH  19  22
ENDBRANCH  18  19
ENDBRANCH  17  18
ENDBRANCH   5  17
TORSDOF 7
ENDMDL
MODEL 9
REMARK VINA RESULT:    -6.263      4.714      9.013
REMARK INTER + INTRA:          -9.574
REMARK INTER:                  -8.983
REMARK INTRA:                  -0.591
REMARK UNBOUND:                -0.747
REMARK  Name = 
REMARK  8 active torsions:
REMARK  status: ('A' for Active; 'I' for Inactive)
REMARK    1  A    between atoms: C_1  and  C_2
REMARK    2  A    between atoms: C_2  and  C_3
REMARK    3  A    between atoms: C_7  and  O_8
REMARK    4  A    between atoms: O_8  and  C_9
REMARK    5  A    between atoms: C_9  and  C_10
REMARK    6  A    between atoms: C_10  and  C_13
REMARK    7  A    between atoms: C_16  and  C_17
REMARK    8  A    between atoms: C_24  and  C_25
REMARK                            x       y       z     vdW  Elec       q    Type
REMARK                         _______ _______ _______ _____ _____    ______ ____
ROOT
ATOM      1  C   UNL     1      48.110   6.599  14.501  0.00  0.00    +0.000 A 
ATOM      2  C   UNL     1      48.370   7.686  13.643  0.00  0.00    +0.000 A 
ATOM      3  C   UNL     1      47.855   7.729  12.348  0.00  0.00    +0.000 A 
ATOM      4  C   UNL     1      47.070   6.683  11.871  0.00  0.00    +0.000 A 
ATOM      5  C   UNL     1      46.790   5.592  12.690  0.00  0.00    +0.000 A 
ATOM      6  C   UNL     1      47.292   5.568  14.000  0.00  0.00    +0.000 A 
ENDROOT
BRANCH   1   8
ATOM      7  C   UNL     1      48.427   5.210  16.546  0.00  0.00    +0.000 C 
ATOM      8  C   UNL     1      48.794   6.550  15.879  0.00  0.00    +0.000 C 
ATOM      9  C   UNL     1      50.325   6.726  15.773  0.00  0.00    +0.000 C 
ATOM     10  O   UNL     1      50.645   8.101  16.065  0.00  0.00    +0.000 OA
ATOM     11  C   UNL     1      49.421   8.799  16.386  0.00  0.00    +0.000 C 
ATOM     12  C   UNL     1      48.466   7.703  16.832  0.00  0.00    +0.000 C 
BRANCH  11  13
ATOM     13  C   UNL     1      49.584   9.923  17.419  0.00  0.00    +0.000 C 
ATOM     14  F   UNL     1      48.457  10.151  18.126  0.00  0.00    +0.000 F 
ATOM     15  F   UNL     1      50.562   9.613  18.306  0.00  0.00    +0.000 F 
ATOM     16  F   UNL     1      49.939  11.095  16.841  0.00  0.00    +0.000 F 
ENDBRANCH  11  13
ENDBRANCH   1   8
BRANCH   5  17
ATOM     17  O   UNL     1      46.059   4.489  12.328  0.00  0.00    +0.000 OA
BRANCH  17  18
ATOM     18  C   UNL     1      44.631   4.609  12.444  0.00  0.00    +0.000 C 
BRANCH  18  19
ATOM     19  C   UNL     1      43.961   4.774  11.073  0.00  0.00    +0.000 C 
ATOM     20  F   UNL     1      42.668   4.336  11.174  0.00  0.00    +0.000 F 
ATOM     21  F   UNL     1      43.848   6.118  10.831  0.00  0.00    +0.000 F 
BRANCH  19  22
ATOM     22  C   UNL     1      44.738   4.071   9.979  0.00  0.00    +0.000 A 
ATOM     23  C   UNL     1      44.765   2.681   9.939  0.00  0.00    +0.000 A 
ATOM     24  N   UNL     1      45.493   1.979   9.034  0.00  0.00    +0.000 NA
ATOM     25  C   UNL     1      46.194   2.723   8.142  0.00  0.00    +0.000 A 
ATOM     26  C   UNL     1      46.139   4.106   8.139  0.00  0.00    +0.000 A 
ATOM     27  N   UNL     1      45.416   4.809   9.049  0.00  0.00    +0.000 NA
BRANCH  25  28
ATOM     28  C   UNL     1      47.045   2.022   7.233  0.00  0.00    +0.000 C 
ATOM     29  N   UNL     1      47.714   1.407   6.506  0.00  0.00    +0.000 NA
ENDBRANCH  25  28
ENDBRANCH  19  22
ENDBRANCH  18  19
ENDBRANCH  17  18
ENDBRANCH   5  17
TORSDOF 7
ENDMDL
