MODEL 1
REMARK VINA RESULT:    -7.690      0.000      0.000
REMARK INTER + INTRA:         -10.126
REMARK INTER:                  -9.488
REMARK INTRA:                  -0.638
REMARK UNBOUND:                -0.638
REMARK  Name = 
REMARK  4 active torsions:
REMARK  status: ('A' for Active; 'I' for Inactive)
REMARK    1  A    between atoms: C_3  and  N_4
REMARK    2  A    between atoms: N_4  and  C_5
REMARK    3  A    between atoms: C_5  and  C_6
REMARK    4  A    between atoms: C_13  and  N_14
REMARK                            x       y       z     vdW  Elec       q    Type
REMARK                         _______ _______ _______ _____ _____    ______ ____
ROOT
ATOM      1  C   UNL     1      43.181   4.715  12.937  0.00  0.00    +0.000 A 
ATOM      2  C   UNL     1      43.363   3.710  11.997  0.00  0.00    +0.000 A 
ATOM      3  C   UNL     1      44.436   3.753  11.098  0.00  0.00    +0.000 A 
ATOM      4  C   UNL     1      45.364   4.801  11.211  0.00  0.00    +0.000 A 
ATOM      5  C   UNL     1      45.201   5.840  12.144  0.00  0.00    +0.000 A 
ATOM      6  C   UNL     1      44.091   5.767  13.001  0.00  0.00    +0.000 A 
ENDROOT
BRANCH   5   7
ATOM      7  N   UNL     1      46.099   6.893  12.281  0.00  0.00    +0.000 N 
ATOM      8  C   UNL     1      45.701   8.167  12.881  0.00  0.00    +0.000 C 
ATOM      9  C   UNL     1      46.532   9.280  12.232  0.00  0.00    +0.000 C 
ATOM     10  C   UNL     1      48.034   8.998  12.311  0.00  0.00    +0.000 C 
ATOM     11  C   UNL     1      48.374   7.595  11.809  0.00  0.00    +0.000 C 
ATOM     12  C   UNL     1      47.509   6.540  12.494  0.00  0.00    +0.000 C 
ENDBRANCH   5   7
BRANCH   3  13
ATOM     13  N   UNL     1      44.553   2.693  10.189  0.00  0.00    +0.000 N 
ATOM     14  H   UNL     1      45.375   2.132  10.419  0.00  0.00    +0.000 HD
BRANCH  13  15
ATOM     15  C   UNL     1      44.522   2.998   8.758  0.00  0.00    +0.000 C 
BRANCH  15  16
ATOM     16  C   UNL     1      45.739   2.406   8.077  0.00  0.00    +0.000 A 
ATOM     17  C   UNL     1      46.568   3.219   7.319  0.00  0.00    +0.000 A 
ATOM     18  C   UNL     1      47.663   2.616   6.750  0.00  0.00    +0.000 A 
ATOM     19  N   UNL     1      47.955   1.312   6.903  0.00  0.00    +0.000 NA
ATOM     20  C   UNL     1      47.093   0.610   7.655  0.00  0.00    +0.000 A 
ATOM     21  N   UNL     1      45.991   1.087   8.257  0.00  0.00    +0.000 NA
ENDBRANCH  15  16
ENDBRANCH  13  15
ENDBRANCH   3  13
TORSDOF 4
ENDMDL
MODEL 2
REMARK VINA RESULT:    -7.278      1.483      6.171
REMARK INTER + INTRA:          -9.617
REMARK INTER:                  -8.868
REMARK INTRA:                  -0.749
REMARK UNBOUND:                -0.638
REMARK  Name = 
REMARK  4 active torsions:
REMARK  status: ('A' for Active; 'I' for Inactive)
REMARK    1  A    between atoms: C_3  and  N_4
REMARK    2  A    between atoms: N_4  and  C_5
REMARK    3  A    between atoms: C_5  and  C_6
REMARK    4  A    between atoms: C_13  and  N_14
REMARK                            x       y       z     vdW  Elec       q    Type
REMARK                         _______ _______ _______ _____ _____    ______ ____
ROOT
ATOM      1  C   UNL     1      43.408   3.017  11.457  0.00  0.00    +0.000 A 
ATOM      2  C   UNL     1      43.410   4.390  11.667  0.00  0.00    +0.000 A 
ATOM      3  C   UNL     1      44.168   5.240  10.853  0.00  0.00    +0.000 A 
ATOM      4  C   UNL     1      44.876   4.682   9.777  0.00  0.00    +0.000 A 
ATOM      5  C   UNL     1      44.905   3.296   9.546  0.00  0.00    +0.000 A 
ATOM      6  C   UNL     1      44.154   2.483  10.409  0.00  0.00    +0.000 A 
ENDROOT
BRANCH   5   7
ATOM      7  N   UNL     1      45.597   2.711   8.490  0.00  0.00    +0.000 N 
ATOM      8  C   UNL     1      45.677   1.257   8.338  0.00  0.00    +0.000 C 
ATOM      9  C   UNL     1      47.014   0.920   7.668  0.00  0.00    +0.000 C 
ATOM     10  C   UNL     1      47.215   1.693   6.363  0.00  0.00    +0.000 C 
ATOM     11  C   UNL     1      46.973   3.191   6.550  0.00  0.00    +0.000 C 
ATOM     12  C   UNL     1      45.628   3.453   7.223  0.00  0.00    +0.000 C 
ENDBRANCH   5   7
BRANCH   3  13
ATOM     13  N   UNL     1      44.104   6.613  11.126  0.00  0.00    +0.000 N 
ATOM     14  H   UNL     1      44.575   7.133  10.385  0.00  0.00    +0.000 HD
BRANCH  13  15
ATOM     15  C   UNL     1      44.543   7.081  12.442  0.00  0.00    +0.000 C 
BRANCH  15  16
ATOM     16  C   UNL     1      46.008   6.752  12.645  0.00  0.00    +0.000 A 
ATOM     17  C   UNL     1      46.978   7.492  11.986  0.00  0.00    +0.000 A 
ATOM     18  C   UNL     1      48.285   7.150  12.237  0.00  0.00    +0.000 A 
ATOM     19  N   UNL     1      48.645   6.164  13.077  0.00  0.00    +0.000 NA
ATOM     20  C   UNL     1      47.634   5.508  13.668  0.00  0.00    +0.000 A 
ATOM     21  N   UNL     1      46.323   5.749  13.499  0.00  0.00    +0.000 NA
ENDBRANCH  15  16
ENDBRANCH  13  15
ENDBRANCH   3  13
TORSDOF 4
ENDMDL
MODEL 3
REMARK VINA RESULT:    -7.193      3.368      6.796
REMARK INTER + INTRA:          -9.512
REMARK INTER:                  -9.008
REMARK INTRA:                  -0.504
REMARK UNBOUND:                -0.638
REMARK  Name = 
REMARK  4 active torsions:
REMARK  status: ('A' for Active; 'I' for Inactive)
REMARK    1  A    between atoms: C_3  and  N_4
REMARK    2  A    between atoms: N_4  and  C_5
REMARK    3  A    between atoms: C_5  and  C_6
REMARK    4  A    between atoms: C_13  and  N_14
REMARK                            x       y       z     vdW  Elec       q    Type
REMARK                         _______ _______ _______ _____ _____    ______ ____
ROOT
ATOM      1  C   UNL     1      42.831   5.126  11.915  0.00  0.00    +0.000 A 
ATOM      2  C   UNL     1      43.604   5.170  13.068  0.00  0.00    +0.000 A 
ATOM      3  C   UNL     1      44.885   4.607  13.096  0.00  0.00    +0.000 A 
ATOM      4  C   UNL     1      45.400   4.053  11.913  0.00  0.00    +0.000 A 
ATOM      5  C   UNL     1      44.639   3.981  10.733  0.00  0.00    +0.000 A 
ATOM      6  C   UNL     1      43.347   4.532  10.766  0.00  0.00    +0.000 A 
ENDROOT
BRANCH   5   7
ATOM      7  N   UNL     1      45.117   3.438   9.546  0.00  0.00    +0.000 N 
ATOM      8  C   UNL     1      44.817   2.059   9.157  0.00  0.00    +0.000 C 
ATOM      9  C   UNL     1      45.997   1.527   8.336  0.00  0.00    +0.000 C 
ATOM     10  C   UNL     1      46.340   2.444   7.160  0.00  0.00    +0.000 C 
ATOM     11  C   UNL     1      46.496   3.898   7.602  0.00  0.00    +0.000 C 
ATOM     12  C   UNL     1      45.289   4.360   8.415  0.00  0.00    +0.000 C 
ENDBRANCH   5   7
BRANCH   3  13
ATOM     13  N   UNL     1      45.603   4.705  14.296  0.00  0.00    +0.000 N 
ATOM     14  H   UNL     1      45.372   5.583  14.763  0.00  0.00    +0.000 HD
BRANCH  13  15
ATOM     15  C   UNL     1      47.052   4.508  14.258  0.00  0.00    +0.000 C 
BRANCH  15  16
ATOM     16  C   UNL     1      47.535   3.973  15.591  0.00  0.00    +0.000 A 
ATOM     17  C   UNL     1      47.199   4.636  16.762  0.00  0.00    +0.000 A 
ATOM     18  C   UNL     1      47.656   4.080  17.933  0.00  0.00    +0.000 A 
ATOM     19  N   UNL     1      48.383   2.951  17.983  0.00  0.00    +0.000 NA
ATOM     20  C   UNL     1      48.655   2.383  16.797  0.00  0.00    +0.000 A 
ATOM     21  N   UNL     1      48.268   2.834  15.592  0.00  0.00    +0.000 NA
ENDBRANCH  15  16
ENDBRANCH  13  15
ENDBRANCH   3  13
TORSDOF 4
ENDMDL
MODEL 4
REMARK VINA RESULT:    -7.086      1.244      1.558
REMARK INTER + INTRA:          -9.380
REMARK INTER:                  -8.759
REMARK INTRA:                  -0.621
REMARK UNBOUND:                -0.638
REMARK  Name = 
REMARK  4 active torsions:
REMARK  status: ('A' for Active; 'I' for Inactive)
REMARK    1  A    between atoms: C_3  and  N_4
REMARK    2  A    between atoms: N_4  and  C_5
REMARK    3  A    between atoms: C_5  and  C_6
REMARK    4  A    between atoms: C_13  and  N_14
REMARK                            x       y       z     vdW  Elec       q    Type
REMARK                         _______ _______ _______ _____ _____    ______ ____
ROOT
ATOM      1  C   UNL     1      45.572   4.231  13.165  0.00  0.00    +0.000 A 
ATOM      2  C   UNL     1      45.204   3.474  12.062  0.00  0.00    +0.000 A 
ATOM      3  C   UNL     1      44.801   4.090  10.870  0.00  0.00    +0.000 A 
ATOM      4  C   UNL     1      44.841   5.491  10.793  0.00  0.00    +0.000 A 
ATOM      5  C   UNL     1      45.197   6.286  11.896  0.00  0.00    +0.000 A 
ATOM      6  C   UNL     1      45.562   5.622  13.078  0.00  0.00    +0.000 A 
ENDROOT
BRANCH   5   7
ATOM      7  N   UNL     1      45.246   7.676  11.854  0.00  0.00    +0.000 N 
ATOM      8  C   UNL     1      44.101   8.470  11.403  0.00  0.00    +0.000 C 
ATOM      9  C   UNL     1      44.636   9.747  10.746  0.00  0.00    +0.000 C 
ATOM     10  C   UNL     1      45.597  10.507  11.662  0.00  0.00    +0.000 C 
ATOM     11  C   UNL     1      46.686   9.593  12.222  0.00  0.00    +0.000 C 
ATOM     12  C   UNL     1      46.084   8.343  12.858  0.00  0.00    +0.000 C 
ENDBRANCH   5   7
BRANCH   3  13
ATOM     13  N   UNL     1      44.456   3.252   9.801  0.00  0.00    +0.000 N 
ATOM     14  H   UNL     1      44.830   2.316   9.964  0.00  0.00    +0.000 HD
BRANCH  13  15
ATOM     15  C   UNL     1      44.760   3.699   8.441  0.00  0.00    +0.000 C 
BRANCH  15  16
ATOM     16  C   UNL     1      45.849   2.831   7.843  0.00  0.00    +0.000 A 
ATOM     17  C   UNL     1      46.768   3.385   6.966  0.00  0.00    +0.000 A 
ATOM     18  C   UNL     1      47.738   2.541   6.481  0.00  0.00    +0.000 A 
ATOM     19  N   UNL     1      47.830   1.244   6.823  0.00  0.00    +0.000 NA
ATOM     20  C   UNL     1      46.896   0.802   7.679  0.00  0.00    +0.000 A 
ATOM     21  N   UNL     1      45.901   1.529   8.215  0.00  0.00    +0.000 NA
ENDBRANCH  15  16
ENDBRANCH  13  15
ENDBRANCH   3  13
TORSDOF 4
ENDMDL
MODEL 5
REMARK VINA RESULT:    -6.836      1.439      2.108
REMARK INTER + INTRA:          -9.073
REMARK INTER:                  -8.337
REMARK INTRA:                  -0.736
REMARK UNBOUND:                -0.638
REMARK  Name = 
REMARK  4 active torsions:
REMARK  status: ('A' for Active; 'I' for Inactive)
REMARK    1  A    between atoms: C_3  and  N_4
REMARK    2  A    between atoms: N_4  and  C_5
REMARK    3  A    between atoms: C_5  and  C_6
REMARK    4  A    between atoms: C_13  and  N_14
REMARK                            x       y       z     vdW  Elec       q    Type
REMARK                         _______ _______ _______ _____ _____    ______ ____
ROOT
ATOM      1  C   UNL     1      46.800   4.365  13.792  0.00  0.00    +0.000 A 
ATOM      2  C   UNL     1      45.852   3.795  12.953  0.00  0.00    +0.000 A 
ATOM      3  C   UNL     1      45.233   4.551  11.950  0.00  0.00    +0.000 A 
ATOM      4  C   UNL     1      45.639   5.882  11.767  0.00  0.00    +0.000 A 
ATOM      5  C   UNL     1      46.586   6.492  12.608  0.00  0.00    +0.000 A 
ATOM      6  C   UNL     1      47.154   5.701  13.619  0.00  0.00    +0.000 A 
ENDROOT
BRANCH   5   7
ATOM      7  N   UNL     1      47.009   7.808  12.454  0.00  0.00    +0.000 N 
ATOM      8  C   UNL     1      46.179   8.935  12.883  0.00  0.00    +0.000 C 
ATOM      9  C   UNL     1      46.473  10.123  11.959  0.00  0.00    +0.000 C 
ATOM     10  C   UNL     1      47.968  10.443  11.891  0.00  0.00    +0.000 C 
ATOM     11  C   UNL     1      48.800   9.197  11.587  0.00  0.00    +0.000 C 
ATOM     12  C   UNL     1      48.454   8.056  12.541  0.00  0.00    +0.000 C 
ENDBRANCH   5   7
BRANCH   3  13
ATOM     13  N   UNL     1      44.296   3.895  11.140  0.00  0.00    +0.000 N 
ATOM     14  H   UNL     1      44.448   2.886  11.187  0.00  0.00    +0.000 HD
BRANCH  13  15
ATOM     15  C   UNL     1      44.153   4.330   9.751  0.00  0.00    +0.000 C 
BRANCH  15  16
ATOM     16  C   UNL     1      45.142   3.590   8.872  0.00  0.00    +0.000 A 
ATOM     17  C   UNL     1      45.304   2.221   9.019  0.00  0.00    +0.000 A 
ATOM     18  C   UNL     1      46.202   1.617   8.174  0.00  0.00    +0.000 A 
ATOM     19  N   UNL     1      46.899   2.281   7.235  0.00  0.00    +0.000 NA
ATOM     20  C   UNL     1      46.672   3.602   7.171  0.00  0.00    +0.000 A 
ATOM     21  N   UNL     1      45.824   4.302   7.943  0.00  0.00    +0.000 NA
ENDBRANCH  15  16
ENDBRANCH  13  15
ENDBRANCH   3  13
TORSDOF 4
ENDMDL
MODEL 6
REMARK VINA RESULT:    -6.824      3.091      4.158
REMARK INTER + INTRA:          -9.057
REMARK INTER:                  -8.452
REMARK INTRA:                  -0.605
REMARK UNBOUND:                -0.638
REMARK  Name = 
REMARK  4 active torsions:
REMARK  status: ('A' for Active; 'I' for Inactive)
REMARK    1  A    between atoms: C_3  and  N_4
REMARK    2  A    between atoms: N_4  and  C_5
REMARK    3  A    between atoms: C_5  and  C_6
REMARK    4  A    between atoms: C_13  and  N_14
REMARK                            x       y       z     vdW  Elec       q    Type
REMARK                         _______ _______ _______ _____ _____    ______ ____
ROOT
ATOM      1  C   UNL     1      47.176   6.742  12.424  0.00  0.00    +0.000 A 
ATOM      2  C   UNL     1      46.181   6.048  11.748  0.00  0.00    +0.000 A 
ATOM      3  C   UNL     1      45.621   4.885  12.292  0.00  0.00    +0.000 A 
ATOM      4  C   UNL     1      46.040   4.471  13.566  0.00  0.00    +0.000 A 
ATOM      5  C   UNL     1      47.053   5.144  14.270  0.00  0.00    +0.000 A 
ATOM      6  C   UNL     1      47.605   6.287  13.669  0.00  0.00    +0.000 A 
ENDROOT
BRANCH   5   7
ATOM      7  N   UNL     1      47.492   4.761  15.533  0.00  0.00    +0.000 N 
ATOM      8  C   UNL     1      47.590   3.351  15.915  0.00  0.00    +0.000 C 
ATOM      9  C   UNL     1      47.329   3.245  17.421  0.00  0.00    +0.000 C 
ATOM     10  C   UNL     1      48.238   4.173  18.230  0.00  0.00    +0.000 C 
ATOM     11  C   UNL     1      48.209   5.603  17.693  0.00  0.00    +0.000 C 
ATOM     12  C   UNL     1      48.474   5.634  16.190  0.00  0.00    +0.000 C 
ENDBRANCH   5   7
BRANCH   3  13
ATOM     13  N   UNL     1      44.614   4.252  11.550  0.00  0.00    +0.000 N 
ATOM     14  H   UNL     1      44.753   3.241  11.576  0.00  0.00    +0.000 HD
BRANCH  13  15
ATOM     15  C   UNL     1      44.372   4.704  10.180  0.00  0.00    +0.000 C 
BRANCH  15  16
ATOM     16  C   UNL     1      45.148   3.840   9.205  0.00  0.00    +0.000 A 
ATOM     17  C   UNL     1      45.158   2.463   9.363  0.00  0.00    +0.000 A 
ATOM     18  C   UNL     1      45.865   1.745   8.429  0.00  0.00    +0.000 A 
ATOM     19  N   UNL     1      46.518   2.310   7.398  0.00  0.00    +0.000 NA
ATOM     20  C   UNL     1      46.447   3.649   7.331  0.00  0.00    +0.000 A 
ATOM     21  N   UNL     1      45.792   4.454   8.184  0.00  0.00    +0.000 NA
ENDBRANCH  15  16
ENDBRANCH  13  15
ENDBRANCH   3  13
TORSDOF 4
ENDMDL
MODEL 7
REMARK VINA RESULT:    -6.745      1.602      2.076
REMARK INTER + INTRA:          -8.960
REMARK INTER:                  -8.244
REMARK INTRA:                  -0.716
REMARK UNBOUND:                -0.638
REMARK  Name = 
REMARK  4 active torsions:
REMARK  status: ('A' for Active; 'I' for Inactive)
REMARK    1  A    between atoms: C_3  and  N_4
REMARK    2  A    between atoms: N_4  and  C_5
REMARK    3  A    between atoms: C_5  and  C_6
REMARK    4  A    between atoms: C_13  and  N_14
REMARK                            x       y       z     vdW  Elec       q    Type
REMARK                         _______ _______ _______ _____ _____    ______ ____
ROOT
ATOM      1  C   UNL     1      45.552   4.517  13.310  0.00  0.00    +0.000 A 
ATOM      2  C   UNL     1      44.943   4.458  12.063  0.00  0.00    +0.000 A 
ATOM      3  C   UNL     1      45.356   5.298  11.022  0.00  0.00    +0.000 A 
ATOM      4  C   UNL     1      46.444   6.157  11.244  0.00  0.00    +0.000 A 
ATOM      5  C   UNL     1      47.073   6.250  12.498  0.00  0.00    +0.000 A 
ATOM      6  C   UNL     1      46.602   5.408  13.519  0.00  0.00    +0.000 A 
ENDROOT
BRANCH   5   7
ATOM      7  N   UNL     1      48.152   7.090  12.752  0.00  0.00    +0.000 N 
ATOM      8  C   UNL     1      48.548   8.136  11.808  0.00  0.00    +0.000 C 
ATOM      9  C   UNL     1      50.064   8.332  11.920  0.00  0.00    +0.000 C 
ATOM     10  C   UNL     1      50.505   8.596  13.361  0.00  0.00    +0.000 C 
ATOM     11  C   UNL     1      49.940   7.554  14.326  0.00  0.00    +0.000 C 
ATOM     12  C   UNL     1      48.429   7.410  14.159  0.00  0.00    +0.000 C 
ENDBRANCH   5   7
BRANCH   3  13
ATOM     13  N   UNL     1      44.695   5.167   9.793  0.00  0.00    +0.000 N 
ATOM     14  H   UNL     1      43.933   5.843   9.738  0.00  0.00    +0.000 HD
BRANCH  13  15
ATOM     15  C   UNL     1      44.235   3.838   9.390  0.00  0.00    +0.000 C 
BRANCH  15  16
ATOM     16  C   UNL     1      45.304   3.148   8.567  0.00  0.00    +0.000 A 
ATOM     17  C   UNL     1      46.080   3.887   7.687  0.00  0.00    +0.000 A 
ATOM     18  C   UNL     1      47.043   3.196   6.991  0.00  0.00    +0.000 A 
ATOM     19  N   UNL     1      47.259   1.877   7.135  0.00  0.00    +0.000 NA
ATOM     20  C   UNL     1      46.458   1.251   8.012  0.00  0.00    +0.000 A 
ATOM     21  N   UNL     1      45.484   1.817   8.744  0.00  0.00    +0.000 NA
ENDBRANCH  15  16
ENDBRANCH  13  15
ENDBRANCH   3  13
TORSDOF 4
ENDMDL
MODEL 8
REMARK VINA RESULT:    -6.193      4.432      7.269
REMARK INTER + INTRA:          -8.279
REMARK INTER:                  -7.685
REMARK INTRA:                  -0.594
REMARK UNBOUND:                -0.638
REMARK  Name = 
REMARK  4 active torsions:
REMARK  status: ('A' for Active; 'I' for Inactive)
REMARK    1  A    between atoms: C_3  and  N_4
REMARK    2  A    between atoms: N_4  and  C_5
REMARK    3  A    between atoms: C_5  and  C_6
REMARK    4  A    between atoms: C_13  and  N_14
REMARK                            x       y       z     vdW  Elec       q    Type
REMARK                         _______ _______ _______ _____ _____    ______ ____
ROOT
ATOM      1  C   UNL     1      47.508   6.674  13.622  0.00  0.00    +0.000 A 
ATOM      2  C   UNL     1      47.601   5.807  14.703  0.00  0.00    +0.000 A 
ATOM      3  C   UNL     1      46.980   4.553  14.673  0.00  0.00    +0.000 A 
ATOM      4  C   UNL     1      46.315   4.161  13.500  0.00  0.00    +0.000 A 
ATOM      5  C   UNL     1      46.192   5.020  12.394  0.00  0.00    +0.000 A 
ATOM      6  C   UNL     1      46.806   6.280  12.485  0.00  0.00    +0.000 A 
ENDROOT
BRANCH   5   7
ATOM      7  N   UNL     1      45.539   4.664  11.218  0.00  0.00    +0.000 N 
ATOM      8  C   UNL     1      44.292   3.899  11.235  0.00  0.00    +0.000 C 
ATOM      9  C   UNL     1      44.242   3.039   9.968  0.00  0.00    +0.000 C 
ATOM     10  C   UNL     1      44.443   3.870   8.699  0.00  0.00    +0.000 C 
ATOM     11  C   UNL     1      45.681   4.762   8.798  0.00  0.00    +0.000 C 
ATOM     12  C   UNL     1      45.666   5.587  10.082  0.00  0.00    +0.000 C 
ENDBRANCH   5   7
BRANCH   3  13
ATOM     13  N   UNL     1      47.133   3.735  15.801  0.00  0.00    +0.000 N 
ATOM     14  H   UNL     1      46.242   3.292  16.027  0.00  0.00    +0.000 HD
BRANCH  13  15
ATOM     15  C   UNL     1      47.741   4.312  17.000  0.00  0.00    +0.000 C 
BRANCH  15  16
ATOM     16  C   UNL     1      49.111   3.706  17.228  0.00  0.00    +0.000 A 
ATOM     17  C   UNL     1      50.082   4.430  17.903  0.00  0.00    +0.000 A 
ATOM     18  C   UNL     1      51.292   3.806  18.091  0.00  0.00    +0.000 A 
ATOM     19  N   UNL     1      51.556   2.559  17.667  0.00  0.00    +0.000 NA
ATOM     20  C   UNL     1      50.552   1.940  17.026  0.00  0.00    +0.000 A 
ATOM     21  N   UNL     1      49.332   2.447  16.781  0.00  0.00    +0.000 NA
ENDBRANCH  15  16
ENDBRANCH  13  15
ENDBRANCH   3  13
TORSDOF 4
ENDMDL
MODEL 9
REMARK VINA RESULT:    -5.827      5.272      6.834
REMARK INTER + INTRA:          -7.828
REMARK INTER:                  -7.278
REMARK INTRA:                  -0.550
REMARK UNBOUND:                -0.638
REMARK  Name = 
REMARK  4 active torsions:
REMARK  status: ('A' for Active; 'I' for Inactive)
REMARK    1  A    between atoms: C_3  and  N_4
REMARK    2  A    between atoms: N_4  and  C_5
REMARK    3  A    between atoms: C_5  and  C_6
REMARK    4  A    between atoms: C_13  and  N_14
REMARK                            x       y       z     vdW  Elec       q    Type
REMARK                         _______ _______ _______ _____ _____    ______ ____
ROOT
ATOM      1  C   UNL     1      48.870   2.542  17.521  0.00  0.00    +0.000 A 
ATOM      2  C   UNL     1      48.274   2.585  16.268  0.00  0.00    +0.000 A 
ATOM      3  C   UNL     1      47.523   3.697  15.868  0.00  0.00    +0.000 A 
ATOM      4  C   UNL     1      47.440   4.797  16.736  0.00  0.00    +0.000 A 
ATOM      5  C   UNL     1      48.021   4.780  18.016  0.00  0.00    +0.000 A 
ATOM      6  C   UNL     1      48.737   3.629  18.382  0.00  0.00    +0.000 A 
ENDROOT
BRANCH   5   7
ATOM      7  N   UNL     1      47.957   5.852  18.900  0.00  0.00    +0.000 N 
ATOM      8  C   UNL     1      48.266   5.693  20.322  0.00  0.00    +0.000 C 
ATOM      9  C   UNL     1      47.419   6.697  21.110  0.00  0.00    +0.000 C 
ATOM     10  C   UNL     1      47.592   8.127  20.593  0.00  0.00    +0.000 C 
ATOM     11  C   UNL     1      47.404   8.208  19.079  0.00  0.00    +0.000 C 
ATOM     12  C   UNL     1      48.273   7.180  18.359  0.00  0.00    +0.000 C 
ENDBRANCH   5   7
BRANCH   3  13
ATOM     13  N   UNL     1      46.965   3.664  14.583  0.00  0.00    +0.000 N 
ATOM     14  H   UNL     1      47.640   3.274  13.925  0.00  0.00    +0.000 HD
BRANCH  13  15
ATOM     15  C   UNL     1      46.376   4.892  14.049  0.00  0.00    +0.000 C 
BRANCH  15  16
ATOM     16  C   UNL     1      45.160   4.560  13.208  0.00  0.00    +0.000 A 
ATOM     17  C   UNL     1      44.217   5.540  12.942  0.00  0.00    +0.000 A 
ATOM     18  C   UNL     1      43.154   5.170  12.154  0.00  0.00    +0.000 A 
ATOM     19  N   UNL     1      43.005   3.936  11.642  0.00  0.00    +0.000 NA
ATOM     20  C   UNL     1      43.971   3.058  11.956  0.00  0.00    +0.000 A 
ATOM     21  N   UNL     1      45.051   3.302  12.716  0.00  0.00    +0.000 NA
ENDBRANCH  15  16
ENDBRANCH  13  15
ENDBRANCH   3  13
TORSDOF 4
ENDMDL
