MODEL 1
REMARK VINA RESULT:    -8.962      0.000      0.000
REMARK INTER + INTRA:         -11.786
REMARK INTER:                 -11.058
REMARK INTRA:                  -0.728
REMARK UNBOUND:                -0.728
REMARK  Name = 
REMARK  5 active torsions:
REMARK  status: ('A' for Active; 'I' for Inactive)
REMARK    1  A    between atoms: C_1  and  C_2
REMARK    2  A    between atoms: C_12  and  C_13
REMARK    3  A    between atoms: C_13  and  N_14
REMARK    4  A    between atoms: N_14  and  C_15
REMARK    5  A    between atoms: C_18  and  C_19
REMARK                            x       y       z     vdW  Elec       q    Type
REMARK                         _______ _______ _______ _____ _____    ______ ____
ROOT
ATOM      1  C   UNL     1      43.758   4.972  11.283  0.00  0.00    +0.000 C 
ATOM      2  C   UNL     1      43.176   6.365  11.089  0.00  0.00    +0.000 C 
ATOM      3  C   UNL     1      42.455   5.395  11.960  0.00  0.00    +0.000 C 
ENDROOT
BRANCH   1  15
ATOM      4  C   UNL     1      49.793   7.647  14.133  0.00  0.00    +0.000 C 
ATOM      5  C   UNL     1      49.039   7.210  12.878  0.00  0.00    +0.000 C 
ATOM      6  C   UNL     1      49.269   8.209  11.718  0.00  0.00    +0.000 C 
ATOM      7  O   UNL     1      48.650   9.480  11.967  0.00  0.00    +0.000 OA
ATOM      8  C   UNL     1      47.227   9.312  12.087  0.00  0.00    +0.000 C 
ATOM      9  C   UNL     1      46.858   8.382  13.247  0.00  0.00    +0.000 C 
ATOM     10  N   UNL     1      47.608   7.119  13.207  0.00  0.00    +0.000 N 
ATOM     11  C   UNL     1      46.913   5.945  13.004  0.00  0.00    +0.000 A 
ATOM     12  C   UNL     1      47.381   4.742  13.524  0.00  0.00    +0.000 A 
ATOM     13  C   UNL     1      46.608   3.592  13.418  0.00  0.00    +0.000 A 
ATOM     14  C   UNL     1      45.405   3.655  12.730  0.00  0.00    +0.000 A 
ATOM     15  C   UNL     1      45.011   4.866  12.159  0.00  0.00    +0.000 A 
ATOM     16  N   UNL     1      45.742   5.997  12.343  0.00  0.00    +0.000 NA
ENDBRANCH   1  15
BRANCH   1  17
ATOM     17  N   UNL     1      43.597   3.856  10.312  0.00  0.00    +0.000 N 
ATOM     18  H   UNL     1      43.151   3.037  10.729  0.00  0.00    +0.000 HD
BRANCH  17  19
ATOM     19  C   UNL     1      44.606   3.482   9.406  0.00  0.00    +0.000 A 
ATOM     20  C   UNL     1      45.006   2.141   9.314  0.00  0.00    +0.000 A 
ATOM     21  C   UNL     1      45.958   1.754   8.366  0.00  0.00    +0.000 A 
ATOM     22  C   UNL     1      46.470   2.728   7.518  0.00  0.00    +0.000 A 
ATOM     23  N   UNL     1      46.085   4.030   7.544  0.00  0.00    +0.000 NA
ATOM     24  C   UNL     1      45.157   4.355   8.468  0.00  0.00    +0.000 A 
BRANCH  22  25
ATOM     25  C   UNL     1      47.510   2.390   6.490  0.00  0.00    +0.000 C 
ATOM     26  N   UNL     1      47.450   3.142   5.349  0.00  0.00    +0.000 N 
ATOM     27  O   UNL     1      48.353   1.517   6.663  0.00  0.00    +0.000 OA
ATOM     28  H   UNL     1      46.729   3.845   5.258  0.00  0.00    +0.000 HD
ATOM     29  H   UNL     1      48.111   2.978   4.604  0.00  0.00    +0.000 HD
ENDBRANCH  22  25
ENDBRANCH  17  19
ENDBRANCH   1  17
TORSDOF 4
ENDMDL
MODEL 2
REMARK VINA RESULT:    -7.468      1.205      2.487
REMARK INTER + INTRA:          -9.943
REMARK INTER:                  -9.983
REMARK INTRA:                   0.040
REMARK UNBOUND:                -0.728
REMARK  Name = 
REMARK  5 active torsions:
REMARK  status: ('A' for Active; 'I' for Inactive)
REMARK    1  A    between atoms: C_1  and  C_2
REMARK    2  A    between atoms: C_12  and  C_13
REMARK    3  A    between atoms: C_13  and  N_14
REMARK    4  A    between atoms: N_14  and  C_15
REMARK    5  A    between atoms: C_18  and  C_19
REMARK                            x       y       z     vdW  Elec       q    Type
REMARK                         _______ _______ _______ _____ _____    ______ ____
ROOT
ATOM      1  C   UNL     1      44.101   4.526  11.655  0.00  0.00    +0.000 C 
ATOM      2  C   UNL     1      43.686   4.003  13.024  0.00  0.00    +0.000 C 
ATOM      3  C   UNL     1      45.059   3.713  12.526  0.00  0.00    +0.000 C 
ENDROOT
BRANCH   1  15
ATOM      4  C   UNL     1      48.154  10.401  12.528  0.00  0.00    +0.000 C 
ATOM      5  C   UNL     1      47.384   9.252  13.179  0.00  0.00    +0.000 C 
ATOM      6  C   UNL     1      48.179   8.656  14.365  0.00  0.00    +0.000 C 
ATOM      7  O   UNL     1      49.363   7.968  13.933  0.00  0.00    +0.000 OA
ATOM      8  C   UNL     1      49.001   6.863  13.087  0.00  0.00    +0.000 C 
ATOM      9  C   UNL     1      48.251   7.327  11.835  0.00  0.00    +0.000 C 
ATOM     10  N   UNL     1      47.133   8.225  12.155  0.00  0.00    +0.000 N 
ATOM     11  C   UNL     1      45.849   7.806  11.881  0.00  0.00    +0.000 A 
ATOM     12  C   UNL     1      44.848   8.726  11.583  0.00  0.00    +0.000 A 
ATOM     13  C   UNL     1      43.592   8.282  11.187  0.00  0.00    +0.000 A 
ATOM     14  C   UNL     1      43.341   6.918  11.162  0.00  0.00    +0.000 A 
ATOM     15  C   UNL     1      44.352   6.034  11.542  0.00  0.00    +0.000 A 
ATOM     16  N   UNL     1      45.598   6.484  11.847  0.00  0.00    +0.000 NA
ENDBRANCH   1  15
BRANCH   1  17
ATOM     17  N   UNL     1      43.753   3.867  10.367  0.00  0.00    +0.000 N 
ATOM     18  H   UNL     1      43.031   3.151  10.477  0.00  0.00    +0.000 HD
BRANCH  17  19
ATOM     19  C   UNL     1      44.721   3.475   9.425  0.00  0.00    +0.000 A 
ATOM     20  C   UNL     1      45.059   2.121   9.287  0.00  0.00    +0.000 A 
ATOM     21  C   UNL     1      45.968   1.720   8.303  0.00  0.00    +0.000 A 
ATOM     22  C   UNL     1      46.500   2.695   7.468  0.00  0.00    +0.000 A 
ATOM     23  N   UNL     1      46.174   4.011   7.540  0.00  0.00    +0.000 NA
ATOM     24  C   UNL     1      45.285   4.350   8.497  0.00  0.00    +0.000 A 
BRANCH  22  25
ATOM     25  C   UNL     1      47.497   2.341   6.404  0.00  0.00    +0.000 C 
ATOM     26  N   UNL     1      47.490   3.170   5.316  0.00  0.00    +0.000 N 
ATOM     27  O   UNL     1      48.267   1.391   6.505  0.00  0.00    +0.000 OA
ATOM     28  H   UNL     1      46.829   3.935   5.283  0.00  0.00    +0.000 HD
ATOM     29  H   UNL     1      48.127   3.002   4.551  0.00  0.00    +0.000 HD
ENDBRANCH  22  25
ENDBRANCH  17  19
ENDBRANCH   1  17
TORSDOF 4
ENDMDL
MODEL 3
REMARK VINA RESULT:    -7.421      2.321      3.185
REMARK INTER + INTRA:          -9.885
REMARK INTER:                 -10.107
REMARK INTRA:                   0.222
REMARK UNBOUND:                -0.728
REMARK  Name = 
REMARK  5 active torsions:
REMARK  status: ('A' for Active; 'I' for Inactive)
REMARK    1  A    between atoms: C_1  and  C_2
REMARK    2  A    between atoms: C_12  and  C_13
REMARK    3  A    between atoms: C_13  and  N_14
REMARK    4  A    between atoms: N_14  and  C_15
REMARK    5  A    between atoms: C_18  and  C_19
REMARK                            x       y       z     vdW  Elec       q    Type
REMARK                         _______ _______ _______ _____ _____    ______ ____
ROOT
ATOM      1  C   UNL     1      44.237   4.823  11.909  0.00  0.00    +0.000 C 
ATOM      2  C   UNL     1      43.125   4.930  12.943  0.00  0.00    +0.000 C 
ATOM      3  C   UNL     1      43.771   3.608  12.711  0.00  0.00    +0.000 C 
ENDROOT
BRANCH   1  15
ATOM      4  C   UNL     1      49.771   5.831  16.388  0.00  0.00    +0.000 C 
ATOM      5  C   UNL     1      48.280   6.021  16.111  0.00  0.00    +0.000 C 
ATOM      6  C   UNL     1      47.442   5.735  17.380  0.00  0.00    +0.000 C 
ATOM      7  O   UNL     1      47.466   4.347  17.746  0.00  0.00    +0.000 OA
ATOM      8  C   UNL     1      46.893   3.557  16.690  0.00  0.00    +0.000 C 
ATOM      9  C   UNL     1      47.673   3.705  15.380  0.00  0.00    +0.000 C 
ATOM     10  N   UNL     1      47.893   5.113  15.020  0.00  0.00    +0.000 N 
ATOM     11  C   UNL     1      47.302   5.602  13.875  0.00  0.00    +0.000 A 
ATOM     12  C   UNL     1      47.889   6.641  13.159  0.00  0.00    +0.000 A 
ATOM     13  C   UNL     1      47.348   7.038  11.942  0.00  0.00    +0.000 A 
ATOM     14  C   UNL     1      46.184   6.430  11.496  0.00  0.00    +0.000 A 
ATOM     15  C   UNL     1      45.588   5.444  12.284  0.00  0.00    +0.000 A 
ATOM     16  N   UNL     1      46.176   5.013  13.430  0.00  0.00    +0.000 NA
ENDBRANCH   1  15
BRANCH   1  17
ATOM     17  N   UNL     1      44.008   4.701  10.444  0.00  0.00    +0.000 N 
ATOM     18  H   UNL     1      43.028   4.520  10.216  0.00  0.00    +0.000 HD
BRANCH  17  19
ATOM     19  C   UNL     1      44.871   3.986   9.594  0.00  0.00    +0.000 A 
ATOM     20  C   UNL     1      44.885   2.584   9.626  0.00  0.00    +0.000 A 
ATOM     21  C   UNL     1      45.689   1.868   8.734  0.00  0.00    +0.000 A 
ATOM     22  C   UNL     1      46.446   2.585   7.815  0.00  0.00    +0.000 A 
ATOM     23  N   UNL     1      46.434   3.940   7.721  0.00  0.00    +0.000 NA
ATOM     24  C   UNL     1      45.636   4.588   8.595  0.00  0.00    +0.000 A 
BRANCH  22  25
ATOM     25  C   UNL     1      47.348   1.885   6.841  0.00  0.00    +0.000 C 
ATOM     26  N   UNL     1      48.411   2.630   6.411  0.00  0.00    +0.000 N 
ATOM     27  O   UNL     1      47.154   0.733   6.469  0.00  0.00    +0.000 OA
ATOM     28  H   UNL     1      48.518   3.578   6.746  0.00  0.00    +0.000 HD
ATOM     29  H   UNL     1      49.066   2.237   5.751  0.00  0.00    +0.000 HD
ENDBRANCH  22  25
ENDBRANCH  17  19
ENDBRANCH   1  17
TORSDOF 4
ENDMDL
MODEL 4
REMARK VINA RESULT:    -6.764      3.473      5.850
REMARK INTER + INTRA:          -9.073
REMARK INTER:                  -8.737
REMARK INTRA:                  -0.336
REMARK UNBOUND:                -0.728
REMARK  Name = 
REMARK  5 active torsions:
REMARK  status: ('A' for Active; 'I' for Inactive)
REMARK    1  A    between atoms: C_1  and  C_2
REMARK    2  A    between atoms: C_12  and  C_13
REMARK    3  A    between atoms: C_13  and  N_14
REMARK    4  A    between atoms: N_14  and  C_15
REMARK    5  A    between atoms: C_18  and  C_19
REMARK                            x       y       z     vdW  Elec       q    Type
REMARK                         _______ _______ _______ _____ _____    ______ ____
ROOT
ATOM      1  C   UNL     1      48.131   7.563  13.036  0.00  0.00    +0.000 C 
ATOM      2  C   UNL     1      48.560   7.579  11.575  0.00  0.00    +0.000 C 
ATOM      3  C   UNL     1      48.172   8.860  12.228  0.00  0.00    +0.000 C 
ENDROOT
BRANCH   1  15
ATOM      4  C   UNL     1      50.562   5.060  19.323  0.00  0.00    +0.000 C 
ATOM      5  C   UNL     1      49.641   6.033  18.587  0.00  0.00    +0.000 C 
ATOM      6  C   UNL     1      48.255   6.108  19.272  0.00  0.00    +0.000 C 
ATOM      7  O   UNL     1      47.513   4.887  19.133  0.00  0.00    +0.000 OA
ATOM      8  C   UNL     1      47.267   4.625  17.741  0.00  0.00    +0.000 C 
ATOM      9  C   UNL     1      48.571   4.469  16.951  0.00  0.00    +0.000 C 
ATOM     10  N   UNL     1      49.505   5.577  17.194  0.00  0.00    +0.000 N 
ATOM     11  C   UNL     1      49.824   6.414  16.147  0.00  0.00    +0.000 A 
ATOM     12  C   UNL     1      51.059   7.053  16.097  0.00  0.00    +0.000 A 
ATOM     13  C   UNL     1      51.413   7.793  14.975  0.00  0.00    +0.000 A 
ATOM     14  C   UNL     1      50.491   7.936  13.948  0.00  0.00    +0.000 A 
ATOM     15  C   UNL     1      49.236   7.340  14.075  0.00  0.00    +0.000 A 
ATOM     16  N   UNL     1      48.938   6.553  15.143  0.00  0.00    +0.000 NA
ENDBRANCH   1  15
BRANCH   1  17
ATOM     17  N   UNL     1      46.769   7.187  13.503  0.00  0.00    +0.000 N 
ATOM     18  H   UNL     1      46.693   7.182  14.522  0.00  0.00    +0.000 HD
BRANCH  17  19
ATOM     19  C   UNL     1      46.031   6.136  12.930  0.00  0.00    +0.000 A 
ATOM     20  C   UNL     1      45.321   6.344  11.739  0.00  0.00    +0.000 A 
ATOM     21  C   UNL     1      44.644   5.284  11.129  0.00  0.00    +0.000 A 
ATOM     22  C   UNL     1      44.717   4.031  11.725  0.00  0.00    +0.000 A 
ATOM     23  N   UNL     1      45.424   3.774  12.856  0.00  0.00    +0.000 NA
ATOM     24  C   UNL     1      46.069   4.825  13.404  0.00  0.00    +0.000 A 
BRANCH  22  25
ATOM     25  C   UNL     1      44.000   2.851  11.139  0.00  0.00    +0.000 C 
ATOM     26  N   UNL     1      44.579   2.332  10.014  0.00  0.00    +0.000 N 
ATOM     27  O   UNL     1      42.981   2.381  11.634  0.00  0.00    +0.000 OA
ATOM     28  H   UNL     1      45.416   2.764   9.645  0.00  0.00    +0.000 HD
ATOM     29  H   UNL     1      44.159   1.539   9.552  0.00  0.00    +0.000 HD
ENDBRANCH  22  25
ENDBRANCH  17  19
ENDBRANCH   1  17
TORSDOF 4
ENDMDL
MODEL 5
REMARK VINA RESULT:    -6.727      2.001      2.822
REMARK INTER + INTRA:          -9.027
REMARK INTER:                  -8.974
REMARK INTRA:                  -0.054
REMARK UNBOUND:                -0.728
REMARK  Name = 
REMARK  5 active torsions:
REMARK  status: ('A' for Active; 'I' for Inactive)
REMARK    1  A    between atoms: C_1  and  C_2
REMARK    2  A    between atoms: C_12  and  C_13
REMARK    3  A    between atoms: C_13  and  N_14
REMARK    4  A    between atoms: N_14  and  C_15
REMARK    5  A    between atoms: C_18  and  C_19
REMARK                            x       y       z     vdW  Elec       q    Type
REMARK                         _______ _______ _______ _____ _____    ______ ____
ROOT
ATOM      1  C   UNL     1      44.113   4.692  11.685  0.00  0.00    +0.000 C 
ATOM      2  C   UNL     1      43.099   4.394  12.781  0.00  0.00    +0.000 C 
ATOM      3  C   UNL     1      44.172   3.400  12.500  0.00  0.00    +0.000 C 
ENDROOT
BRANCH   1  15
ATOM      4  C   UNL     1      46.373  11.516  11.859  0.00  0.00    +0.000 C 
ATOM      5  C   UNL     1      45.945  10.316  11.015  0.00  0.00    +0.000 C 
ATOM      6  C   UNL     1      45.028  10.760   9.849  0.00  0.00    +0.000 C 
ATOM      7  O   UNL     1      43.751  11.226  10.310  0.00  0.00    +0.000 OA
ATOM      8  C   UNL     1      43.063  10.162  10.989  0.00  0.00    +0.000 C 
ATOM      9  C   UNL     1      43.844   9.666  12.210  0.00  0.00    +0.000 C 
ATOM     10  N   UNL     1      45.245   9.361  11.888  0.00  0.00    +0.000 N 
ATOM     11  C   UNL     1      45.678   8.057  11.993  0.00  0.00    +0.000 A 
ATOM     12  C   UNL     1      47.005   7.769  12.297  0.00  0.00    +0.000 A 
ATOM     13  C   UNL     1      47.397   6.455  12.521  0.00  0.00    +0.000 A 
ATOM     14  C   UNL     1      46.461   5.442  12.369  0.00  0.00    +0.000 A 
ATOM     15  C   UNL     1      45.159   5.770  11.989  0.00  0.00    +0.000 A 
ATOM     16  N   UNL     1      44.775   7.067  11.854  0.00  0.00    +0.000 NA
ENDBRANCH   1  15
BRANCH   1  17
ATOM     17  N   UNL     1      43.864   4.477  10.234  0.00  0.00    +0.000 N 
ATOM     18  H   UNL     1      42.924   4.122  10.047  0.00  0.00    +0.000 HD
BRANCH  17  19
ATOM     19  C   UNL     1      44.812   3.889   9.377  0.00  0.00    +0.000 A 
ATOM     20  C   UNL     1      44.963   2.495   9.348  0.00  0.00    +0.000 A 
ATOM     21  C   UNL     1      45.852   1.902   8.447  0.00  0.00    +0.000 A 
ATOM     22  C   UNL     1      46.555   2.731   7.580  0.00  0.00    +0.000 A 
ATOM     23  N   UNL     1      46.413   4.081   7.545  0.00  0.00    +0.000 NA
ATOM     24  C   UNL     1      45.536   4.607   8.426  0.00  0.00    +0.000 A 
BRANCH  22  25
ATOM     25  C   UNL     1      47.542   2.167   6.601  0.00  0.00    +0.000 C 
ATOM     26  N   UNL     1      47.906   3.025   5.599  0.00  0.00    +0.000 N 
ATOM     27  O   UNL     1      47.996   1.032   6.696  0.00  0.00    +0.000 OA
ATOM     28  H   UNL     1      47.495   3.948   5.566  0.00  0.00    +0.000 HD
ATOM     29  H   UNL     1      48.563   2.725   4.895  0.00  0.00    +0.000 HD
ENDBRANCH  22  25
ENDBRANCH  17  19
ENDBRANCH   1  17
TORSDOF 4
ENDMDL
MODEL 6
REMARK VINA RESULT:    -6.200      3.515      5.074
REMARK INTER + INTRA:          -8.378
REMARK INTER:                  -8.226
REMARK INTRA:                  -0.151
REMARK UNBOUND:                -0.728
REMARK  Name = 
REMARK  5 active torsions:
REMARK  status: ('A' for Active; 'I' for Inactive)
REMARK    1  A    between atoms: C_1  and  C_2
REMARK    2  A    between atoms: C_12  and  C_13
REMARK    3  A    between atoms: C_13  and  N_14
REMARK    4  A    between atoms: N_14  and  C_15
REMARK    5  A    between atoms: C_18  and  C_19
REMARK                            x       y       z     vdW  Elec       q    Type
REMARK                         _______ _______ _______ _____ _____    ______ ____
ROOT
ATOM      1  C   UNL     1      47.543   6.256  14.019  0.00  0.00    +0.000 C 
ATOM      2  C   UNL     1      48.691   6.672  13.109  0.00  0.00    +0.000 C 
ATOM      3  C   UNL     1      48.027   7.704  13.954  0.00  0.00    +0.000 C 
ENDROOT
BRANCH   1  15
ATOM      4  C   UNL     1      51.841   4.666  19.561  0.00  0.00    +0.000 C 
ATOM      5  C   UNL     1      51.650   4.719  18.045  0.00  0.00    +0.000 C 
ATOM      6  C   UNL     1      52.924   5.253  17.346  0.00  0.00    +0.000 C 
ATOM      7  O   UNL     1      53.158   6.640  17.630  0.00  0.00    +0.000 OA
ATOM      8  C   UNL     1      52.061   7.428  17.138  0.00  0.00    +0.000 C 
ATOM      9  C   UNL     1      50.736   7.037  17.800  0.00  0.00    +0.000 C 
ATOM     10  N   UNL     1      50.498   5.587  17.754  0.00  0.00    +0.000 N 
ATOM     11  C   UNL     1      49.431   5.116  17.019  0.00  0.00    +0.000 A 
ATOM     12  C   UNL     1      48.788   3.934  17.375  0.00  0.00    +0.000 A 
ATOM     13  C   UNL     1      47.639   3.538  16.701  0.00  0.00    +0.000 A 
ATOM     14  C   UNL     1      47.192   4.303  15.633  0.00  0.00    +0.000 A 
ATOM     15  C   UNL     1      47.912   5.440  15.263  0.00  0.00    +0.000 A 
ATOM     16  N   UNL     1      48.986   5.855  15.986  0.00  0.00    +0.000 NA
ENDBRANCH   1  15
BRANCH   1  17
ATOM     17  N   UNL     1      46.139   6.070  13.562  0.00  0.00    +0.000 N 
ATOM     18  H   UNL     1      45.489   5.936  14.340  0.00  0.00    +0.000 HD
BRANCH  17  19
ATOM     19  C   UNL     1      45.796   5.260  12.465  0.00  0.00    +0.000 A 
ATOM     20  C   UNL     1      45.346   3.948  12.674  0.00  0.00    +0.000 A 
ATOM     21  C   UNL     1      44.937   3.164  11.592  0.00  0.00    +0.000 A 
ATOM     22  C   UNL     1      44.973   3.729  10.323  0.00  0.00    +0.000 A 
ATOM     23  N   UNL     1      45.363   5.006  10.077  0.00  0.00    +0.000 NA
ATOM     24  C   UNL     1      45.740   5.729  11.153  0.00  0.00    +0.000 A 
BRANCH  22  25
ATOM     25  C   UNL     1      44.568   2.941   9.112  0.00  0.00    +0.000 C 
ATOM     26  N   UNL     1      44.229   3.698   8.025  0.00  0.00    +0.000 N 
ATOM     27  O   UNL     1      44.554   1.715   9.094  0.00  0.00    +0.000 OA
ATOM     28  H   UNL     1      44.253   4.706   8.098  0.00  0.00    +0.000 HD
ATOM     29  H   UNL     1      43.941   3.247   7.169  0.00  0.00    +0.000 HD
ENDBRANCH  22  25
ENDBRANCH  17  19
ENDBRANCH   1  17
TORSDOF 4
ENDMDL
MODEL 7
REMARK VINA RESULT:    -6.037      3.550      8.448
REMARK INTER + INTRA:          -8.177
REMARK INTER:                  -7.384
REMARK INTRA:                  -0.793
REMARK UNBOUND:                -0.728
REMARK  Name = 
REMARK  5 active torsions:
REMARK  status: ('A' for Active; 'I' for Inactive)
REMARK    1  A    between atoms: C_1  and  C_2
REMARK    2  A    between atoms: C_12  and  C_13
REMARK    3  A    between atoms: C_13  and  N_14
REMARK    4  A    between atoms: N_14  and  C_15
REMARK    5  A    between atoms: C_18  and  C_19
REMARK                            x       y       z     vdW  Elec       q    Type
REMARK                         _______ _______ _______ _____ _____    ______ ____
ROOT
ATOM      1  C   UNL     1      49.536   8.074  12.568  0.00  0.00    +0.000 C 
ATOM      2  C   UNL     1      50.238   9.147  11.745  0.00  0.00    +0.000 C 
ATOM      3  C   UNL     1      50.225   7.745  11.244  0.00  0.00    +0.000 C 
ENDROOT
BRANCH   1  15
ATOM      4  C   UNL     1      43.088   4.910  12.900  0.00  0.00    +0.000 C 
ATOM      5  C   UNL     1      44.390   5.114  12.127  0.00  0.00    +0.000 C 
ATOM      6  C   UNL     1      44.900   3.776  11.540  0.00  0.00    +0.000 C 
ATOM      7  O   UNL     1      45.340   2.868  12.562  0.00  0.00    +0.000 OA
ATOM      8  C   UNL     1      46.442   3.445  13.282  0.00  0.00    +0.000 C 
ATOM      9  C   UNL     1      46.051   4.759  13.966  0.00  0.00    +0.000 C 
ATOM     10  N   UNL     1      45.387   5.690  13.043  0.00  0.00    +0.000 N 
ATOM     11  C   UNL     1      46.014   6.880  12.742  0.00  0.00    +0.000 A 
ATOM     12  C   UNL     1      45.273   8.011  12.412  0.00  0.00    +0.000 A 
ATOM     13  C   UNL     1      45.912   9.232  12.233  0.00  0.00    +0.000 A 
ATOM     14  C   UNL     1      47.296   9.283  12.322  0.00  0.00    +0.000 A 
ATOM     15  C   UNL     1      48.004   8.109  12.580  0.00  0.00    +0.000 A 
ATOM     16  N   UNL     1      47.355   6.941  12.832  0.00  0.00    +0.000 NA
ENDBRANCH   1  15
BRANCH   1  17
ATOM     17  N   UNL     1      50.141   7.396  13.746  0.00  0.00    +0.000 N 
ATOM     18  H   UNL     1      50.302   6.400  13.583  0.00  0.00    +0.000 HD
BRANCH  17  19
ATOM     19  C   UNL     1      49.714   7.635  15.065  0.00  0.00    +0.000 A 
ATOM     20  C   UNL     1      49.660   8.947  15.558  0.00  0.00    +0.000 A 
ATOM     21  C   UNL     1      49.169   9.196  16.843  0.00  0.00    +0.000 A 
ATOM     22  C   UNL     1      48.723   8.114  17.594  0.00  0.00    +0.000 A 
ATOM     23  N   UNL     1      48.719   6.833  17.144  0.00  0.00    +0.000 NA
ATOM     24  C   UNL     1      49.193   6.643  15.894  0.00  0.00    +0.000 A 
BRANCH  22  25
ATOM     25  C   UNL     1      48.202   8.303  18.988  0.00  0.00    +0.000 C 
ATOM     26  N   UNL     1      47.489   7.244  19.479  0.00  0.00    +0.000 N 
ATOM     27  O   UNL     1      48.408   9.320  19.641  0.00  0.00    +0.000 OA
ATOM     28  H   UNL     1      47.345   6.431  18.894  0.00  0.00    +0.000 HD
ATOM     29  H   UNL     1      47.099   7.288  20.409  0.00  0.00    +0.000 HD
ENDBRANCH  22  25
ENDBRANCH  17  19
ENDBRANCH   1  17
TORSDOF 4
ENDMDL
