MODEL 1
REMARK VINA RESULT:    -7.940      0.000      0.000
REMARK INTER + INTRA:         -10.320
REMARK INTER:                 -10.029
REMARK INTRA:                  -0.291
REMARK UNBOUND:                -0.291
REMARK  Name = 
REMARK  5 active torsions:
REMARK  status: ('A' for Active; 'I' for Inactive)
REMARK    1  A    between atoms: C_2  and  C_4
REMARK    2  A    between atoms: N_8  and  C_9
REMARK    3  A    between atoms: C_9  and  C_10
REMARK    4  A    between atoms: CA_13  and  C_14
REMARK    5  A    between atoms: C_14  and  O_15
REMARK                            x       y       z     vdW  Elec       q    Type
REMARK                         _______ _______ _______ _____ _____    ______ ____
ROOT
ATOM      1  C   UNL     1      46.461   2.711   7.474  0.00  0.00    +0.000 A 
ATOM      2  C   UNL     1      46.022   1.810   8.411  0.00  0.00    +0.000 A 
ATOM      3  N   UNL     1      45.201   2.137   9.432  0.00  0.00    +0.000 NA
ATOM      4  C   UNL     1      44.833   3.428   9.535  0.00  0.00    +0.000 A 
ATOM      5  N   UNL     1      43.879   3.684  10.521  0.00  0.00    +0.000 N 
ATOM      6  N   UNL     1      45.275   4.395   8.718  0.00  0.00    +0.000 NA
ATOM      7  C   UNL     1      46.079   4.014   7.696  0.00  0.00    +0.000 A 
ATOM      8  H   UNL     1      43.831   2.830  11.067  0.00  0.00    +0.000 HD
ENDROOT
BRANCH   1  10
ATOM      9  N   UNL     1      47.222   3.175   5.218  0.00  0.00    +0.000 N 
ATOM     10  C   UNL     1      47.270   2.345   6.305  0.00  0.00    +0.000 C 
ATOM     11  O   UNL     1      47.998   1.359   6.322  0.00  0.00    +0.000 OA
ATOM     12  H   UNL     1      47.880   2.968   4.472  0.00  0.00    +0.000 HD
ATOM     13  H   UNL     1      46.857   4.119   5.254  0.00  0.00    +0.000 HD
ENDBRANCH   1  10
BRANCH   5  14
ATOM     14  C   UNL     1      43.873   4.944  11.284  0.00  0.00    +0.000 C 
ATOM     15  C   UNL     1      42.623   5.176  12.125  0.00  0.00    +0.000 C 
ATOM     16  C   UNL     1      42.918   6.074  10.969  0.00  0.00    +0.000 C 
BRANCH  14  17
ATOM     17  C   UNL     1      45.226   5.242  11.914  0.00  0.00    +0.000 A 
ATOM     18  C   UNL     1      46.006   6.330  11.500  0.00  0.00    +0.000 A 
ATOM     19  C   UNL     1      47.132   6.721  12.220  0.00  0.00    +0.000 A 
ATOM     20  CA  UNL     1      47.477   6.009  13.362  0.00  0.00    +0.000 A 
ATOM     21  N   UNL     1      46.805   4.897  13.754  0.00  0.00    +0.000 NA
ATOM     22  C   UNL     1      45.707   4.551  13.028  0.00  0.00    +0.000 A 
BRANCH  20  23
ATOM     23  C   UNL     1      48.571   6.515  14.271  0.00  0.00    +0.000 C 
BRANCH  23  24
ATOM     24  O   UNL     1      49.744   6.850  13.539  0.00  0.00    +0.000 OA
ATOM     25  H   UNL     1      50.045   6.007  13.146  0.00  0.00    +0.000 HD
ENDBRANCH  23  24
ENDBRANCH  20  23
ENDBRANCH  14  17
ENDBRANCH   5  14
TORSDOF 5
ENDMDL
MODEL 2
REMARK VINA RESULT:    -7.268      1.524      6.509
REMARK INTER + INTRA:          -9.472
REMARK INTER:                  -9.421
REMARK INTRA:                  -0.050
REMARK UNBOUND:                -0.291
REMARK  Name = 
REMARK  5 active torsions:
REMARK  status: ('A' for Active; 'I' for Inactive)
REMARK    1  A    between atoms: C_2  and  C_4
REMARK    2  A    between atoms: N_8  and  C_9
REMARK    3  A    between atoms: C_9  and  C_10
REMARK    4  A    between atoms: CA_13  and  C_14
REMARK    5  A    between atoms: C_14  and  O_15
REMARK                            x       y       z     vdW  Elec       q    Type
REMARK                         _______ _______ _______ _____ _____    ______ ____
ROOT
ATOM      1  C   UNL     1      47.954   6.387  13.899  0.00  0.00    +0.000 A 
ATOM      2  C   UNL     1      47.905   6.997  12.670  0.00  0.00    +0.000 A 
ATOM      3  N   UNL     1      46.990   6.693  11.724  0.00  0.00    +0.000 NA
ATOM      4  C   UNL     1      46.113   5.714  12.010  0.00  0.00    +0.000 A 
ATOM      5  N   UNL     1      45.109   5.535  11.057  0.00  0.00    +0.000 N 
ATOM      6  N   UNL     1      46.133   5.005  13.149  0.00  0.00    +0.000 NA
ATOM      7  C   UNL     1      47.054   5.361  14.076  0.00  0.00    +0.000 A 
ATOM      8  H   UNL     1      45.406   6.085  10.257  0.00  0.00    +0.000 HD
ENDROOT
BRANCH   1  10
ATOM      9  N   UNL     1      48.370   6.884  16.236  0.00  0.00    +0.000 N 
ATOM     10  C   UNL     1      48.878   6.781  14.969  0.00  0.00    +0.000 C 
ATOM     11  O   UNL     1      50.069   6.962  14.744  0.00  0.00    +0.000 OA
ATOM     12  H   UNL     1      49.050   7.038  16.976  0.00  0.00    +0.000 HD
ATOM     13  H   UNL     1      47.478   6.492  16.512  0.00  0.00    +0.000 HD
ENDBRANCH   1  10
BRANCH   5  14
ATOM     14  C   UNL     1      44.551   4.204  10.760  0.00  0.00    +0.000 C 
ATOM     15  C   UNL     1      43.046   4.082  10.969  0.00  0.00    +0.000 C 
ATOM     16  C   UNL     1      43.983   3.308  11.837  0.00  0.00    +0.000 C 
BRANCH  14  17
ATOM     17  C   UNL     1      45.151   3.597   9.500  0.00  0.00    +0.000 A 
ATOM     18  C   UNL     1      45.736   4.395   8.507  0.00  0.00    +0.000 A 
ATOM     19  C   UNL     1      46.469   3.825   7.469  0.00  0.00    +0.000 A 
ATOM     20  CA  UNL     1      46.610   2.444   7.428  0.00  0.00    +0.000 A 
ATOM     21  N   UNL     1      45.992   1.625   8.317  0.00  0.00    +0.000 NA
ATOM     22  C   UNL     1      45.290   2.220   9.319  0.00  0.00    +0.000 A 
BRANCH  20  23
ATOM     23  C   UNL     1      47.552   1.806   6.435  0.00  0.00    +0.000 C 
BRANCH  23  24
ATOM     24  O   UNL     1      48.731   2.581   6.263  0.00  0.00    +0.000 OA
ATOM     25  H   UNL     1      49.468   1.959   6.424  0.00  0.00    +0.000 HD
ENDBRANCH  23  24
ENDBRANCH  20  23
ENDBRANCH  14  17
ENDBRANCH   5  14
TORSDOF 5
ENDMDL
MODEL 3
REMARK VINA RESULT:    -6.058      1.914      6.688
REMARK INTER + INTRA:          -7.943
REMARK INTER:                  -8.839
REMARK INTRA:                   0.896
REMARK UNBOUND:                -0.291
REMARK  Name = 
REMARK  5 active torsions:
REMARK  status: ('A' for Active; 'I' for Inactive)
REMARK    1  A    between atoms: C_2  and  C_4
REMARK    2  A    between atoms: N_8  and  C_9
REMARK    3  A    between atoms: C_9  and  C_10
REMARK    4  A    between atoms: CA_13  and  C_14
REMARK    5  A    between atoms: C_14  and  O_15
REMARK                            x       y       z     vdW  Elec       q    Type
REMARK                         _______ _______ _______ _____ _____    ______ ____
ROOT
ATOM      1  C   UNL     1      48.309   5.729  15.415  0.00  0.00    +0.000 A 
ATOM      2  C   UNL     1      47.624   4.618  15.838  0.00  0.00    +0.000 A 
ATOM      3  N   UNL     1      46.657   4.018  15.110  0.00  0.00    +0.000 NA
ATOM      4  C   UNL     1      46.343   4.576  13.927  0.00  0.00    +0.000 A 
ATOM      5  N   UNL     1      45.439   3.840  13.158  0.00  0.00    +0.000 N 
ATOM      6  N   UNL     1      46.899   5.706  13.466  0.00  0.00    +0.000 NA
ATOM      7  C   UNL     1      47.879   6.259  14.220  0.00  0.00    +0.000 A 
ATOM      8  H   UNL     1      45.081   3.127  13.786  0.00  0.00    +0.000 HD
ENDROOT
BRANCH   1  10
ATOM      9  N   UNL     1      49.342   7.655  16.467  0.00  0.00    +0.000 N 
ATOM     10  C   UNL     1      49.430   6.327  16.151  0.00  0.00    +0.000 C 
ATOM     11  O   UNL     1      50.385   5.647  16.512  0.00  0.00    +0.000 OA
ATOM     12  H   UNL     1      50.069   8.016  17.079  0.00  0.00    +0.000 HD
ATOM     13  H   UNL     1      48.478   8.180  16.429  0.00  0.00    +0.000 HD
ENDBRANCH   1  10
BRANCH   5  14
ATOM     14  C   UNL     1      44.449   4.498  12.289  0.00  0.00    +0.000 C 
ATOM     15  C   UNL     1      44.061   5.909  12.716  0.00  0.00    +0.000 C 
ATOM     16  C   UNL     1      43.046   4.814  12.758  0.00  0.00    +0.000 C 
BRANCH  14  17
ATOM     17  C   UNL     1      44.721   4.245  10.813  0.00  0.00    +0.000 A 
ATOM     18  C   UNL     1      45.483   5.135  10.044  0.00  0.00    +0.000 A 
ATOM     19  C   UNL     1      45.906   4.794   8.761  0.00  0.00    +0.000 A 
ATOM     20  CA  UNL     1      45.556   3.551   8.249  0.00  0.00    +0.000 A 
ATOM     21  N   UNL     1      44.749   2.691   8.920  0.00  0.00    +0.000 NA
ATOM     22  C   UNL     1      44.361   3.058  10.172  0.00  0.00    +0.000 A 
BRANCH  20  23
ATOM     23  C   UNL     1      46.154   3.071   6.948  0.00  0.00    +0.000 C 
BRANCH  23  24
ATOM     24  O   UNL     1      46.816   4.124   6.259  0.00  0.00    +0.000 OA
ATOM     25  H   UNL     1      47.631   3.718   5.902  0.00  0.00    +0.000 HD
ENDBRANCH  23  24
ENDBRANCH  20  23
ENDBRANCH  14  17
ENDBRANCH   5  14
TORSDOF 5
ENDMDL
MODEL 4
REMARK VINA RESULT:    -5.799      4.875      7.810
REMARK INTER + INTRA:          -7.615
REMARK INTER:                  -7.348
REMARK INTRA:                  -0.267
REMARK UNBOUND:                -0.291
REMARK  Name = 
REMARK  5 active torsions:
REMARK  status: ('A' for Active; 'I' for Inactive)
REMARK    1  A    between atoms: C_2  and  C_4
REMARK    2  A    between atoms: N_8  and  C_9
REMARK    3  A    between atoms: C_9  and  C_10
REMARK    4  A    between atoms: CA_13  and  C_14
REMARK    5  A    between atoms: C_14  and  O_15
REMARK                            x       y       z     vdW  Elec       q    Type
REMARK                         _______ _______ _______ _____ _____    ______ ____
ROOT
ATOM      1  C   UNL     1      47.189   5.588  13.481  0.00  0.00    +0.000 A 
ATOM      2  C   UNL     1      46.722   4.397  13.977  0.00  0.00    +0.000 A 
ATOM      3  N   UNL     1      46.953   3.975  15.239  0.00  0.00    +0.000 NA
ATOM      4  C   UNL     1      47.711   4.764  16.022  0.00  0.00    +0.000 A 
ATOM      5  N   UNL     1      47.803   4.350  17.352  0.00  0.00    +0.000 N 
ATOM      6  N   UNL     1      48.278   5.904  15.602  0.00  0.00    +0.000 NA
ATOM      7  C   UNL     1      48.000   6.298  14.336  0.00  0.00    +0.000 A 
ATOM      8  H   UNL     1      47.412   3.412  17.362  0.00  0.00    +0.000 HD
ENDROOT
BRANCH   1  10
ATOM      9  N   UNL     1      47.553   7.192  11.698  0.00  0.00    +0.000 N 
ATOM     10  C   UNL     1      46.858   6.102  12.146  0.00  0.00    +0.000 C 
ATOM     11  O   UNL     1      46.025   5.543  11.441  0.00  0.00    +0.000 OA
ATOM     12  H   UNL     1      47.394   7.453  10.729  0.00  0.00    +0.000 HD
ATOM     13  H   UNL     1      48.415   7.515  12.120  0.00  0.00    +0.000 HD
ENDBRANCH   1  10
BRANCH   5  14
ATOM     14  C   UNL     1      49.029   4.550  18.142  0.00  0.00    +0.000 C 
ATOM     15  C   UNL     1      48.796   4.826  19.624  0.00  0.00    +0.000 C 
ATOM     16  C   UNL     1      49.386   5.887  18.754  0.00  0.00    +0.000 C 
BRANCH  14  17
ATOM     17  C   UNL     1      50.127   3.568  17.761  0.00  0.00    +0.000 A 
ATOM     18  C   UNL     1      51.480   3.851  17.996  0.00  0.00    +0.000 A 
ATOM     19  C   UNL     1      52.454   2.868  17.844  0.00  0.00    +0.000 A 
ATOM     20  CA  UNL     1      52.066   1.594  17.450  0.00  0.00    +0.000 A 
ATOM     21  N   UNL     1      50.782   1.295  17.128  0.00  0.00    +0.000 NA
ATOM     22  C   UNL     1      49.858   2.281  17.294  0.00  0.00    +0.000 A 
BRANCH  20  23
ATOM     23  C   UNL     1      53.061   0.459  17.461  0.00  0.00    +0.000 C 
BRANCH  23  24
ATOM     24  O   UNL     1      52.716  -0.528  18.424  0.00  0.00    +0.000 OA
ATOM     25  H   UNL     1      51.785  -0.755  18.230  0.00  0.00    +0.000 HD
ENDBRANCH  23  24
ENDBRANCH  20  23
ENDBRANCH  14  17
ENDBRANCH   5  14
TORSDOF 5
ENDMDL
MODEL 5
REMARK VINA RESULT:    -5.600      4.408      6.690
REMARK INTER + INTRA:          -7.365
REMARK INTER:                  -8.033
REMARK INTRA:                   0.668
REMARK UNBOUND:                -0.291
REMARK  Name = 
REMARK  5 active torsions:
REMARK  status: ('A' for Active; 'I' for Inactive)
REMARK    1  A    between atoms: C_2  and  C_4
REMARK    2  A    between atoms: N_8  and  C_9
REMARK    3  A    between atoms: C_9  and  C_10
REMARK    4  A    between atoms: CA_13  and  C_14
REMARK    5  A    between atoms: C_14  and  O_15
REMARK                            x       y       z     vdW  Elec       q    Type
REMARK                         _______ _______ _______ _____ _____    ______ ____
ROOT
ATOM      1  C   UNL     1      45.680   4.288  12.411  0.00  0.00    +0.000 A 
ATOM      2  C   UNL     1      45.825   5.582  12.844  0.00  0.00    +0.000 A 
ATOM      3  N   UNL     1      46.547   5.926  13.932  0.00  0.00    +0.000 NA
ATOM      4  C   UNL     1      47.116   4.928  14.633  0.00  0.00    +0.000 A 
ATOM      5  N   UNL     1      47.959   5.346  15.663  0.00  0.00    +0.000 N 
ATOM      6  N   UNL     1      46.963   3.629  14.336  0.00  0.00    +0.000 NA
ATOM      7  C   UNL     1      46.250   3.334  13.222  0.00  0.00    +0.000 A 
ATOM      8  H   UNL     1      47.784   6.343  15.756  0.00  0.00    +0.000 HD
ENDROOT
BRANCH   1  10
ATOM      9  N   UNL     1      44.902   2.583  10.870  0.00  0.00    +0.000 N 
ATOM     10  C   UNL     1      44.984   3.915  11.173  0.00  0.00    +0.000 C 
ATOM     11  O   UNL     1      44.454   4.763  10.464  0.00  0.00    +0.000 OA
ATOM     12  H   UNL     1      44.314   2.343  10.077  0.00  0.00    +0.000 HD
ATOM     13  H   UNL     1      45.083   1.848  11.542  0.00  0.00    +0.000 HD
ENDBRANCH   1  10
BRANCH   5  14
ATOM     14  C   UNL     1      48.082   4.588  16.920  0.00  0.00    +0.000 C 
ATOM     15  C   UNL     1      46.775   3.998  17.440  0.00  0.00    +0.000 C 
ATOM     16  C   UNL     1      47.470   5.069  18.216  0.00  0.00    +0.000 C 
BRANCH  14  17
ATOM     17  C   UNL     1      49.323   3.708  16.942  0.00  0.00    +0.000 A 
ATOM     18  C   UNL     1      50.513   4.132  17.549  0.00  0.00    +0.000 A 
ATOM     19  C   UNL     1      51.569   3.247  17.754  0.00  0.00    +0.000 A 
ATOM     20  CA  UNL     1      51.427   1.928  17.342  0.00  0.00    +0.000 A 
ATOM     21  N   UNL     1      50.329   1.491  16.674  0.00  0.00    +0.000 NA
ATOM     22  C   UNL     1      49.317   2.385  16.498  0.00  0.00    +0.000 A 
BRANCH  20  23
ATOM     23  C   UNL     1      52.466   0.899  17.718  0.00  0.00    +0.000 C 
BRANCH  23  24
ATOM     24  O   UNL     1      51.889  -0.189  18.429  0.00  0.00    +0.000 OA
ATOM     25  H   UNL     1      52.640  -0.773  18.651  0.00  0.00    +0.000 HD
ENDBRANCH  23  24
ENDBRANCH  20  23
ENDBRANCH  14  17
ENDBRANCH   5  14
TORSDOF 5
ENDMDL
MODEL 6
REMARK VINA RESULT:    -5.422      3.208      4.997
REMARK INTER + INTRA:          -7.139
REMARK INTER:                  -6.934
REMARK INTRA:                  -0.205
REMARK UNBOUND:                -0.291
REMARK  Name = 
REMARK  5 active torsions:
REMARK  status: ('A' for Active; 'I' for Inactive)
REMARK    1  A    between atoms: C_2  and  C_4
REMARK    2  A    between atoms: N_8  and  C_9
REMARK    3  A    between atoms: C_9  and  C_10
REMARK    4  A    between atoms: CA_13  and  C_14
REMARK    5  A    between atoms: C_14  and  O_15
REMARK                            x       y       z     vdW  Elec       q    Type
REMARK                         _______ _______ _______ _____ _____    ______ ____
ROOT
ATOM      1  C   UNL     1      44.601   4.451  11.633  0.00  0.00    +0.000 A 
ATOM      2  C   UNL     1      44.115   5.007  12.790  0.00  0.00    +0.000 A 
ATOM      3  N   UNL     1      44.530   6.197  13.276  0.00  0.00    +0.000 NA
ATOM      4  C   UNL     1      45.495   6.837  12.592  0.00  0.00    +0.000 A 
ATOM      5  N   UNL     1      45.788   8.120  13.059  0.00  0.00    +0.000 N 
ATOM      6  N   UNL     1      46.089   6.337  11.498  0.00  0.00    +0.000 NA
ATOM      7  C   UNL     1      45.624   5.152  11.036  0.00  0.00    +0.000 A 
ATOM      8  H   UNL     1      45.312   8.187  13.954  0.00  0.00    +0.000 HD
ENDROOT
BRANCH   1  10
ATOM      9  N   UNL     1      44.890   2.547  10.159  0.00  0.00    +0.000 N 
ATOM     10  C   UNL     1      44.085   3.210  11.044  0.00  0.00    +0.000 C 
ATOM     11  O   UNL     1      42.992   2.760  11.371  0.00  0.00    +0.000 OA
ATOM     12  H   UNL     1      44.564   1.633   9.860  0.00  0.00    +0.000 HD
ATOM     13  H   UNL     1      45.882   2.729  10.065  0.00  0.00    +0.000 HD
ENDBRANCH   1  10
BRANCH   5  14
ATOM     14  C   UNL     1      47.153   8.670  13.006  0.00  0.00    +0.000 C 
ATOM     15  C   UNL     1      47.229  10.158  12.679  0.00  0.00    +0.000 C 
ATOM     16  C   UNL     1      47.778   9.155  11.717  0.00  0.00    +0.000 C 
BRANCH  14  17
ATOM     17  C   UNL     1      48.033   8.138  14.128  0.00  0.00    +0.000 A 
ATOM     18  C   UNL     1      48.040   8.729  15.399  0.00  0.00    +0.000 A 
ATOM     19  C   UNL     1      48.677   8.112  16.472  0.00  0.00    +0.000 A 
ATOM     20  CA  UNL     1      49.314   6.895  16.265  0.00  0.00    +0.000 A 
ATOM     21  N   UNL     1      49.408   6.326  15.036  0.00  0.00    +0.000 NA
ATOM     22  C   UNL     1      48.767   6.957  14.013  0.00  0.00    +0.000 A 
BRANCH  20  23
ATOM     23  C   UNL     1      49.847   6.107  17.437  0.00  0.00    +0.000 C 
BRANCH  23  24
ATOM     24  O   UNL     1      50.378   4.854  17.025  0.00  0.00    +0.000 OA
ATOM     25  H   UNL     1      50.956   5.063  16.265  0.00  0.00    +0.000 HD
ENDBRANCH  23  24
ENDBRANCH  20  23
ENDBRANCH  14  17
ENDBRANCH   5  14
TORSDOF 5
ENDMDL
MODEL 7
REMARK VINA RESULT:    -5.280      4.268      6.082
REMARK INTER + INTRA:          -6.960
REMARK INTER:                  -6.472
REMARK INTRA:                  -0.487
REMARK UNBOUND:                -0.291
REMARK  Name = 
REMARK  5 active torsions:
REMARK  status: ('A' for Active; 'I' for Inactive)
REMARK    1  A    between atoms: C_2  and  C_4
REMARK    2  A    between atoms: N_8  and  C_9
REMARK    3  A    between atoms: C_9  and  C_10
REMARK    4  A    between atoms: CA_13  and  C_14
REMARK    5  A    between atoms: C_14  and  O_15
REMARK                            x       y       z     vdW  Elec       q    Type
REMARK                         _______ _______ _______ _____ _____    ______ ____
ROOT
ATOM      1  C   UNL     1      44.780   5.224  12.772  0.00  0.00    +0.000 A 
ATOM      2  C   UNL     1      44.464   6.558  12.711  0.00  0.00    +0.000 A 
ATOM      3  N   UNL     1      45.375   7.530  12.487  0.00  0.00    +0.000 NA
ATOM      4  C   UNL     1      46.659   7.149  12.354  0.00  0.00    +0.000 A 
ATOM      5  N   UNL     1      47.535   8.173  11.989  0.00  0.00    +0.000 N 
ATOM      6  N   UNL     1      47.076   5.881  12.479  0.00  0.00    +0.000 NA
ATOM      7  C   UNL     1      46.123   4.939  12.681  0.00  0.00    +0.000 A 
ATOM      8  H   UNL     1      46.998   9.029  12.100  0.00  0.00    +0.000 HD
ENDROOT
BRANCH   1  10
ATOM      9  N   UNL     1      44.181   2.879  12.617  0.00  0.00    +0.000 N 
ATOM     10  C   UNL     1      43.785   4.155  12.912  0.00  0.00    +0.000 C 
ATOM     11  O   UNL     1      42.655   4.391  13.327  0.00  0.00    +0.000 OA
ATOM     12  H   UNL     1      43.515   2.144  12.837  0.00  0.00    +0.000 HD
ATOM     13  H   UNL     1      45.152   2.603  12.534  0.00  0.00    +0.000 HD
ENDBRANCH   1  10
BRANCH   5  14
ATOM     14  C   UNL     1      48.926   8.211  12.472  0.00  0.00    +0.000 C 
ATOM     15  C   UNL     1      49.850   9.133  11.684  0.00  0.00    +0.000 C 
ATOM     16  C   UNL     1      50.076   7.657  11.662  0.00  0.00    +0.000 C 
BRANCH  14  17
ATOM     17  C   UNL     1      49.007   8.243  13.991  0.00  0.00    +0.000 A 
ATOM     18  C   UNL     1      48.410   9.269  14.737  0.00  0.00    +0.000 A 
ATOM     19  C   UNL     1      48.303   9.179  16.122  0.00  0.00    +0.000 A 
ATOM     20  CA  UNL     1      48.803   8.052  16.761  0.00  0.00    +0.000 A 
ATOM     21  N   UNL     1      49.465   7.073  16.093  0.00  0.00    +0.000 NA
ATOM     22  C   UNL     1      49.544   7.195  14.739  0.00  0.00    +0.000 A 
BRANCH  20  23
ATOM     23  C   UNL     1      48.536   7.830  18.231  0.00  0.00    +0.000 C 
BRANCH  23  24
ATOM     24  O   UNL     1      47.349   7.075  18.436  0.00  0.00    +0.000 OA
ATOM     25  H   UNL     1      46.899   7.070  17.568  0.00  0.00    +0.000 HD
ENDBRANCH  23  24
ENDBRANCH  20  23
ENDBRANCH  14  17
ENDBRANCH   5  14
TORSDOF 5
ENDMDL
MODEL 8
REMARK VINA RESULT:    -5.068      3.949      6.000
REMARK INTER + INTRA:          -6.692
REMARK INTER:                  -6.189
REMARK INTRA:                  -0.503
REMARK UNBOUND:                -0.291
REMARK  Name = 
REMARK  5 active torsions:
REMARK  status: ('A' for Active; 'I' for Inactive)
REMARK    1  A    between atoms: C_2  and  C_4
REMARK    2  A    between atoms: N_8  and  C_9
REMARK    3  A    between atoms: C_9  and  C_10
REMARK    4  A    between atoms: CA_13  and  C_14
REMARK    5  A    between atoms: C_14  and  O_15
REMARK                            x       y       z     vdW  Elec       q    Type
REMARK                         _______ _______ _______ _____ _____    ______ ____
ROOT
ATOM      1  C   UNL     1      44.528   6.467  11.517  0.00  0.00    +0.000 A 
ATOM      2  C   UNL     1      44.466   7.751  11.997  0.00  0.00    +0.000 A 
ATOM      3  N   UNL     1      45.554   8.527  12.190  0.00  0.00    +0.000 NA
ATOM      4  C   UNL     1      46.754   7.980  11.923  0.00  0.00    +0.000 A 
ATOM      5  N   UNL     1      47.830   8.865  12.009  0.00  0.00    +0.000 N 
ATOM      6  N   UNL     1      46.921   6.709  11.529  0.00  0.00    +0.000 NA
ATOM      7  C   UNL     1      45.800   5.977  11.327  0.00  0.00    +0.000 A 
ATOM      8  H   UNL     1      47.450   9.696  12.452  0.00  0.00    +0.000 HD
ENDROOT
BRANCH   1  10
ATOM      9  N   UNL     1      42.147   6.055  11.729  0.00  0.00    +0.000 N 
ATOM     10  C   UNL     1      43.346   5.653  11.207  0.00  0.00    +0.000 C 
ATOM     11  O   UNL     1      43.424   4.679  10.467  0.00  0.00    +0.000 OA
ATOM     12  H   UNL     1      41.328   5.549  11.404  0.00  0.00    +0.000 HD
ATOM     13  H   UNL     1      41.988   6.978  12.113  0.00  0.00    +0.000 HD
ENDBRANCH   1  10
BRANCH   5  14
ATOM     14  C   UNL     1      49.157   8.428  12.474  0.00  0.00    +0.000 C 
ATOM     15  C   UNL     1      50.328   9.210  11.889  0.00  0.00    +0.000 C 
ATOM     16  C   UNL     1      50.157   7.764  11.555  0.00  0.00    +0.000 C 
BRANCH  14  17
ATOM     17  C   UNL     1      49.173   8.126  13.966  0.00  0.00    +0.000 A 
ATOM     18  C   UNL     1      48.741   9.066  14.911  0.00  0.00    +0.000 A 
ATOM     19  C   UNL     1      48.555   8.710  16.244  0.00  0.00    +0.000 A 
ATOM     20  CA  UNL     1      48.810   7.400  16.629  0.00  0.00    +0.000 A 
ATOM     21  N   UNL     1      49.311   6.476  15.771  0.00  0.00    +0.000 NA
ATOM     22  C   UNL     1      49.473   6.861  14.475  0.00  0.00    +0.000 A 
BRANCH  20  23
ATOM     23  C   UNL     1      48.439   6.930  18.015  0.00  0.00    +0.000 C 
BRANCH  23  24
ATOM     24  O   UNL     1      47.366   5.997  17.980  0.00  0.00    +0.000 OA
ATOM     25  H   UNL     1      47.758   5.176  17.624  0.00  0.00    +0.000 HD
ENDBRANCH  23  24
ENDBRANCH  20  23
ENDBRANCH  14  17
ENDBRANCH   5  14
TORSDOF 5
ENDMDL
