MODEL 1
REMARK VINA RESULT:    -7.919      0.000      0.000
REMARK INTER + INTRA:         -11.827
REMARK INTER:                 -10.696
REMARK INTRA:                  -1.131
REMARK UNBOUND:                -1.131
REMARK  Name = 
REMARK  8 active torsions:
REMARK  status: ('A' for Active; 'I' for Inactive)
REMARK    1  A    between atoms: C_1  and  C_2
REMARK    2  A    between atoms: C_2  and  N_3
REMARK    3  A    between atoms: C_2  and  C_17
REMARK    4  A    between atoms: C_4  and  C_6
REMARK    5  A    between atoms: N_12  and  C_13
REMARK    6  A    between atoms: C_20  and  C_21
REMARK    7  A    between atoms: C_21  and  N_22
REMARK    8  A    between atoms: C_23  and  C_25
REMARK                            x       y       z     vdW  Elec       q    Type
REMARK                         _______ _______ _______ _____ _____    ______ ____
ROOT
ATOM      1  C   UNL     1      47.085   6.431  13.259  0.00  0.00    +0.000 A 
ATOM      2  C   UNL     1      46.338   5.330  13.714  0.00  0.00    +0.000 A 
ATOM      3  C   UNL     1      45.492   4.629  12.846  0.00  0.00    +0.000 A 
ATOM      4  C   UNL     1      45.368   5.013  11.503  0.00  0.00    +0.000 A 
ATOM      5  C   UNL     1      46.141   6.083  11.039  0.00  0.00    +0.000 A 
ATOM      6  C   UNL     1      46.980   6.778  11.907  0.00  0.00    +0.000 A 
ATOM      7  F   UNL     1      47.682   7.812  11.423  0.00  0.00    +0.000 F 
ENDROOT
BRANCH   1   9
ATOM      8  C   UNL     1      47.592   8.711  14.205  0.00  0.00    +0.000 C 
ATOM      9  C   UNL     1      47.992   7.230  14.176  0.00  0.00    +0.000 C 
BRANCH   9  10
ATOM     10  N   UNL     1      47.954   6.666  15.511  0.00  0.00    +0.000 N 
ATOM     11  C   UNL     1      49.077   6.326  16.220  0.00  0.00    +0.000 C 
ATOM     12  O   UNL     1      50.202   6.330  15.731  0.00  0.00    +0.000 OA
ATOM     13  H   UNL     1      47.093   6.808  16.024  0.00  0.00    +0.000 HD
BRANCH  11  14
ATOM     14  C   UNL     1      48.843   5.908  17.607  0.00  0.00    +0.000 A 
ATOM     15  C   UNL     1      49.180   4.627  18.019  0.00  0.00    +0.000 A 
ATOM     16  S   UNL     1      48.829   4.330  19.663  0.00  0.00    +0.000 S 
ATOM     17  C   UNL     1      48.258   5.918  19.887  0.00  0.00    +0.000 A 
ATOM     18  N   UNL     1      47.828   6.342  21.103  0.00  0.00    +0.000 NA
ATOM     19  C   UNL     1      47.454   7.580  21.138  0.00  0.00    +0.000 A 
ATOM     20  N   UNL     1      47.453   8.446  20.065  0.00  0.00    +0.000 N 
ATOM     21  C   UNL     1      46.995   9.812  20.214  0.00  0.00    +0.000 C 
ATOM     22  C   UNL     1      47.841   8.032  18.796  0.00  0.00    +0.000 A 
ATOM     23  O   UNL     1      47.769   8.762  17.810  0.00  0.00    +0.000 OA
ATOM     24  C   UNL     1      48.304   6.655  18.721  0.00  0.00    +0.000 A 
ENDBRANCH  11  14
ENDBRANCH   9  10
ENDBRANCH   1   9
BRANCH   4  25
ATOM     25  C   UNL     1      44.411   4.308  10.581  0.00  0.00    +0.000 C 
BRANCH  25  26
ATOM     26  N   UNL     1      45.038   3.267   9.817  0.00  0.00    +0.000 N 
ATOM     27  C   UNL     1      45.547   3.521   8.563  0.00  0.00    +0.000 C 
ATOM     28  O   UNL     1      45.483   4.617   8.014  0.00  0.00    +0.000 OA
ATOM     29  H   UNL     1      45.194   2.339  10.198  0.00  0.00    +0.000 HD
BRANCH  27  30
ATOM     30  C   UNL     1      46.175   2.352   7.945  0.00  0.00    +0.000 A 
ATOM     31  C   UNL     1      47.022   2.348   6.853  0.00  0.00    +0.000 A 
ATOM     32  N   UNL     1      47.340   1.037   6.640  0.00  0.00    +0.000 N 
ATOM     33  C   UNL     1      46.694   0.296   7.589  0.00  0.00    +0.000 A 
ATOM     34  N   UNL     1      45.986   1.052   8.397  0.00  0.00    +0.000 NA
ATOM     35  H   UNL     1      47.943   0.676   5.913  0.00  0.00    +0.000 HD
ENDBRANCH  27  30
ENDBRANCH  25  26
ENDBRANCH   4  25
TORSDOF 6
ENDMDL
MODEL 2
REMARK VINA RESULT:    -7.857      1.763      2.608
REMARK INTER + INTRA:         -11.744
REMARK INTER:                 -10.539
REMARK INTRA:                  -1.206
REMARK UNBOUND:                -1.131
REMARK  Name = 
REMARK  8 active torsions:
REMARK  status: ('A' for Active; 'I' for Inactive)
REMARK    1  A    between atoms: C_1  and  C_2
REMARK    2  A    between atoms: C_2  and  N_3
REMARK    3  A    between atoms: C_2  and  C_17
REMARK    4  A    between atoms: C_4  and  C_6
REMARK    5  A    between atoms: N_12  and  C_13
REMARK    6  A    between atoms: C_20  and  C_21
REMARK    7  A    between atoms: C_21  and  N_22
REMARK    8  A    between atoms: C_23  and  C_25
REMARK                            x       y       z     vdW  Elec       q    Type
REMARK                         _______ _______ _______ _____ _____    ______ ____
ROOT
ATOM      1  C   UNL     1      46.296   7.220  12.432  0.00  0.00    +0.000 A 
ATOM      2  C   UNL     1      45.012   7.447  11.906  0.00  0.00    +0.000 A 
ATOM      3  C   UNL     1      44.246   6.390  11.402  0.00  0.00    +0.000 A 
ATOM      4  C   UNL     1      44.744   5.079  11.408  0.00  0.00    +0.000 A 
ATOM      5  C   UNL     1      46.004   4.845  11.969  0.00  0.00    +0.000 A 
ATOM      6  C   UNL     1      46.763   5.901  12.467  0.00  0.00    +0.000 A 
ATOM      7  F   UNL     1      47.975   5.631  12.971  0.00  0.00    +0.000 F 
ENDROOT
BRANCH   1   9
ATOM      8  C   UNL     1      46.550   9.716  12.663  0.00  0.00    +0.000 C 
ATOM      9  C   UNL     1      47.166   8.344  12.962  0.00  0.00    +0.000 C 
BRANCH   9  10
ATOM     10  N   UNL     1      47.365   8.175  14.389  0.00  0.00    +0.000 N 
ATOM     11  C   UNL     1      48.602   8.099  14.975  0.00  0.00    +0.000 C 
ATOM     12  O   UNL     1      49.643   8.017  14.330  0.00  0.00    +0.000 OA
ATOM     13  H   UNL     1      46.576   8.414  14.975  0.00  0.00    +0.000 HD
BRANCH  11  14
ATOM     14  C   UNL     1      48.602   8.075  16.443  0.00  0.00    +0.000 A 
ATOM     15  C   UNL     1      48.574   9.262  17.162  0.00  0.00    +0.000 A 
ATOM     16  S   UNL     1      48.582   9.029  18.852  0.00  0.00    +0.000 S 
ATOM     17  C   UNL     1      48.578   7.336  18.677  0.00  0.00    +0.000 A 
ATOM     18  N   UNL     1      48.547   6.519  19.761  0.00  0.00    +0.000 NA
ATOM     19  C   UNL     1      48.512   5.256  19.482  0.00  0.00    +0.000 A 
ATOM     20  N   UNL     1      48.518   4.718  18.212  0.00  0.00    +0.000 N 
ATOM     21  C   UNL     1      48.493   3.283  18.015  0.00  0.00    +0.000 C 
ATOM     22  C   UNL     1      48.595   5.523  17.081  0.00  0.00    +0.000 A 
ATOM     23  O   UNL     1      48.686   5.062  15.946  0.00  0.00    +0.000 OA
ATOM     24  C   UNL     1      48.601   6.952  17.351  0.00  0.00    +0.000 A 
ENDBRANCH  11  14
ENDBRANCH   9  10
ENDBRANCH   1   9
BRANCH   4  25
ATOM     25  C   UNL     1      43.954   3.947  10.808  0.00  0.00    +0.000 C 
BRANCH  25  26
ATOM     26  N   UNL     1      44.768   3.045  10.042  0.00  0.00    +0.000 N 
ATOM     27  C   UNL     1      45.141   3.352   8.753  0.00  0.00    +0.000 C 
ATOM     28  O   UNL     1      44.797   4.377   8.173  0.00  0.00    +0.000 OA
ATOM     29  H   UNL     1      45.154   2.196  10.444  0.00  0.00    +0.000 HD
BRANCH  27  30
ATOM     30  C   UNL     1      45.991   2.332   8.138  0.00  0.00    +0.000 A 
ATOM     31  C   UNL     1      46.995   2.541   7.211  0.00  0.00    +0.000 A 
ATOM     32  N   UNL     1      47.495   1.303   6.926  0.00  0.00    +0.000 N 
ATOM     33  C   UNL     1      46.799   0.394   7.673  0.00  0.00    +0.000 A 
ATOM     34  N   UNL     1      45.888   0.976   8.420  0.00  0.00    +0.000 NA
ATOM     35  H   UNL     1      48.243   1.091   6.279  0.00  0.00    +0.000 HD
ENDBRANCH  27  30
ENDBRANCH  25  26
ENDBRANCH   4  25
TORSDOF 6
ENDMDL
MODEL 3
REMARK VINA RESULT:    -7.406      2.369      2.971
REMARK INTER + INTRA:         -11.135
REMARK INTER:                  -9.653
REMARK INTRA:                  -1.482
REMARK UNBOUND:                -1.131
REMARK  Name = 
REMARK  8 active torsions:
REMARK  status: ('A' for Active; 'I' for Inactive)
REMARK    1  A    between atoms: C_1  and  C_2
REMARK    2  A    between atoms: C_2  and  N_3
REMARK    3  A    between atoms: C_2  and  C_17
REMARK    4  A    between atoms: C_4  and  C_6
REMARK    5  A    between atoms: N_12  and  C_13
REMARK    6  A    between atoms: C_20  and  C_21
REMARK    7  A    between atoms: C_21  and  N_22
REMARK    8  A    between atoms: C_23  and  C_25
REMARK                            x       y       z     vdW  Elec       q    Type
REMARK                         _______ _______ _______ _____ _____    ______ ____
ROOT
ATOM      1  C   UNL     1      47.876   8.300  13.387  0.00  0.00    +0.000 A 
ATOM      2  C   UNL     1      46.571   8.822  13.351  0.00  0.00    +0.000 A 
ATOM      3  C   UNL     1      45.575   8.211  12.581  0.00  0.00    +0.000 A 
ATOM      4  C   UNL     1      45.858   7.064  11.824  0.00  0.00    +0.000 A 
ATOM      5  C   UNL     1      47.145   6.519  11.892  0.00  0.00    +0.000 A 
ATOM      6  C   UNL     1      48.133   7.134  12.658  0.00  0.00    +0.000 A 
ATOM      7  F   UNL     1      49.358   6.590  12.670  0.00  0.00    +0.000 F 
ENDROOT
BRANCH   1   9
ATOM      8  C   UNL     1      48.674  10.421  14.489  0.00  0.00    +0.000 C 
ATOM      9  C   UNL     1      48.988   8.950  14.188  0.00  0.00    +0.000 C 
BRANCH   9  10
ATOM     10  N   UNL     1      49.198   8.213  15.418  0.00  0.00    +0.000 N 
ATOM     11  C   UNL     1      50.404   7.666  15.775  0.00  0.00    +0.000 C 
ATOM     12  O   UNL     1      51.369   7.626  15.018  0.00  0.00    +0.000 OA
ATOM     13  H   UNL     1      48.512   8.366  16.146  0.00  0.00    +0.000 HD
BRANCH  11  14
ATOM     14  C   UNL     1      50.457   7.085  17.122  0.00  0.00    +0.000 A 
ATOM     15  C   UNL     1      51.263   7.652  18.098  0.00  0.00    +0.000 A 
ATOM     16  S   UNL     1      51.192   6.834  19.594  0.00  0.00    +0.000 S 
ATOM     17  C   UNL     1      50.049   5.722  18.998  0.00  0.00    +0.000 A 
ATOM     18  N   UNL     1      49.531   4.753  19.795  0.00  0.00    +0.000 NA
ATOM     19  C   UNL     1      48.649   4.001  19.222  0.00  0.00    +0.000 A 
ATOM     20  N   UNL     1      48.233   4.111  17.912  0.00  0.00    +0.000 N 
ATOM     21  C   UNL     1      47.247   3.201  17.367  0.00  0.00    +0.000 C 
ATOM     22  C   UNL     1      48.776   5.061  17.054  0.00  0.00    +0.000 A 
ATOM     23  O   UNL     1      48.482   5.123  15.863  0.00  0.00    +0.000 OA
ATOM     24  C   UNL     1      49.748   5.951  17.670  0.00  0.00    +0.000 A 
ENDBRANCH  11  14
ENDBRANCH   9  10
ENDBRANCH   1   9
BRANCH   4  25
ATOM     25  C   UNL     1      44.811   6.440  10.942  0.00  0.00    +0.000 C 
BRANCH  25  26
ATOM     26  N   UNL     1      45.368   5.561   9.953  0.00  0.00    +0.000 N 
ATOM     27  C   UNL     1      44.775   4.351   9.669  0.00  0.00    +0.000 C 
ATOM     28  O   UNL     1      43.768   3.939  10.238  0.00  0.00    +0.000 OA
ATOM     29  H   UNL     1      46.165   5.828   9.384  0.00  0.00    +0.000 HD
BRANCH  27  30
ATOM     30  C   UNL     1      45.462   3.602   8.616  0.00  0.00    +0.000 A 
ATOM     31  C   UNL     1      45.669   2.236   8.574  0.00  0.00    +0.000 A 
ATOM     32  N   UNL     1      46.358   2.005   7.418  0.00  0.00    +0.000 N 
ATOM     33  C   UNL     1      46.545   3.210   6.800  0.00  0.00    +0.000 A 
ATOM     34  N   UNL     1      46.015   4.196   7.489  0.00  0.00    +0.000 NA
ATOM     35  H   UNL     1      46.675   1.108   7.076  0.00  0.00    +0.000 HD
ENDBRANCH  27  30
ENDBRANCH  25  26
ENDBRANCH   4  25
TORSDOF 6
ENDMDL
MODEL 4
REMARK VINA RESULT:    -6.772      4.808      8.369
REMARK INTER + INTRA:         -10.278
REMARK INTER:                 -10.196
REMARK INTRA:                  -0.082
REMARK UNBOUND:                -1.131
REMARK  Name = 
REMARK  8 active torsions:
REMARK  status: ('A' for Active; 'I' for Inactive)
REMARK    1  A    between atoms: C_1  and  C_2
REMARK    2  A    between atoms: C_2  and  N_3
REMARK    3  A    between atoms: C_2  and  C_17
REMARK    4  A    between atoms: C_4  and  C_6
REMARK    5  A    between atoms: N_12  and  C_13
REMARK    6  A    between atoms: C_20  and  C_21
REMARK    7  A    between atoms: C_21  and  N_22
REMARK    8  A    between atoms: C_23  and  C_25
REMARK                            x       y       z     vdW  Elec       q    Type
REMARK                         _______ _______ _______ _____ _____    ______ ____
ROOT
ATOM      1  C   UNL     1      47.571   8.168  12.568  0.00  0.00    +0.000 A 
ATOM      2  C   UNL     1      48.016   9.327  11.909  0.00  0.00    +0.000 A 
ATOM      3  C   UNL     1      49.319   9.409  11.403  0.00  0.00    +0.000 A 
ATOM      4  C   UNL     1      50.211   8.337  11.546  0.00  0.00    +0.000 A 
ATOM      5  C   UNL     1      49.757   7.167  12.166  0.00  0.00    +0.000 A 
ATOM      6  C   UNL     1      48.460   7.093  12.670  0.00  0.00    +0.000 A 
ATOM      7  F   UNL     1      48.078   5.961  13.278  0.00  0.00    +0.000 F 
ENDROOT
BRANCH   1   9
ATOM      8  C   UNL     1      45.277   9.206  12.688  0.00  0.00    +0.000 C 
ATOM      9  C   UNL     1      46.176   8.053  13.153  0.00  0.00    +0.000 C 
BRANCH   9  10
ATOM     10  N   UNL     1      45.597   6.776  12.785  0.00  0.00    +0.000 N 
ATOM     11  C   UNL     1      44.940   6.557  11.602  0.00  0.00    +0.000 C 
ATOM     12  O   UNL     1      44.656   7.458  10.819  0.00  0.00    +0.000 OA
ATOM     13  H   UNL     1      45.948   5.972  13.290  0.00  0.00    +0.000 HD
BRANCH  11  14
ATOM     14  C   UNL     1      44.553   5.164  11.346  0.00  0.00    +0.000 A 
ATOM     15  C   UNL     1      43.733   4.490  12.239  0.00  0.00    +0.000 A 
ATOM     16  S   UNL     1      43.398   2.884  11.771  0.00  0.00    +0.000 S 
ATOM     17  C   UNL     1      44.300   3.053  10.337  0.00  0.00    +0.000 A 
ATOM     18  N   UNL     1      44.394   2.034   9.444  0.00  0.00    +0.000 NA
ATOM     19  C   UNL     1      45.081   2.311   8.384  0.00  0.00    +0.000 A 
ATOM     20  N   UNL     1      45.704   3.514   8.127  0.00  0.00    +0.000 N 
ATOM     21  C   UNL     1      46.465   3.711   6.910  0.00  0.00    +0.000 C 
ATOM     22  C   UNL     1      45.668   4.562   9.040  0.00  0.00    +0.000 A 
ATOM     23  O   UNL     1      46.284   5.611   8.868  0.00  0.00    +0.000 OA
ATOM     24  C   UNL     1      44.874   4.303  10.231  0.00  0.00    +0.000 A 
ENDBRANCH  11  14
ENDBRANCH   9  10
ENDBRANCH   1   9
BRANCH   4  25
ATOM     25  C   UNL     1      51.633   8.442  11.065  0.00  0.00    +0.000 C 
BRANCH  25  26
ATOM     26  N   UNL     1      51.992   7.388  10.158  0.00  0.00    +0.000 N 
ATOM     27  C   UNL     1      53.206   7.400   9.508  0.00  0.00    +0.000 C 
ATOM     28  O   UNL     1      54.034   8.297   9.635  0.00  0.00    +0.000 OA
ATOM     29  H   UNL     1      51.405   6.571  10.023  0.00  0.00    +0.000 HD
BRANCH  27  30
ATOM     30  C   UNL     1      53.413   6.235   8.647  0.00  0.00    +0.000 A 
ATOM     31  C   UNL     1      54.304   5.199   8.858  0.00  0.00    +0.000 A 
ATOM     32  N   UNL     1      54.148   4.359   7.793  0.00  0.00    +0.000 N 
ATOM     33  C   UNL     1      53.185   4.893   6.983  0.00  0.00    +0.000 A 
ATOM     34  N   UNL     1      52.715   6.020   7.466  0.00  0.00    +0.000 NA
ATOM     35  H   UNL     1      54.651   3.497   7.629  0.00  0.00    +0.000 HD
ENDBRANCH  27  30
ENDBRANCH  25  26
ENDBRANCH   4  25
TORSDOF 6
ENDMDL
MODEL 5
REMARK VINA RESULT:    -6.397      2.011      3.049
REMARK INTER + INTRA:          -9.771
REMARK INTER:                  -9.667
REMARK INTRA:                  -0.104
REMARK UNBOUND:                -1.131
REMARK  Name = 
REMARK  8 active torsions:
REMARK  status: ('A' for Active; 'I' for Inactive)
REMARK    1  A    between atoms: C_1  and  C_2
REMARK    2  A    between atoms: C_2  and  N_3
REMARK    3  A    between atoms: C_2  and  C_17
REMARK    4  A    between atoms: C_4  and  C_6
REMARK    5  A    between atoms: N_12  and  C_13
REMARK    6  A    between atoms: C_20  and  C_21
REMARK    7  A    between atoms: C_21  and  N_22
REMARK    8  A    between atoms: C_23  and  C_25
REMARK                            x       y       z     vdW  Elec       q    Type
REMARK                         _______ _______ _______ _____ _____    ______ ____
ROOT
ATOM      1  C   UNL     1      46.848   6.772  13.032  0.00  0.00    +0.000 A 
ATOM      2  C   UNL     1      46.006   7.323  12.049  0.00  0.00    +0.000 A 
ATOM      3  C   UNL     1      45.114   6.515  11.334  0.00  0.00    +0.000 A 
ATOM      4  C   UNL     1      45.043   5.137  11.580  0.00  0.00    +0.000 A 
ATOM      5  C   UNL     1      45.850   4.594  12.586  0.00  0.00    +0.000 A 
ATOM      6  C   UNL     1      46.738   5.402  13.293  0.00  0.00    +0.000 A 
ATOM      7  F   UNL     1      47.509   4.833  14.229  0.00  0.00    +0.000 F 
ENDROOT
BRANCH   1   9
ATOM      8  C   UNL     1      47.299   9.017  14.085  0.00  0.00    +0.000 C 
ATOM      9  C   UNL     1      47.846   7.611  13.808  0.00  0.00    +0.000 C 
BRANCH   9  10
ATOM     10  N   UNL     1      48.184   6.943  15.049  0.00  0.00    +0.000 N 
ATOM     11  C   UNL     1      49.121   7.415  15.930  0.00  0.00    +0.000 C 
ATOM     12  O   UNL     1      49.860   8.361  15.677  0.00  0.00    +0.000 OA
ATOM     13  H   UNL     1      47.500   6.280  15.392  0.00  0.00    +0.000 HD
BRANCH  11  14
ATOM     14  C   UNL     1      49.219   6.680  17.198  0.00  0.00    +0.000 A 
ATOM     15  C   UNL     1      48.120   6.586  18.039  0.00  0.00    +0.000 A 
ATOM     16  S   UNL     1      48.432   5.697  19.463  0.00  0.00    +0.000 S 
ATOM     17  C   UNL     1      50.031   5.372  18.979  0.00  0.00    +0.000 A 
ATOM     18  N   UNL     1      50.854   4.612  19.745  0.00  0.00    +0.000 NA
ATOM     19  C   UNL     1      52.029   4.417  19.240  0.00  0.00    +0.000 A 
ATOM     20  N   UNL     1      52.477   4.922  18.038  0.00  0.00    +0.000 N 
ATOM     21  C   UNL     1      53.823   4.653  17.575  0.00  0.00    +0.000 C 
ATOM     22  C   UNL     1      51.677   5.742  17.250  0.00  0.00    +0.000 A 
ATOM     23  O   UNL     1      52.084   6.270  16.218  0.00  0.00    +0.000 OA
ATOM     24  C   UNL     1      50.334   5.957  17.766  0.00  0.00    +0.000 A 
ENDBRANCH  11  14
ENDBRANCH   9  10
ENDBRANCH   1   9
BRANCH   4  25
ATOM     25  C   UNL     1      44.135   4.251  10.770  0.00  0.00    +0.000 C 
BRANCH  25  26
ATOM     26  N   UNL     1      44.852   3.273  10.002  0.00  0.00    +0.000 N 
ATOM     27  C   UNL     1      45.390   3.594   8.776  0.00  0.00    +0.000 C 
ATOM     28  O   UNL     1      45.280   4.700   8.256  0.00  0.00    +0.000 OA
ATOM     29  H   UNL     1      45.050   2.345  10.363  0.00  0.00    +0.000 HD
BRANCH  27  30
ATOM     30  C   UNL     1      46.110   2.484   8.150  0.00  0.00    +0.000 A 
ATOM     31  C   UNL     1      45.887   1.135   8.353  0.00  0.00    +0.000 A 
ATOM     32  N   UNL     1      46.801   0.490   7.570  0.00  0.00    +0.000 N 
ATOM     33  C   UNL     1      47.536   1.443   6.923  0.00  0.00    +0.000 A 
ATOM     34  N   UNL     1      47.147   2.656   7.243  0.00  0.00    +0.000 NA
ATOM     35  H   UNL     1      46.917  -0.511   7.481  0.00  0.00    +0.000 HD
ENDBRANCH  27  30
ENDBRANCH  25  26
ENDBRANCH   4  25
TORSDOF 6
ENDMDL
MODEL 6
REMARK VINA RESULT:    -6.223      3.108      4.325
REMARK INTER + INTRA:          -9.536
REMARK INTER:                  -8.119
REMARK INTRA:                  -1.418
REMARK UNBOUND:                -1.131
REMARK  Name = 
REMARK  8 active torsions:
REMARK  status: ('A' for Active; 'I' for Inactive)
REMARK    1  A    between atoms: C_1  and  C_2
REMARK    2  A    between atoms: C_2  and  N_3
REMARK    3  A    between atoms: C_2  and  C_17
REMARK    4  A    between atoms: C_4  and  C_6
REMARK    5  A    between atoms: N_12  and  C_13
REMARK    6  A    between atoms: C_20  and  C_21
REMARK    7  A    between atoms: C_21  and  N_22
REMARK    8  A    between atoms: C_23  and  C_25
REMARK                            x       y       z     vdW  Elec       q    Type
REMARK                         _______ _______ _______ _____ _____    ______ ____
ROOT
ATOM      1  C   UNL     1      48.853   9.128  12.457  0.00  0.00    +0.000 A 
ATOM      2  C   UNL     1      47.699   9.904  12.661  0.00  0.00    +0.000 A 
ATOM      3  C   UNL     1      46.425   9.367  12.444  0.00  0.00    +0.000 A 
ATOM      4  C   UNL     1      46.272   8.041  12.013  0.00  0.00    +0.000 A 
ATOM      5  C   UNL     1      47.418   7.255  11.848  0.00  0.00    +0.000 A 
ATOM      6  C   UNL     1      48.683   7.796  12.064  0.00  0.00    +0.000 A 
ATOM      7  F   UNL     1      49.752   7.012  11.869  0.00  0.00    +0.000 F 
ENDROOT
BRANCH   1   9
ATOM      8  C   UNL     1      50.238  11.217  12.726  0.00  0.00    +0.000 C 
ATOM      9  C   UNL     1      50.250   9.685  12.655  0.00  0.00    +0.000 C 
BRANCH   9  10
ATOM     10  N   UNL     1      50.831   9.124  13.860  0.00  0.00    +0.000 N 
ATOM     11  C   UNL     1      52.058   8.515  13.894  0.00  0.00    +0.000 C 
ATOM     12  O   UNL     1      52.706   8.258  12.884  0.00  0.00    +0.000 OA
ATOM     13  H   UNL     1      50.442   9.458  14.733  0.00  0.00    +0.000 HD
BRANCH  11  14
ATOM     14  C   UNL     1      52.539   8.142  15.231  0.00  0.00    +0.000 A 
ATOM     15  C   UNL     1      53.754   8.622  15.697  0.00  0.00    +0.000 A 
ATOM     16  S   UNL     1      54.140   8.076  17.267  0.00  0.00    +0.000 S 
ATOM     17  C   UNL     1      52.675   7.218  17.391  0.00  0.00    +0.000 A 
ATOM     18  N   UNL     1      52.354   6.540  18.523  0.00  0.00    +0.000 NA
ATOM     19  C   UNL     1      51.197   5.962  18.493  0.00  0.00    +0.000 A 
ATOM     20  N   UNL     1      50.321   5.982  17.428  0.00  0.00    +0.000 N 
ATOM     21  C   UNL     1      49.053   5.284  17.496  0.00  0.00    +0.000 C 
ATOM     22  C   UNL     1      50.637   6.627  16.237  0.00  0.00    +0.000 A 
ATOM     23  O   UNL     1      49.909   6.586  15.248  0.00  0.00    +0.000 OA
ATOM     24  C   UNL     1      51.916   7.319  16.243  0.00  0.00    +0.000 A 
ENDBRANCH  11  14
ENDBRANCH   9  10
ENDBRANCH   1   9
BRANCH   4  25
ATOM     25  C   UNL     1      44.910   7.476  11.713  0.00  0.00    +0.000 C 
BRANCH  25  26
ATOM     26  N   UNL     1      44.965   6.146  11.175  0.00  0.00    +0.000 N 
ATOM     27  C   UNL     1      43.812   5.465  10.855  0.00  0.00    +0.000 C 
ATOM     28  O   UNL     1      42.686   5.923  11.022  0.00  0.00    +0.000 OA
ATOM     29  H   UNL     1      45.845   5.695  10.945  0.00  0.00    +0.000 HD
BRANCH  27  30
ATOM     30  C   UNL     1      44.060   4.137  10.293  0.00  0.00    +0.000 A 
ATOM     31  C   UNL     1      43.947   2.926  10.950  0.00  0.00    +0.000 A 
ATOM     32  N   UNL     1      44.287   1.976  10.031  0.00  0.00    +0.000 N 
ATOM     33  C   UNL     1      44.588   2.620   8.864  0.00  0.00    +0.000 A 
ATOM     34  N   UNL     1      44.459   3.922   8.981  0.00  0.00    +0.000 NA
ATOM     35  H   UNL     1      44.313   0.976  10.181  0.00  0.00    +0.000 HD
ENDBRANCH  27  30
ENDBRANCH  25  26
ENDBRANCH   4  25
TORSDOF 6
ENDMDL
MODEL 7
REMARK VINA RESULT:    -5.671      2.656      9.739
REMARK INTER + INTRA:          -8.790
REMARK INTER:                  -7.468
REMARK INTRA:                  -1.322
REMARK UNBOUND:                -1.131
REMARK  Name = 
REMARK  8 active torsions:
REMARK  status: ('A' for Active; 'I' for Inactive)
REMARK    1  A    between atoms: C_1  and  C_2
REMARK    2  A    between atoms: C_2  and  N_3
REMARK    3  A    between atoms: C_2  and  C_17
REMARK    4  A    between atoms: C_4  and  C_6
REMARK    5  A    between atoms: N_12  and  C_13
REMARK    6  A    between atoms: C_20  and  C_21
REMARK    7  A    between atoms: C_21  and  N_22
REMARK    8  A    between atoms: C_23  and  C_25
REMARK                            x       y       z     vdW  Elec       q    Type
REMARK                         _______ _______ _______ _____ _____    ______ ____
ROOT
ATOM      1  C   UNL     1      48.377   7.985  13.197  0.00  0.00    +0.000 A 
ATOM      2  C   UNL     1      49.705   7.657  13.520  0.00  0.00    +0.000 A 
ATOM      3  C   UNL     1      50.199   7.859  14.815  0.00  0.00    +0.000 A 
ATOM      4  C   UNL     1      49.379   8.398  15.817  0.00  0.00    +0.000 A 
ATOM      5  C   UNL     1      48.046   8.687  15.507  0.00  0.00    +0.000 A 
ATOM      6  C   UNL     1      47.560   8.486  14.217  0.00  0.00    +0.000 A 
ATOM      7  F   UNL     1      46.283   8.802  13.962  0.00  0.00    +0.000 F 
ENDROOT
BRANCH   1   9
ATOM      8  C   UNL     1      48.933   7.683  10.757  0.00  0.00    +0.000 C 
ATOM      9  C   UNL     1      47.814   7.806  11.799  0.00  0.00    +0.000 C 
BRANCH   9  10
ATOM     10  N   UNL     1      46.956   6.637  11.765  0.00  0.00    +0.000 N 
ATOM     11  C   UNL     1      45.612   6.694  11.503  0.00  0.00    +0.000 C 
ATOM     12  O   UNL     1      44.991   7.750  11.422  0.00  0.00    +0.000 OA
ATOM     13  H   UNL     1      47.427   5.750  11.645  0.00  0.00    +0.000 HD
BRANCH  11  14
ATOM     14  C   UNL     1      44.942   5.395  11.368  0.00  0.00    +0.000 A 
ATOM     15  C   UNL     1      44.104   4.931  12.371  0.00  0.00    +0.000 A 
ATOM     16  S   UNL     1      43.423   3.404  12.032  0.00  0.00    +0.000 S 
ATOM     17  C   UNL     1      44.190   3.334  10.515  0.00  0.00    +0.000 A 
ATOM     18  N   UNL     1      43.998   2.281   9.680  0.00  0.00    +0.000 NA
ATOM     19  C   UNL     1      44.614   2.374   8.547  0.00  0.00    +0.000 A 
ATOM     20  N   UNL     1      45.426   3.421   8.162  0.00  0.00    +0.000 N 
ATOM     21  C   UNL     1      46.083   3.414   6.870  0.00  0.00    +0.000 C 
ATOM     22  C   UNL     1      45.683   4.492   9.009  0.00  0.00    +0.000 A 
ATOM     23  O   UNL     1      46.467   5.392   8.720  0.00  0.00    +0.000 OA
ATOM     24  C   UNL     1      44.979   4.443  10.282  0.00  0.00    +0.000 A 
ENDBRANCH  11  14
ENDBRANCH   9  10
ENDBRANCH   1   9
BRANCH   4  25
ATOM     25  C   UNL     1      49.921   8.680  17.192  0.00  0.00    +0.000 C 
BRANCH  25  26
ATOM     26  N   UNL     1      49.300   7.881  18.210  0.00  0.00    +0.000 N 
ATOM     27  C   UNL     1      49.792   6.634  18.527  0.00  0.00    +0.000 C 
ATOM     28  O   UNL     1      50.754   6.121  17.964  0.00  0.00    +0.000 OA
ATOM     29  H   UNL     1      48.534   8.231  18.776  0.00  0.00    +0.000 HD
BRANCH  27  30
ATOM     30  C   UNL     1      49.052   5.977  19.605  0.00  0.00    +0.000 A 
ATOM     31  C   UNL     1      47.855   6.390  20.158  0.00  0.00    +0.000 A 
ATOM     32  N   UNL     1      47.564   5.475  21.130  0.00  0.00    +0.000 N 
ATOM     33  C   UNL     1      48.570   4.549  21.139  0.00  0.00    +0.000 A 
ATOM     34  N   UNL     1      49.482   4.815  20.232  0.00  0.00    +0.000 NA
ATOM     35  H   UNL     1      46.754   5.478  21.735  0.00  0.00    +0.000 HD
ENDBRANCH  27  30
ENDBRANCH  25  26
ENDBRANCH   4  25
TORSDOF 6
ENDMDL
MODEL 8
REMARK VINA RESULT:    -5.222     10.324     11.498
REMARK INTER + INTRA:          -8.185
REMARK INTER:                  -6.783
REMARK INTRA:                  -1.402
REMARK UNBOUND:                -1.131
REMARK  Name = 
REMARK  8 active torsions:
REMARK  status: ('A' for Active; 'I' for Inactive)
REMARK    1  A    between atoms: C_1  and  C_2
REMARK    2  A    between atoms: C_2  and  N_3
REMARK    3  A    between atoms: C_2  and  C_17
REMARK    4  A    between atoms: C_4  and  C_6
REMARK    5  A    between atoms: N_12  and  C_13
REMARK    6  A    between atoms: C_20  and  C_21
REMARK    7  A    between atoms: C_21  and  N_22
REMARK    8  A    between atoms: C_23  and  C_25
REMARK                            x       y       z     vdW  Elec       q    Type
REMARK                         _______ _______ _______ _____ _____    ______ ____
ROOT
ATOM      1  C   UNL     1      40.329  -3.221  18.048  0.00  0.00    +0.000 A 
ATOM      2  C   UNL     1      41.621  -3.655  17.705  0.00  0.00    +0.000 A 
ATOM      3  C   UNL     1      41.896  -4.150  16.425  0.00  0.00    +0.000 A 
ATOM      4  C   UNL     1      40.886  -4.228  15.456  0.00  0.00    +0.000 A 
ATOM      5  C   UNL     1      39.608  -3.758  15.782  0.00  0.00    +0.000 A 
ATOM      6  C   UNL     1      39.340  -3.268  17.059  0.00  0.00    +0.000 A 
ATOM      7  F   UNL     1      38.096  -2.853  17.332  0.00  0.00    +0.000 F 
ENDROOT
BRANCH   1   9
ATOM      8  C   UNL     1      41.075  -3.071  20.451  0.00  0.00    +0.000 C 
ATOM      9  C   UNL     1      39.988  -2.704  19.432  0.00  0.00    +0.000 C 
BRANCH   9  10
ATOM     10  N   UNL     1      39.800  -1.266  19.384  0.00  0.00    +0.000 N 
ATOM     11  C   UNL     1      38.972  -0.584  20.236  0.00  0.00    +0.000 C 
ATOM     12  O   UNL     1      38.205  -1.143  21.014  0.00  0.00    +0.000 OA
ATOM     13  H   UNL     1      40.522  -0.745  18.902  0.00  0.00    +0.000 HD
BRANCH  11  14
ATOM     14  C   UNL     1      39.026   0.880  20.127  0.00  0.00    +0.000 A 
ATOM     15  C   UNL     1      39.629   1.634  21.123  0.00  0.00    +0.000 A 
ATOM     16  S   UNL     1      39.590   3.312  20.819  0.00  0.00    +0.000 S 
ATOM     17  C   UNL     1      38.805   3.082  19.326  0.00  0.00    +0.000 A 
ATOM     18  N   UNL     1      38.503   4.134  18.523  0.00  0.00    +0.000 NA
ATOM     19  C   UNL     1      37.940   3.812  17.405  0.00  0.00    +0.000 A 
ATOM     20  N   UNL     1      37.631   2.529  17.006  0.00  0.00    +0.000 N 
ATOM     21  C   UNL     1      36.982   2.283  15.734  0.00  0.00    +0.000 C 
ATOM     22  C   UNL     1      37.883   1.432  17.822  0.00  0.00    +0.000 A 
ATOM     23  O   UNL     1      37.540   0.291  17.523  0.00  0.00    +0.000 OA
ATOM     24  C   UNL     1      38.549   1.749  19.076  0.00  0.00    +0.000 A 
ENDBRANCH  11  14
ENDBRANCH   9  10
ENDBRANCH   1   9
BRANCH   4  25
ATOM     25  C   UNL     1      41.156  -4.820  14.100  0.00  0.00    +0.000 C 
BRANCH  25  26
ATOM     26  N   UNL     1      40.316  -4.270  13.074  0.00  0.00    +0.000 N 
ATOM     27  C   UNL     1      40.757  -3.237  12.278  0.00  0.00    +0.000 C 
ATOM     28  O   UNL     1      41.860  -2.712  12.398  0.00  0.00    +0.000 OA
ATOM     29  H   UNL     1      39.408  -4.667  12.852  0.00  0.00    +0.000 HD
BRANCH  27  30
ATOM     30  C   UNL     1      39.780  -2.824  11.270  0.00  0.00    +0.000 A 
ATOM     31  C   UNL     1      39.511  -3.457  10.071  0.00  0.00    +0.000 A 
ATOM     32  N   UNL     1      38.542  -2.706   9.469  0.00  0.00    +0.000 N 
ATOM     33  C   UNL     1      38.253  -1.661  10.301  0.00  0.00    +0.000 A 
ATOM     34  N   UNL     1      38.974  -1.700  11.398  0.00  0.00    +0.000 NA
ATOM     35  H   UNL     1      38.114  -2.886   8.570  0.00  0.00    +0.000 HD
ENDBRANCH  27  30
ENDBRANCH  25  26
ENDBRANCH   4  25
TORSDOF 6
ENDMDL
MODEL 9
REMARK VINA RESULT:    -5.202      4.395      5.525
REMARK INTER + INTRA:          -8.158
REMARK INTER:                  -7.439
REMARK INTRA:                  -0.719
REMARK UNBOUND:                -1.131
REMARK  Name = 
REMARK  8 active torsions:
REMARK  status: ('A' for Active; 'I' for Inactive)
REMARK    1  A    between atoms: C_1  and  C_2
REMARK    2  A    between atoms: C_2  and  N_3
REMARK    3  A    between atoms: C_2  and  C_17
REMARK    4  A    between atoms: C_4  and  C_6
REMARK    5  A    between atoms: N_12  and  C_13
REMARK    6  A    between atoms: C_20  and  C_21
REMARK    7  A    between atoms: C_21  and  N_22
REMARK    8  A    between atoms: C_23  and  C_25
REMARK                            x       y       z     vdW  Elec       q    Type
REMARK                         _______ _______ _______ _____ _____    ______ ____
ROOT
ATOM      1  C   UNL     1      48.704   8.529  12.566  0.00  0.00    +0.000 A 
ATOM      2  C   UNL     1      49.519   7.401  12.364  0.00  0.00    +0.000 A 
ATOM      3  C   UNL     1      50.690   7.490  11.602  0.00  0.00    +0.000 A 
ATOM      4  C   UNL     1      51.074   8.706  11.020  0.00  0.00    +0.000 A 
ATOM      5  C   UNL     1      50.286   9.839  11.254  0.00  0.00    +0.000 A 
ATOM      6  C   UNL     1      49.121   9.744  12.011  0.00  0.00    +0.000 A 
ATOM      7  F   UNL     1      48.385  10.850  12.187  0.00  0.00    +0.000 F 
ENDROOT
BRANCH   1   9
ATOM      8  C   UNL     1      46.371   7.582  12.667  0.00  0.00    +0.000 C 
ATOM      9  C   UNL     1      47.415   8.465  13.363  0.00  0.00    +0.000 C 
BRANCH   9  10
ATOM     10  N   UNL     1      47.690   7.971  14.698  0.00  0.00    +0.000 N 
ATOM     11  C   UNL     1      48.522   8.608  15.582  0.00  0.00    +0.000 C 
ATOM     12  O   UNL     1      49.220   9.568  15.270  0.00  0.00    +0.000 OA
ATOM     13  H   UNL     1      47.023   7.306  15.068  0.00  0.00    +0.000 HD
BRANCH  11  14
ATOM     14  C   UNL     1      48.561   8.035  16.933  0.00  0.00    +0.000 A 
ATOM     15  C   UNL     1      48.598   8.864  18.045  0.00  0.00    +0.000 A 
ATOM     16  S   UNL     1      48.643   8.013  19.523  0.00  0.00    +0.000 S 
ATOM     17  C   UNL     1      48.569   6.511  18.727  0.00  0.00    +0.000 A 
ATOM     18  N   UNL     1      48.537   5.348  19.426  0.00  0.00    +0.000 NA
ATOM     19  C   UNL     1      48.447   4.284  18.696  0.00  0.00    +0.000 A 
ATOM     20  N   UNL     1      48.397   4.262  17.318  0.00  0.00    +0.000 N 
ATOM     21  C   UNL     1      48.313   3.007  16.599  0.00  0.00    +0.000 C 
ATOM     22  C   UNL     1      48.475   5.430  16.569  0.00  0.00    +0.000 A 
ATOM     23  O   UNL     1      48.517   5.428  15.341  0.00  0.00    +0.000 OA
ATOM     24  C   UNL     1      48.542   6.653  17.354  0.00  0.00    +0.000 A 
ENDBRANCH  11  14
ENDBRANCH   9  10
ENDBRANCH   1   9
BRANCH   4  25
ATOM     25  C   UNL     1      52.295   8.795  10.145  0.00  0.00    +0.000 C 
BRANCH  25  26
ATOM     26  N   UNL     1      52.677   7.527   9.592  0.00  0.00    +0.000 N 
ATOM     27  C   UNL     1      52.873   7.377   8.237  0.00  0.00    +0.000 C 
ATOM     28  O   UNL     1      52.719   8.284   7.425  0.00  0.00    +0.000 OA
ATOM     29  H   UNL     1      52.886   6.725  10.179  0.00  0.00    +0.000 HD
BRANCH  27  30
ATOM     30  C   UNL     1      53.286   6.025   7.857  0.00  0.00    +0.000 A 
ATOM     31  C   UNL     1      54.196   5.222   8.519  0.00  0.00    +0.000 A 
ATOM     32  N   UNL     1      54.262   4.067   7.792  0.00  0.00    +0.000 N 
ATOM     33  C   UNL     1      53.407   4.196   6.734  0.00  0.00    +0.000 A 
ATOM     34  N   UNL     1      52.797   5.359   6.741  0.00  0.00    +0.000 NA
ATOM     35  H   UNL     1      54.838   3.261   7.996  0.00  0.00    +0.000 HD
ENDBRANCH  27  30
ENDBRANCH  25  26
ENDBRANCH   4  25
TORSDOF 6
ENDMDL
