MODEL 1
REMARK VINA RESULT:    -6.911      0.000      0.000
REMARK INTER + INTRA:         -11.108
REMARK INTER:                 -10.144
REMARK INTRA:                  -0.964
REMARK UNBOUND:                -0.964
REMARK  Name = 
REMARK  10 active torsions:
REMARK  status: ('A' for Active; 'I' for Inactive)
REMARK    1  A    between atoms: C_1  and  O_2
REMARK    2  A    between atoms: O_2  and  C_3
REMARK    3  A    between atoms: C_10  and  C_11
REMARK    4  A    between atoms: N_13  and  C_14
REMARK    5  A    between atoms: C_14  and  C_15
REMARK    6  A    between atoms: C_18  and  C_19
REMARK    7  A    between atoms: C_19  and  C_20
REMARK    8  A    between atoms: C_20  and  N_21
REMARK    9  A    between atoms: N_21  and  C_22
REMARK   10  A    between atoms: N_21  and  C_23
REMARK                            x       y       z     vdW  Elec       q    Type
REMARK                         _______ _______ _______ _____ _____    ______ ____
ROOT
ATOM      1  C   UNL     1      47.541   4.421  15.879  0.00  0.00    +0.000 A 
ATOM      2  C   UNL     1      46.855   3.882  14.783  0.00  0.00    +0.000 A 
ATOM      3  C   UNL     1      46.778   4.585  13.573  0.00  0.00    +0.000 A 
ATOM      4  C   UNL     1      47.385   5.840  13.431  0.00  0.00    +0.000 A 
ATOM      5  C   UNL     1      48.072   6.376  14.528  0.00  0.00    +0.000 A 
ATOM      6  C   UNL     1      48.153   5.672  15.736  0.00  0.00    +0.000 A 
ENDROOT
BRANCH   1   7
ATOM      7  C   UNL     1      47.672   3.646  17.162  0.00  0.00    +0.000 C 
BRANCH   7  10
ATOM      8  C   UNL     1      49.819   2.467  16.959  0.00  0.00    +0.000 C 
ATOM      9  O   UNL     1      49.347   1.701  16.124  0.00  0.00    +0.000 OA
ATOM     10  N   UNL     1      49.058   3.455  17.521  0.00  0.00    +0.000 N 
ATOM     11  H   UNL     1      49.440   4.044  18.249  0.00  0.00    +0.000 HD
BRANCH   8  19
ATOM     12  C   UNL     1      52.261   4.768  17.762  0.00  0.00    +0.000 A 
ATOM     13  N   UNL     1      53.380   5.429  18.123  0.00  0.00    +0.000 NA
ATOM     14  C   UNL     1      54.465   4.713  18.432  0.00  0.00    +0.000 A 
ATOM     15  N   UNL     1      54.576   3.388  18.425  0.00  0.00    +0.000 NA
ATOM     16  C   UNL     1      53.438   2.767  18.068  0.00  0.00    +0.000 A 
ATOM     17  S   UNL     1      53.401   1.072  17.998  0.00  0.00    +0.000 S 
ATOM     18  C   UNL     1      51.774   1.081  17.511  0.00  0.00    +0.000 A 
ATOM     19  C   UNL     1      51.225   2.352  17.392  0.00  0.00    +0.000 A 
ATOM     20  C   UNL     1      52.227   3.362  17.725  0.00  0.00    +0.000 A 
BRANCH  12  22
ATOM     21  C   UNL     1      50.809   6.438  18.512  0.00  0.00    +0.000 C 
ATOM     22  O   UNL     1      51.135   5.510  17.477  0.00  0.00    +0.000 OA
ENDBRANCH  12  22
ENDBRANCH   8  19
ENDBRANCH   7  10
ENDBRANCH   1   7
BRANCH   4  23
ATOM     23  C   UNL     1      47.350   6.581  12.106  0.00  0.00    +0.000 C 
BRANCH  23  24
ATOM     24  C   UNL     1      46.155   6.178  11.208  0.00  0.00    +0.000 C 
BRANCH  24  25
ATOM     25  N   UNL     1      44.797   6.563  11.700  0.00  0.00    +0.000 NA
ATOM     26  C   UNL     1      44.564   7.988  11.402  0.00  0.00    +0.000 C 
BRANCH  25  27
ATOM     27  C   UNL     1      43.734   5.708  11.071  0.00  0.00    +0.000 C 
ATOM     28  C   UNL     1      42.732   5.060  12.067  0.00  0.00    +0.000 C 
ATOM     29  C   UNL     1      43.325   3.884  12.843  0.00  0.00    +0.000 C 
ATOM     30  N   UNL     1      43.841   2.844  11.951  0.00  0.00    +0.000 NA
ATOM     31  C   UNL     1      44.853   3.406  11.053  0.00  0.00    +0.000 C 
ATOM     32  C   UNL     1      44.276   4.541  10.209  0.00  0.00    +0.000 C 
ATOM     33  H   UNL     1      43.073   2.468  11.393  0.00  0.00    +0.000 HD
ENDBRANCH  25  27
ENDBRANCH  24  25
ENDBRANCH  23  24
ENDBRANCH   4  23
TORSDOF 8
ENDMDL
MODEL 2
REMARK VINA RESULT:    -6.757      1.998      3.499
REMARK INTER + INTRA:         -10.881
REMARK INTER:                  -9.635
REMARK INTRA:                  -1.247
REMARK UNBOUND:                -0.964
REMARK  Name = 
REMARK  10 active torsions:
REMARK  status: ('A' for Active; 'I' for Inactive)
REMARK    1  A    between atoms: C_1  and  O_2
REMARK    2  A    between atoms: O_2  and  C_3
REMARK    3  A    between atoms: C_10  and  C_11
REMARK    4  A    between atoms: N_13  and  C_14
REMARK    5  A    between atoms: C_14  and  C_15
REMARK    6  A    between atoms: C_18  and  C_19
REMARK    7  A    between atoms: C_19  and  C_20
REMARK    8  A    between atoms: C_20  and  N_21
REMARK    9  A    between atoms: N_21  and  C_22
REMARK   10  A    between atoms: N_21  and  C_23
REMARK                            x       y       z     vdW  Elec       q    Type
REMARK                         _______ _______ _______ _____ _____    ______ ____
ROOT
ATOM      1  C   UNL     1      48.370   7.539  15.086  0.00  0.00    +0.000 A 
ATOM      2  C   UNL     1      47.778   8.544  14.310  0.00  0.00    +0.000 A 
ATOM      3  C   UNL     1      47.107   8.227  13.122  0.00  0.00    +0.000 A 
ATOM      4  C   UNL     1      47.011   6.899  12.683  0.00  0.00    +0.000 A 
ATOM      5  C   UNL     1      47.602   5.896  13.462  0.00  0.00    +0.000 A 
ATOM      6  C   UNL     1      48.270   6.212  14.651  0.00  0.00    +0.000 A 
ENDROOT
BRANCH   1   7
ATOM      7  C   UNL     1      49.044   7.870  16.390  0.00  0.00    +0.000 C 
BRANCH   7  10
ATOM      8  C   UNL     1      49.882   6.097  17.872  0.00  0.00    +0.000 C 
ATOM      9  O   UNL     1      48.920   6.237  18.623  0.00  0.00    +0.000 OA
ATOM     10  N   UNL     1      50.017   6.865  16.748  0.00  0.00    +0.000 N 
ATOM     11  H   UNL     1      50.841   6.781  16.167  0.00  0.00    +0.000 HD
BRANCH   8  19
ATOM     12  C   UNL     1      50.226   2.741  17.153  0.00  0.00    +0.000 A 
ATOM     13  N   UNL     1      50.616   1.457  17.012  0.00  0.00    +0.000 NA
ATOM     14  C   UNL     1      51.788   1.092  17.541  0.00  0.00    +0.000 A 
ATOM     15  N   UNL     1      52.638   1.865  18.209  0.00  0.00    +0.000 NA
ATOM     16  C   UNL     1      52.216   3.137  18.321  0.00  0.00    +0.000 A 
ATOM     17  S   UNL     1      53.177   4.263  19.150  0.00  0.00    +0.000 S 
ATOM     18  C   UNL     1      52.048   5.502  18.873  0.00  0.00    +0.000 A 
ATOM     19  C   UNL     1      50.929   5.098  18.153  0.00  0.00    +0.000 A 
ATOM     20  C   UNL     1      51.033   3.677  17.824  0.00  0.00    +0.000 A 
BRANCH  12  22
ATOM     21  C   UNL     1      47.918   2.945  17.450  0.00  0.00    +0.000 C 
ATOM     22  O   UNL     1      49.033   3.121  16.577  0.00  0.00    +0.000 OA
ENDBRANCH  12  22
ENDBRANCH   8  19
ENDBRANCH   7  10
ENDBRANCH   1   7
BRANCH   4  23
ATOM     23  C   UNL     1      46.240   6.544  11.424  0.00  0.00    +0.000 C 
BRANCH  23  24
ATOM     24  C   UNL     1      45.100   5.526  11.669  0.00  0.00    +0.000 C 
BRANCH  24  25
ATOM     25  N   UNL     1      45.336   4.134  11.178  0.00  0.00    +0.000 NA
ATOM     26  C   UNL     1      45.173   3.193  12.301  0.00  0.00    +0.000 C 
BRANCH  25  27
ATOM     27  C   UNL     1      44.397   3.791  10.057  0.00  0.00    +0.000 C 
ATOM     28  C   UNL     1      44.342   2.285   9.678  0.00  0.00    +0.000 C 
ATOM     29  C   UNL     1      45.568   1.813   8.896  0.00  0.00    +0.000 C 
ATOM     30  N   UNL     1      45.776   2.597   7.678  0.00  0.00    +0.000 NA
ATOM     31  C   UNL     1      45.918   4.017   8.011  0.00  0.00    +0.000 C 
ATOM     32  C   UNL     1      44.678   4.543   8.732  0.00  0.00    +0.000 C 
ATOM     33  H   UNL     1      44.973   2.479   7.060  0.00  0.00    +0.000 HD
ENDBRANCH  25  27
ENDBRANCH  24  25
ENDBRANCH  23  24
ENDBRANCH   4  23
TORSDOF 8
ENDMDL
MODEL 3
REMARK VINA RESULT:    -6.690      3.150      9.936
REMARK INTER + INTRA:         -10.782
REMARK INTER:                  -9.968
REMARK INTRA:                  -0.814
REMARK UNBOUND:                -0.964
REMARK  Name = 
REMARK  10 active torsions:
REMARK  status: ('A' for Active; 'I' for Inactive)
REMARK    1  A    between atoms: C_1  and  O_2
REMARK    2  A    between atoms: O_2  and  C_3
REMARK    3  A    between atoms: C_10  and  C_11
REMARK    4  A    between atoms: N_13  and  C_14
REMARK    5  A    between atoms: C_14  and  C_15
REMARK    6  A    between atoms: C_18  and  C_19
REMARK    7  A    between atoms: C_19  and  C_20
REMARK    8  A    between atoms: C_20  and  N_21
REMARK    9  A    between atoms: N_21  and  C_22
REMARK   10  A    between atoms: N_21  and  C_23
REMARK                            x       y       z     vdW  Elec       q    Type
REMARK                         _______ _______ _______ _____ _____    ______ ____
ROOT
ATOM      1  C   UNL     1      49.006   3.268  17.268  0.00  0.00    +0.000 A 
ATOM      2  C   UNL     1      49.681   4.446  17.610  0.00  0.00    +0.000 A 
ATOM      3  C   UNL     1      51.063   4.437  17.837  0.00  0.00    +0.000 A 
ATOM      4  C   UNL     1      51.802   3.251  17.727  0.00  0.00    +0.000 A 
ATOM      5  C   UNL     1      51.124   2.074  17.383  0.00  0.00    +0.000 A 
ATOM      6  C   UNL     1      49.743   2.084  17.152  0.00  0.00    +0.000 A 
ENDROOT
BRANCH   1   7
ATOM      7  C   UNL     1      47.531   3.284  16.970  0.00  0.00    +0.000 C 
BRANCH   7  10
ATOM      8  C   UNL     1      47.122   4.189  14.722  0.00  0.00    +0.000 C 
ATOM      9  O   UNL     1      47.358   3.096  14.213  0.00  0.00    +0.000 OA
ATOM     10  N   UNL     1      47.187   4.365  16.077  0.00  0.00    +0.000 N 
ATOM     11  H   UNL     1      47.048   5.282  16.481  0.00  0.00    +0.000 HD
BRANCH   8  19
ATOM     12  C   UNL     1      44.419   4.944  12.717  0.00  0.00    +0.000 A 
ATOM     13  N   UNL     1      43.506   5.490  11.887  0.00  0.00    +0.000 NA
ATOM     14  C   UNL     1      43.757   6.701  11.382  0.00  0.00    +0.000 A 
ATOM     15  N   UNL     1      44.831   7.453  11.605  0.00  0.00    +0.000 NA
ATOM     16  C   UNL     1      45.711   6.877  12.441  0.00  0.00    +0.000 A 
ATOM     17  S   UNL     1      47.146   7.694  12.834  0.00  0.00    +0.000 S 
ATOM     18  C   UNL     1      47.656   6.418  13.831  0.00  0.00    +0.000 A 
ATOM     19  C   UNL     1      46.764   5.354  13.892  0.00  0.00    +0.000 A 
ATOM     20  C   UNL     1      45.598   5.632  13.056  0.00  0.00    +0.000 A 
BRANCH  12  22
ATOM     21  C   UNL     1      43.539   2.815  12.325  0.00  0.00    +0.000 C 
ATOM     22  O   UNL     1      44.140   3.709  13.262  0.00  0.00    +0.000 OA
ENDBRANCH  12  22
ENDBRANCH   8  19
ENDBRANCH   7  10
ENDBRANCH   1   7
BRANCH   4  23
ATOM     23  C   UNL     1      53.308   3.245  17.920  0.00  0.00    +0.000 C 
BRANCH  23  24
ATOM     24  C   UNL     1      53.771   2.367  19.108  0.00  0.00    +0.000 C 
BRANCH  24  25
ATOM     25  N   UNL     1      54.709   1.251  18.780  0.00  0.00    +0.000 NA
ATOM     26  C   UNL     1      55.419   0.842  20.006  0.00  0.00    +0.000 C 
BRANCH  25  27
ATOM     27  C   UNL     1      53.973   0.086  18.180  0.00  0.00    +0.000 C 
ATOM     28  C   UNL     1      54.363  -1.307  18.747  0.00  0.00    +0.000 C 
ATOM     29  C   UNL     1      55.718  -1.807  18.244  0.00  0.00    +0.000 C 
ATOM     30  N   UNL     1      55.772  -1.862  16.782  0.00  0.00    +0.000 NA
ATOM     31  C   UNL     1      55.492  -0.540  16.217  0.00  0.00    +0.000 C 
ATOM     32  C   UNL     1      54.113  -0.037  16.641  0.00  0.00    +0.000 C 
ATOM     33  H   UNL     1      55.073  -2.524  16.444  0.00  0.00    +0.000 HD
ENDBRANCH  25  27
ENDBRANCH  24  25
ENDBRANCH  23  24
ENDBRANCH   4  23
TORSDOF 8
ENDMDL
MODEL 4
REMARK VINA RESULT:    -6.657      3.034      8.651
REMARK INTER + INTRA:         -10.735
REMARK INTER:                  -8.923
REMARK INTRA:                  -1.812
REMARK UNBOUND:                -0.964
REMARK  Name = 
REMARK  10 active torsions:
REMARK  status: ('A' for Active; 'I' for Inactive)
REMARK    1  A    between atoms: C_1  and  O_2
REMARK    2  A    between atoms: O_2  and  C_3
REMARK    3  A    between atoms: C_10  and  C_11
REMARK    4  A    between atoms: N_13  and  C_14
REMARK    5  A    between atoms: C_14  and  C_15
REMARK    6  A    between atoms: C_18  and  C_19
REMARK    7  A    between atoms: C_19  and  C_20
REMARK    8  A    between atoms: C_20  and  N_21
REMARK    9  A    between atoms: N_21  and  C_22
REMARK   10  A    between atoms: N_21  and  C_23
REMARK                            x       y       z     vdW  Elec       q    Type
REMARK                         _______ _______ _______ _____ _____    ______ ____
ROOT
ATOM      1  C   UNL     1      48.466   3.661  17.614  0.00  0.00    +0.000 A 
ATOM      2  C   UNL     1      48.447   4.523  18.718  0.00  0.00    +0.000 A 
ATOM      3  C   UNL     1      49.634   4.860  19.382  0.00  0.00    +0.000 A 
ATOM      4  C   UNL     1      50.866   4.344  18.957  0.00  0.00    +0.000 A 
ATOM      5  C   UNL     1      50.882   3.483  17.853  0.00  0.00    +0.000 A 
ATOM      6  C   UNL     1      49.697   3.149  17.187  0.00  0.00    +0.000 A 
ENDROOT
BRANCH   1   7
ATOM      7  C   UNL     1      47.201   3.340  16.866  0.00  0.00    +0.000 C 
BRANCH   7  10
ATOM      8  C   UNL     1      46.949   4.204  14.579  0.00  0.00    +0.000 C 
ATOM      9  O   UNL     1      47.321   3.132  14.107  0.00  0.00    +0.000 OA
ATOM     10  N   UNL     1      46.863   4.387  15.932  0.00  0.00    +0.000 N 
ATOM     11  H   UNL     1      46.610   5.291  16.310  0.00  0.00    +0.000 HD
BRANCH   8  19
ATOM     12  C   UNL     1      44.154   4.956  12.702  0.00  0.00    +0.000 A 
ATOM     13  N   UNL     1      43.211   5.492  11.899  0.00  0.00    +0.000 NA
ATOM     14  C   UNL     1      43.476   6.661  11.310  0.00  0.00    +0.000 A 
ATOM     15  N   UNL     1      44.589   7.379  11.422  0.00  0.00    +0.000 NA
ATOM     16  C   UNL     1      45.498   6.815  12.235  0.00  0.00    +0.000 A 
ATOM     17  S   UNL     1      46.984   7.593  12.490  0.00  0.00    +0.000 S 
ATOM     18  C   UNL     1      47.509   6.355  13.528  0.00  0.00    +0.000 A 
ATOM     19  C   UNL     1      46.582   5.335  13.706  0.00  0.00    +0.000 A 
ATOM     20  C   UNL     1      45.377   5.613  12.927  0.00  0.00    +0.000 A 
BRANCH  12  22
ATOM     21  C   UNL     1      43.568   2.712  12.420  0.00  0.00    +0.000 C 
ATOM     22  O   UNL     1      43.863   3.767  13.336  0.00  0.00    +0.000 OA
ENDBRANCH  12  22
ENDBRANCH   8  19
ENDBRANCH   7  10
ENDBRANCH   1   7
BRANCH   4  23
ATOM     23  C   UNL     1      52.161   4.748  19.640  0.00  0.00    +0.000 C 
BRANCH  23  24
ATOM     24  C   UNL     1      52.851   5.964  18.976  0.00  0.00    +0.000 C 
BRANCH  24  25
ATOM     25  N   UNL     1      51.987   7.155  18.715  0.00  0.00    +0.000 NA
ATOM     26  C   UNL     1      52.304   8.205  19.700  0.00  0.00    +0.000 C 
BRANCH  25  27
ATOM     27  C   UNL     1      52.181   7.665  17.315  0.00  0.00    +0.000 C 
ATOM     28  C   UNL     1      51.600   9.080  17.040  0.00  0.00    +0.000 C 
ATOM     29  C   UNL     1      50.076   9.094  16.915  0.00  0.00    +0.000 C 
ATOM     30  N   UNL     1      49.603   8.181  15.873  0.00  0.00    +0.000 NA
ATOM     31  C   UNL     1      50.065   6.818  16.150  0.00  0.00    +0.000 C 
ATOM     32  C   UNL     1      51.589   6.751  16.212  0.00  0.00    +0.000 C 
ATOM     33  H   UNL     1      49.973   8.480  14.970  0.00  0.00    +0.000 HD
ENDBRANCH  25  27
ENDBRANCH  24  25
ENDBRANCH  23  24
ENDBRANCH   4  23
TORSDOF 8
ENDMDL
MODEL 5
REMARK VINA RESULT:    -6.547      3.138      4.841
REMARK INTER + INTRA:         -10.573
REMARK INTER:                  -9.167
REMARK INTRA:                  -1.405
REMARK UNBOUND:                -0.964
REMARK  Name = 
REMARK  10 active torsions:
REMARK  status: ('A' for Active; 'I' for Inactive)
REMARK    1  A    between atoms: C_1  and  O_2
REMARK    2  A    between atoms: O_2  and  C_3
REMARK    3  A    between atoms: C_10  and  C_11
REMARK    4  A    between atoms: N_13  and  C_14
REMARK    5  A    between atoms: C_14  and  C_15
REMARK    6  A    between atoms: C_18  and  C_19
REMARK    7  A    between atoms: C_19  and  C_20
REMARK    8  A    between atoms: C_20  and  N_21
REMARK    9  A    between atoms: N_21  and  C_22
REMARK   10  A    between atoms: N_21  and  C_23
REMARK                            x       y       z     vdW  Elec       q    Type
REMARK                         _______ _______ _______ _____ _____    ______ ____
ROOT
ATOM      1  C   UNL     1      48.136   8.277  13.486  0.00  0.00    +0.000 A 
ATOM      2  C   UNL     1      46.877   8.890  13.443  0.00  0.00    +0.000 A 
ATOM      3  C   UNL     1      45.867   8.386  12.613  0.00  0.00    +0.000 A 
ATOM      4  C   UNL     1      46.091   7.260  11.809  0.00  0.00    +0.000 A 
ATOM      5  C   UNL     1      47.351   6.649  11.856  0.00  0.00    +0.000 A 
ATOM      6  C   UNL     1      48.360   7.150  12.688  0.00  0.00    +0.000 A 
ENDROOT
BRANCH   1   7
ATOM      7  C   UNL     1      49.206   8.782  14.417  0.00  0.00    +0.000 C 
BRANCH   7  10
ATOM      8  C   UNL     1      48.638   8.310  16.760  0.00  0.00    +0.000 C 
ATOM      9  O   UNL     1      47.950   9.325  16.823  0.00  0.00    +0.000 OA
ATOM     10  N   UNL     1      49.292   7.971  15.608  0.00  0.00    +0.000 N 
ATOM     11  H   UNL     1      49.901   7.163  15.584  0.00  0.00    +0.000 HD
BRANCH   8  19
ATOM     12  C   UNL     1      48.451   4.891  17.180  0.00  0.00    +0.000 A 
ATOM     13  N   UNL     1      48.436   3.617  17.624  0.00  0.00    +0.000 NA
ATOM     14  C   UNL     1      48.653   3.400  18.925  0.00  0.00    +0.000 A 
ATOM     15  N   UNL     1      48.888   4.316  19.859  0.00  0.00    +0.000 NA
ATOM     16  C   UNL     1      48.901   5.569  19.375  0.00  0.00    +0.000 A 
ATOM     17  S   UNL     1      49.179   6.868  20.432  0.00  0.00    +0.000 S 
ATOM     18  C   UNL     1      49.043   7.990  19.165  0.00  0.00    +0.000 A 
ATOM     19  C   UNL     1      48.788   7.417  17.925  0.00  0.00    +0.000 A 
ATOM     20  C   UNL     1      48.701   5.963  18.055  0.00  0.00    +0.000 A 
BRANCH  12  22
ATOM     21  C   UNL     1      47.146   4.385  15.310  0.00  0.00    +0.000 C 
ATOM     22  O   UNL     1      48.260   5.108  15.832  0.00  0.00    +0.000 OA
ENDBRANCH  12  22
ENDBRANCH   8  19
ENDBRANCH   7  10
ENDBRANCH   1   7
BRANCH   4  23
ATOM     23  C   UNL     1      44.984   6.679  10.948  0.00  0.00    +0.000 C 
BRANCH  23  24
ATOM     24  C   UNL     1      44.390   5.367  11.516  0.00  0.00    +0.000 C 
BRANCH  24  25
ATOM     25  N   UNL     1      44.981   4.094  11.001  0.00  0.00    +0.000 NA
ATOM     26  C   UNL     1      44.990   3.095  12.085  0.00  0.00    +0.000 C 
BRANCH  25  27
ATOM     27  C   UNL     1      44.213   3.584   9.814  0.00  0.00    +0.000 C 
ATOM     28  C   UNL     1      44.415   2.077   9.494  0.00  0.00    +0.000 C 
ATOM     29  C   UNL     1      45.766   1.772   8.847  0.00  0.00    +0.000 C 
ATOM     30  N   UNL     1      45.973   2.544   7.621  0.00  0.00    +0.000 NA
ATOM     31  C   UNL     1      45.874   3.978   7.907  0.00  0.00    +0.000 C 
ATOM     32  C   UNL     1      44.508   4.333   8.490  0.00  0.00    +0.000 C 
ATOM     33  H   UNL     1      45.259   2.291   6.939  0.00  0.00    +0.000 HD
ENDBRANCH  25  27
ENDBRANCH  24  25
ENDBRANCH  23  24
ENDBRANCH   4  23
TORSDOF 8
ENDMDL
MODEL 6
REMARK VINA RESULT:    -6.475      3.561      8.526
REMARK INTER + INTRA:         -10.468
REMARK INTER:                  -9.030
REMARK INTRA:                  -1.437
REMARK UNBOUND:                -0.964
REMARK  Name = 
REMARK  10 active torsions:
REMARK  status: ('A' for Active; 'I' for Inactive)
REMARK    1  A    between atoms: C_1  and  O_2
REMARK    2  A    between atoms: O_2  and  C_3
REMARK    3  A    between atoms: C_10  and  C_11
REMARK    4  A    between atoms: N_13  and  C_14
REMARK    5  A    between atoms: C_14  and  C_15
REMARK    6  A    between atoms: C_18  and  C_19
REMARK    7  A    between atoms: C_19  and  C_20
REMARK    8  A    between atoms: C_20  and  N_21
REMARK    9  A    between atoms: N_21  and  C_22
REMARK   10  A    between atoms: N_21  and  C_23
REMARK                            x       y       z     vdW  Elec       q    Type
REMARK                         _______ _______ _______ _____ _____    ______ ____
ROOT
ATOM      1  C   UNL     1      48.458   8.052  13.244  0.00  0.00    +0.000 A 
ATOM      2  C   UNL     1      49.353   7.113  13.772  0.00  0.00    +0.000 A 
ATOM      3  C   UNL     1      49.529   6.995  15.157  0.00  0.00    +0.000 A 
ATOM      4  C   UNL     1      48.815   7.812  16.044  0.00  0.00    +0.000 A 
ATOM      5  C   UNL     1      47.920   8.749  15.513  0.00  0.00    +0.000 A 
ATOM      6  C   UNL     1      47.741   8.865  14.129  0.00  0.00    +0.000 A 
ENDROOT
BRANCH   1   7
ATOM      7  C   UNL     1      48.226   8.144  11.760  0.00  0.00    +0.000 C 
BRANCH   7  10
ATOM      8  C   UNL     1      46.173   6.950  11.127  0.00  0.00    +0.000 C 
ATOM      9  O   UNL     1      45.486   7.924  11.426  0.00  0.00    +0.000 OA
ATOM     10  N   UNL     1      47.534   6.979  11.263  0.00  0.00    +0.000 N 
ATOM     11  H   UNL     1      48.085   6.153  11.067  0.00  0.00    +0.000 HD
BRANCH   8  19
ATOM     12  C   UNL     1      44.434   4.361  12.600  0.00  0.00    +0.000 A 
ATOM     13  N   UNL     1      43.742   3.244  12.903  0.00  0.00    +0.000 NA
ATOM     14  C   UNL     1      43.447   2.397  11.913  0.00  0.00    +0.000 A 
ATOM     15  N   UNL     1      43.765   2.527  10.629  0.00  0.00    +0.000 NA
ATOM     16  C   UNL     1      44.447   3.655  10.368  0.00  0.00    +0.000 A 
ATOM     17  S   UNL     1      44.941   3.981   8.778  0.00  0.00    +0.000 S 
ATOM     18  C   UNL     1      45.671   5.439   9.253  0.00  0.00    +0.000 A 
ATOM     19  C   UNL     1      45.559   5.713  10.611  0.00  0.00    +0.000 A 
ATOM     20  C   UNL     1      44.825   4.639  11.278  0.00  0.00    +0.000 A 
BRANCH  12  22
ATOM     21  C   UNL     1      46.041   5.132  14.111  0.00  0.00    +0.000 C 
ATOM     22  O   UNL     1      44.706   5.250  13.619  0.00  0.00    +0.000 OA
ENDBRANCH  12  22
ENDBRANCH   8  19
ENDBRANCH   7  10
ENDBRANCH   1   7
BRANCH   4  23
ATOM     23  C   UNL     1      48.963   7.652  17.548  0.00  0.00    +0.000 C 
BRANCH  23  24
ATOM     24  C   UNL     1      48.519   6.261  18.063  0.00  0.00    +0.000 C 
BRANCH  24  25
ATOM     25  N   UNL     1      49.525   5.161  17.951  0.00  0.00    +0.000 NA
ATOM     26  C   UNL     1      50.672   5.466  18.825  0.00  0.00    +0.000 C 
BRANCH  25  27
ATOM     27  C   UNL     1      48.917   3.836  18.315  0.00  0.00    +0.000 C 
ATOM     28  C   UNL     1      49.899   2.632  18.302  0.00  0.00    +0.000 C 
ATOM     29  C   UNL     1      50.265   2.164  16.893  0.00  0.00    +0.000 C 
ATOM     30  N   UNL     1      49.079   1.812  16.109  0.00  0.00    +0.000 NA
ATOM     31  C   UNL     1      48.169   2.958  16.030  0.00  0.00    +0.000 C 
ATOM     32  C   UNL     1      47.726   3.410  17.420  0.00  0.00    +0.000 C 
ATOM     33  H   UNL     1      48.597   1.034  16.559  0.00  0.00    +0.000 HD
ENDBRANCH  25  27
ENDBRANCH  24  25
ENDBRANCH  23  24
ENDBRANCH   4  23
TORSDOF 8
ENDMDL
MODEL 7
REMARK VINA RESULT:    -6.407      1.762      3.252
REMARK INTER + INTRA:         -10.367
REMARK INTER:                  -9.473
REMARK INTRA:                  -0.894
REMARK UNBOUND:                -0.964
REMARK  Name = 
REMARK  10 active torsions:
REMARK  status: ('A' for Active; 'I' for Inactive)
REMARK    1  A    between atoms: C_1  and  O_2
REMARK    2  A    between atoms: O_2  and  C_3
REMARK    3  A    between atoms: C_10  and  C_11
REMARK    4  A    between atoms: N_13  and  C_14
REMARK    5  A    between atoms: C_14  and  C_15
REMARK    6  A    between atoms: C_18  and  C_19
REMARK    7  A    between atoms: C_19  and  C_20
REMARK    8  A    between atoms: C_20  and  N_21
REMARK    9  A    between atoms: N_21  and  C_22
REMARK   10  A    between atoms: N_21  and  C_23
REMARK                            x       y       z     vdW  Elec       q    Type
REMARK                         _______ _______ _______ _____ _____    ______ ____
ROOT
ATOM      1  C   UNL     1      48.845   7.746  16.081  0.00  0.00    +0.000 A 
ATOM      2  C   UNL     1      48.352   8.966  15.601  0.00  0.00    +0.000 A 
ATOM      3  C   UNL     1      47.782   9.054  14.324  0.00  0.00    +0.000 A 
ATOM      4  C   UNL     1      47.692   7.925  13.499  0.00  0.00    +0.000 A 
ATOM      5  C   UNL     1      48.184   6.706  13.981  0.00  0.00    +0.000 A 
ATOM      6  C   UNL     1      48.749   6.617  15.259  0.00  0.00    +0.000 A 
ENDROOT
BRANCH   1   7
ATOM      7  C   UNL     1      49.407   7.636  17.473  0.00  0.00    +0.000 C 
BRANCH   7  10
ATOM      8  C   UNL     1      50.853   6.151  18.793  0.00  0.00    +0.000 C 
ATOM      9  O   UNL     1      50.672   6.830  19.800  0.00  0.00    +0.000 OA
ATOM     10  N   UNL     1      50.264   6.482  17.603  0.00  0.00    +0.000 N 
ATOM     11  H   UNL     1      50.465   5.948  16.767  0.00  0.00    +0.000 HD
BRANCH   8  19
ATOM     12  C   UNL     1      50.587   2.990  17.437  0.00  0.00    +0.000 A 
ATOM     13  N   UNL     1      50.742   1.711  17.037  0.00  0.00    +0.000 NA
ATOM     14  C   UNL     1      51.840   1.057  17.426  0.00  0.00    +0.000 A 
ATOM     15  N   UNL     1      52.825   1.530  18.183  0.00  0.00    +0.000 NA
ATOM     16  C   UNL     1      52.636   2.808  18.554  0.00  0.00    +0.000 A 
ATOM     17  S   UNL     1      53.795   3.572  19.530  0.00  0.00    +0.000 S 
ATOM     18  C   UNL     1      52.897   5.013  19.550  0.00  0.00    +0.000 A 
ATOM     19  C   UNL     1      51.712   4.953  18.826  0.00  0.00    +0.000 A 
ATOM     20  C   UNL     1      51.558   3.627  18.230  0.00  0.00    +0.000 A 
BRANCH  12  22
ATOM     21  C   UNL     1      48.278   2.889  17.094  0.00  0.00    +0.000 C 
ATOM     22  O   UNL     1      49.469   3.671  17.006  0.00  0.00    +0.000 OA
ENDBRANCH  12  22
ENDBRANCH   8  19
ENDBRANCH   7  10
ENDBRANCH   1   7
BRANCH   4  23
ATOM     23  C   UNL     1      47.028   8.003  12.135  0.00  0.00    +0.000 C 
BRANCH  23  24
ATOM     24  C   UNL     1      45.495   7.798  12.186  0.00  0.00    +0.000 C 
BRANCH  24  25
ATOM     25  N   UNL     1      44.992   6.453  11.770  0.00  0.00    +0.000 NA
ATOM     26  C   UNL     1      46.029   5.777  10.970  0.00  0.00    +0.000 C 
BRANCH  25  27
ATOM     27  C   UNL     1      44.620   5.623  12.966  0.00  0.00    +0.000 C 
ATOM     28  C   UNL     1      45.571   4.431  13.266  0.00  0.00    +0.000 C 
ATOM     29  C   UNL     1      45.393   3.258  12.301  0.00  0.00    +0.000 C 
ATOM     30  N   UNL     1      44.014   2.767  12.286  0.00  0.00    +0.000 NA
ATOM     31  C   UNL     1      43.097   3.851  11.922  0.00  0.00    +0.000 C 
ATOM     32  C   UNL     1      43.196   5.014  12.907  0.00  0.00    +0.000 C 
ATOM     33  H   UNL     1      43.769   2.421  13.214  0.00  0.00    +0.000 HD
ENDBRANCH  25  27
ENDBRANCH  24  25
ENDBRANCH  23  24
ENDBRANCH   4  23
TORSDOF 8
ENDMDL
MODEL 8
REMARK VINA RESULT:    -6.275      6.047      7.687
REMARK INTER + INTRA:         -10.173
REMARK INTER:                  -9.597
REMARK INTRA:                  -0.577
REMARK UNBOUND:                -0.964
REMARK  Name = 
REMARK  10 active torsions:
REMARK  status: ('A' for Active; 'I' for Inactive)
REMARK    1  A    between atoms: C_1  and  O_2
REMARK    2  A    between atoms: O_2  and  C_3
REMARK    3  A    between atoms: C_10  and  C_11
REMARK    4  A    between atoms: N_13  and  C_14
REMARK    5  A    between atoms: C_14  and  C_15
REMARK    6  A    between atoms: C_18  and  C_19
REMARK    7  A    between atoms: C_19  and  C_20
REMARK    8  A    between atoms: C_20  and  N_21
REMARK    9  A    between atoms: N_21  and  C_22
REMARK   10  A    between atoms: N_21  and  C_23
REMARK                            x       y       z     vdW  Elec       q    Type
REMARK                         _______ _______ _______ _____ _____    ______ ____
ROOT
ATOM      1  C   UNL     1      49.764   9.066  11.448  0.00  0.00    +0.000 A 
ATOM      2  C   UNL     1      48.813  10.061  11.711  0.00  0.00    +0.000 A 
ATOM      3  C   UNL     1      47.500   9.719  12.061  0.00  0.00    +0.000 A 
ATOM      4  C   UNL     1      47.108   8.376  12.156  0.00  0.00    +0.000 A 
ATOM      5  C   UNL     1      48.061   7.384  11.894  0.00  0.00    +0.000 A 
ATOM      6  C   UNL     1      49.374   7.725  11.548  0.00  0.00    +0.000 A 
ENDROOT
BRANCH   1   7
ATOM      7  C   UNL     1      51.188   9.429  11.126  0.00  0.00    +0.000 C 
BRANCH   7  10
ATOM      8  C   UNL     1      52.919   8.293   9.801  0.00  0.00    +0.000 C 
ATOM      9  O   UNL     1      53.153   9.325   9.178  0.00  0.00    +0.000 OA
ATOM     10  N   UNL     1      51.962   8.261  10.779  0.00  0.00    +0.000 N 
ATOM     11  H   UNL     1      51.737   7.392  11.246  0.00  0.00    +0.000 HD
BRANCH   8  19
ATOM     12  C   UNL     1      53.183   6.258   7.029  0.00  0.00    +0.000 A 
ATOM     13  N   UNL     1      53.464   5.305   6.116  0.00  0.00    +0.000 NA
ATOM     14  C   UNL     1      54.278   4.308   6.475  0.00  0.00    +0.000 A 
ATOM     15  N   UNL     1      54.859   4.138   7.659  0.00  0.00    +0.000 NA
ATOM     16  C   UNL     1      54.559   5.111   8.536  0.00  0.00    +0.000 A 
ATOM     17  S   UNL     1      55.210   5.051  10.102  0.00  0.00    +0.000 S 
ATOM     18  C   UNL     1      54.421   6.491  10.537  0.00  0.00    +0.000 A 
ATOM     19  C   UNL     1      53.656   7.047   9.519  0.00  0.00    +0.000 A 
ATOM     20  C   UNL     1      53.739   6.216   8.320  0.00  0.00    +0.000 A 
BRANCH  12  22
ATOM     21  C   UNL     1      53.060   8.279   5.864  0.00  0.00    +0.000 C 
ATOM     22  O   UNL     1      52.370   7.303   6.643  0.00  0.00    +0.000 OA
ENDBRANCH  12  22
ENDBRANCH   8  19
ENDBRANCH   7  10
ENDBRANCH   1   7
BRANCH   4  23
ATOM     23  C   UNL     1      45.701   8.000  12.586  0.00  0.00    +0.000 C 
BRANCH  23  24
ATOM     24  C   UNL     1      44.908   7.241  11.494  0.00  0.00    +0.000 C 
BRANCH  24  25
ATOM     25  N   UNL     1      44.893   5.750  11.602  0.00  0.00    +0.000 NA
ATOM     26  C   UNL     1      44.762   5.371  13.021  0.00  0.00    +0.000 C 
BRANCH  25  27
ATOM     27  C   UNL     1      43.774   5.162  10.791  0.00  0.00    +0.000 C 
ATOM     28  C   UNL     1      42.818   4.216  11.569  0.00  0.00    +0.000 C 
ATOM     29  C   UNL     1      43.429   2.845  11.861  0.00  0.00    +0.000 C 
ATOM     30  N   UNL     1      43.866   2.169  10.638  0.00  0.00    +0.000 NA
ATOM     31  C   UNL     1      44.836   3.001   9.921  0.00  0.00    +0.000 C 
ATOM     32  C   UNL     1      44.237   4.356   9.550  0.00  0.00    +0.000 C 
ATOM     33  H   UNL     1      43.058   2.007  10.036  0.00  0.00    +0.000 HD
ENDBRANCH  25  27
ENDBRANCH  24  25
ENDBRANCH  23  24
ENDBRANCH   4  23
TORSDOF 8
ENDMDL
MODEL 9
REMARK VINA RESULT:    -6.085      3.212      8.510
REMARK INTER + INTRA:          -9.895
REMARK INTER:                  -8.386
REMARK INTRA:                  -1.509
REMARK UNBOUND:                -0.964
REMARK  Name = 
REMARK  10 active torsions:
REMARK  status: ('A' for Active; 'I' for Inactive)
REMARK    1  A    between atoms: C_1  and  O_2
REMARK    2  A    between atoms: O_2  and  C_3
REMARK    3  A    between atoms: C_10  and  C_11
REMARK    4  A    between atoms: N_13  and  C_14
REMARK    5  A    between atoms: C_14  and  C_15
REMARK    6  A    between atoms: C_18  and  C_19
REMARK    7  A    between atoms: C_19  and  C_20
REMARK    8  A    between atoms: C_20  and  N_21
REMARK    9  A    between atoms: N_21  and  C_22
REMARK   10  A    between atoms: N_21  and  C_23
REMARK                            x       y       z     vdW  Elec       q    Type
REMARK                         _______ _______ _______ _____ _____    ______ ____
ROOT
ATOM      1  C   UNL     1      49.040   8.588  15.241  0.00  0.00    +0.000 A 
ATOM      2  C   UNL     1      50.424   8.372  15.278  0.00  0.00    +0.000 A 
ATOM      3  C   UNL     1      51.071   8.096  16.489  0.00  0.00    +0.000 A 
ATOM      4  C   UNL     1      50.351   8.030  17.690  0.00  0.00    +0.000 A 
ATOM      5  C   UNL     1      48.968   8.244  17.650  0.00  0.00    +0.000 A 
ATOM      6  C   UNL     1      48.319   8.516  16.439  0.00  0.00    +0.000 A 
ENDROOT
BRANCH   1   7
ATOM      7  C   UNL     1      48.333   8.830  13.934  0.00  0.00    +0.000 C 
BRANCH   7  10
ATOM      8  C   UNL     1      47.703   6.592  13.138  0.00  0.00    +0.000 C 
ATOM      9  O   UNL     1      48.873   6.334  12.864  0.00  0.00    +0.000 OA
ATOM     10  N   UNL     1      47.354   7.803  13.669  0.00  0.00    +0.000 N 
ATOM     11  H   UNL     1      46.381   8.026  13.838  0.00  0.00    +0.000 HD
BRANCH   8  19
ATOM     12  C   UNL     1      44.515   6.809  11.839  0.00  0.00    +0.000 A 
ATOM     13  N   UNL     1      43.262   6.606  11.383  0.00  0.00    +0.000 NA
ATOM     14  C   UNL     1      42.765   5.367  11.435  0.00  0.00    +0.000 A 
ATOM     15  N   UNL     1      43.375   4.280  11.898  0.00  0.00    +0.000 NA
ATOM     16  C   UNL     1      44.622   4.524  12.336  0.00  0.00    +0.000 A 
ATOM     17  S   UNL     1      45.547   3.249  12.967  0.00  0.00    +0.000 S 
ATOM     18  C   UNL     1      46.858   4.287  13.269  0.00  0.00    +0.000 A 
ATOM     19  C   UNL     1      46.630   5.608  12.902  0.00  0.00    +0.000 A 
ATOM     20  C   UNL     1      45.287   5.747  12.344  0.00  0.00    +0.000 A 
BRANCH  12  22
ATOM     21  C   UNL     1      44.164   8.991  11.079  0.00  0.00    +0.000 C 
ATOM     22  O   UNL     1      45.037   8.082  11.752  0.00  0.00    +0.000 OA
ENDBRANCH  12  22
ENDBRANCH   8  19
ENDBRANCH   7  10
ENDBRANCH   1   7
BRANCH   4  23
ATOM     23  C   UNL     1      51.040   7.679  18.998  0.00  0.00    +0.000 C 
BRANCH  23  24
ATOM     24  C   UNL     1      50.992   6.168  19.331  0.00  0.00    +0.000 C 
BRANCH  24  25
ATOM     25  N   UNL     1      50.300   5.292  18.336  0.00  0.00    +0.000 NA
ATOM     26  C   UNL     1      51.308   4.501  17.608  0.00  0.00    +0.000 C 
BRANCH  25  27
ATOM     27  C   UNL     1      49.305   4.392  19.012  0.00  0.00    +0.000 C 
ATOM     28  C   UNL     1      48.348   3.628  18.055  0.00  0.00    +0.000 C 
ATOM     29  C   UNL     1      47.255   4.516  17.457  0.00  0.00    +0.000 C 
ATOM     30  N   UNL     1      46.457   5.173  18.494  0.00  0.00    +0.000 NA
ATOM     31  C   UNL     1      47.323   5.973  19.365  0.00  0.00    +0.000 C 
ATOM     32  C   UNL     1      48.386   5.106  20.036  0.00  0.00    +0.000 C 
ATOM     33  H   UNL     1      45.984   4.464  19.055  0.00  0.00    +0.000 HD
ENDBRANCH  25  27
ENDBRANCH  24  25
ENDBRANCH  23  24
ENDBRANCH   4  23
TORSDOF 8
ENDMDL
