MODEL 1
REMARK VINA RESULT:    -8.517      0.000      0.000
REMARK INTER + INTRA:         -10.183
REMARK INTER:                 -10.011
REMARK INTRA:                  -0.172
REMARK UNBOUND:                -0.172
REMARK  Name = 
REMARK  3 active torsions:
REMARK  status: ('A' for Active; 'I' for Inactive)
REMARK    1  A    between atoms: C_2  and  C_4
REMARK    2  A    between atoms: C_7  and  C_8
REMARK    3  A    between atoms: C_8  and  C_9
REMARK                            x       y       z     vdW  Elec       q    Type
REMARK                         _______ _______ _______ _____ _____    ______ ____
ROOT
ATOM      1  C   UNL     1      44.506   4.400  11.169  0.00  0.00    +0.000 C 
ATOM      2  C   UNL     1      43.036   4.090  11.421  0.00  0.00    +0.000 C 
ATOM      3  C   UNL     1      43.433   5.474  11.014  0.00  0.00    +0.000 C 
ENDROOT
BRANCH   1   4
ATOM      4  C   UNL     1      45.478   4.529  12.337  0.00  0.00    +0.000 A 
ATOM      5  C   UNL     1      45.919   3.418  13.028  0.00  0.00    +0.000 A 
ATOM      6  C   UNL     1      46.942   3.623  13.914  0.00  0.00    +0.000 A 
ATOM      7  N   UNL     1      47.505   4.824  14.125  0.00  0.00    +0.000 NA
ATOM      8  C   UNL     1      47.000   5.877  13.462  0.00  0.00    +0.000 A 
ATOM      9  N   UNL     1      47.523   7.128  13.732  0.00  0.00    +0.000 N 
ATOM     10  C   UNL     1      46.883   8.298  13.119  0.00  0.00    +0.000 C 
ATOM     11  C   UNL     1      47.581   8.712  11.815  0.00  0.00    +0.000 C 
ATOM     12  O   UNL     1      48.995   8.884  12.008  0.00  0.00    +0.000 OA
ATOM     13  C   UNL     1      49.583   7.652  12.458  0.00  0.00    +0.000 C 
ATOM     14  C   UNL     1      48.988   7.206  13.807  0.00  0.00    +0.000 C 
ATOM     15  N   UNL     1      45.993   5.757  12.589  0.00  0.00    +0.000 NA
ENDBRANCH   1   4
BRANCH   1  19
ATOM     16  C   UNL     1      46.302   2.843   7.522  0.00  0.00    +0.000 A 
ATOM     17  C   UNL     1      46.280   4.223   7.756  0.00  0.00    +0.000 A 
ATOM     18  C   UNL     1      45.715   4.721   8.934  0.00  0.00    +0.000 A 
ATOM     19  C   UNL     1      45.160   3.863   9.898  0.00  0.00    +0.000 A 
ATOM     20  C   UNL     1      45.151   2.484   9.614  0.00  0.00    +0.000 A 
ATOM     21  C   UNL     1      45.713   1.977   8.443  0.00  0.00    +0.000 A 
BRANCH  16  23
ATOM     22  N   UNL     1      47.171   3.120   5.272  0.00  0.00    +0.000 N 
ATOM     23  C   UNL     1      46.939   2.263   6.313  0.00  0.00    +0.000 C 
ATOM     24  O   UNL     1      47.298   1.097   6.262  0.00  0.00    +0.000 OA
ATOM     25  H   UNL     1      47.739   2.755   4.520  0.00  0.00    +0.000 HD
ATOM     26  H   UNL     1      47.147   4.122   5.392  0.00  0.00    +0.000 HD
ENDBRANCH  16  23
ENDBRANCH   1  19
TORSDOF 3
ENDMDL
MODEL 2
REMARK VINA RESULT:    -7.172      2.046      2.641
REMARK INTER + INTRA:          -8.601
REMARK INTER:                  -8.508
REMARK INTRA:                  -0.093
REMARK UNBOUND:                -0.172
REMARK  Name = 
REMARK  3 active torsions:
REMARK  status: ('A' for Active; 'I' for Inactive)
REMARK    1  A    between atoms: C_2  and  C_4
REMARK    2  A    between atoms: C_7  and  C_8
REMARK    3  A    between atoms: C_8  and  C_9
REMARK                            x       y       z     vdW  Elec       q    Type
REMARK                         _______ _______ _______ _____ _____    ______ ____
ROOT
ATOM      1  C   UNL     1      44.472   5.109  11.088  0.00  0.00    +0.000 C 
ATOM      2  C   UNL     1      43.393   4.380  11.878  0.00  0.00    +0.000 C 
ATOM      3  C   UNL     1      43.000   5.492  10.958  0.00  0.00    +0.000 C 
ENDROOT
BRANCH   1   4
ATOM      4  C   UNL     1      45.404   6.096  11.785  0.00  0.00    +0.000 A 
ATOM      5  C   UNL     1      46.653   5.709  12.229  0.00  0.00    +0.000 A 
ATOM      6  C   UNL     1      47.483   6.714  12.647  0.00  0.00    +0.000 A 
ATOM      7  N   UNL     1      47.133   8.011  12.642  0.00  0.00    +0.000 NA
ATOM      8  C   UNL     1      45.888   8.321  12.248  0.00  0.00    +0.000 A 
ATOM      9  N   UNL     1      45.494   9.644  12.313  0.00  0.00    +0.000 N 
ATOM     10  C   UNL     1      44.094   9.972  12.020  0.00  0.00    +0.000 C 
ATOM     11  C   UNL     1      43.900  10.387  10.554  0.00  0.00    +0.000 C 
ATOM     12  O   UNL     1      44.810  11.436  10.181  0.00  0.00    +0.000 OA
ATOM     13  C   UNL     1      46.166  10.990  10.344  0.00  0.00    +0.000 C 
ATOM     14  C   UNL     1      46.465  10.625  11.810  0.00  0.00    +0.000 C 
ATOM     15  N   UNL     1      45.015   7.393  11.836  0.00  0.00    +0.000 NA
ENDBRANCH   1   4
BRANCH   1  19
ATOM     16  C   UNL     1      46.268   3.048   7.701  0.00  0.00    +0.000 A 
ATOM     17  C   UNL     1      46.377   4.438   7.810  0.00  0.00    +0.000 A 
ATOM     18  C   UNL     1      45.812   5.098   8.905  0.00  0.00    +0.000 A 
ATOM     19  C   UNL     1      45.126   4.393   9.908  0.00  0.00    +0.000 A 
ATOM     20  C   UNL     1      44.988   3.002   9.748  0.00  0.00    +0.000 A 
ATOM     21  C   UNL     1      45.549   2.334   8.660  0.00  0.00    +0.000 A 
BRANCH  16  23
ATOM     22  N   UNL     1      47.164   3.003   5.445  0.00  0.00    +0.000 N 
ATOM     23  C   UNL     1      46.898   2.297   6.586  0.00  0.00    +0.000 C 
ATOM     24  O   UNL     1      47.222   1.124   6.692  0.00  0.00    +0.000 OA
ATOM     25  H   UNL     1      47.727   2.527   4.753  0.00  0.00    +0.000 HD
ATOM     26  H   UNL     1      47.169   4.012   5.433  0.00  0.00    +0.000 HD
ENDBRANCH  16  23
ENDBRANCH   1  19
TORSDOF 3
ENDMDL
MODEL 3
REMARK VINA RESULT:    -6.832      1.715      2.723
REMARK INTER + INTRA:          -8.202
REMARK INTER:                  -8.268
REMARK INTRA:                   0.067
REMARK UNBOUND:                -0.172
REMARK  Name = 
REMARK  3 active torsions:
REMARK  status: ('A' for Active; 'I' for Inactive)
REMARK    1  A    between atoms: C_2  and  C_4
REMARK    2  A    between atoms: C_7  and  C_8
REMARK    3  A    between atoms: C_8  and  C_9
REMARK                            x       y       z     vdW  Elec       q    Type
REMARK                         _______ _______ _______ _____ _____    ______ ____
ROOT
ATOM      1  C   UNL     1      44.175   5.500  11.427  0.00  0.00    +0.000 C 
ATOM      2  C   UNL     1      43.644   4.868  12.707  0.00  0.00    +0.000 C 
ATOM      3  C   UNL     1      42.676   5.367  11.682  0.00  0.00    +0.000 C 
ENDROOT
BRANCH   1   4
ATOM      4  C   UNL     1      44.778   6.902  11.451  0.00  0.00    +0.000 A 
ATOM      5  C   UNL     1      44.021   8.013  11.139  0.00  0.00    +0.000 A 
ATOM      6  C   UNL     1      44.597   9.228  11.393  0.00  0.00    +0.000 A 
ATOM      7  N   UNL     1      45.828   9.366  11.913  0.00  0.00    +0.000 NA
ATOM      8  C   UNL     1      46.537   8.251  12.147  0.00  0.00    +0.000 A 
ATOM      9  N   UNL     1      47.833   8.388  12.609  0.00  0.00    +0.000 N 
ATOM     10  C   UNL     1      48.661   7.182  12.733  0.00  0.00    +0.000 C 
ATOM     11  C   UNL     1      48.623   6.609  14.157  0.00  0.00    +0.000 C 
ATOM     12  O   UNL     1      48.946   7.611  15.135  0.00  0.00    +0.000 OA
ATOM     13  C   UNL     1      47.998   8.690  15.063  0.00  0.00    +0.000 C 
ATOM     14  C   UNL     1      48.028   9.371  13.682  0.00  0.00    +0.000 C 
ATOM     15  N   UNL     1      46.046   7.028  11.913  0.00  0.00    +0.000 NA
ENDBRANCH   1   4
BRANCH   1  19
ATOM     16  C   UNL     1      45.878   2.895   8.384  0.00  0.00    +0.000 A 
ATOM     17  C   UNL     1      45.978   4.284   8.249  0.00  0.00    +0.000 A 
ATOM     18  C   UNL     1      45.443   5.120   9.234  0.00  0.00    +0.000 A 
ATOM     19  C   UNL     1      44.796   4.595  10.366  0.00  0.00    +0.000 A 
ATOM     20  C   UNL     1      44.667   3.197  10.451  0.00  0.00    +0.000 A 
ATOM     21  C   UNL     1      45.198   2.354   9.476  0.00  0.00    +0.000 A 
BRANCH  16  23
ATOM     22  N   UNL     1      46.759   2.485   6.160  0.00  0.00    +0.000 N 
ATOM     23  C   UNL     1      46.478   1.966   7.394  0.00  0.00    +0.000 C 
ATOM     24  O   UNL     1      46.767   0.813   7.675  0.00  0.00    +0.000 OA
ATOM     25  H   UNL     1      47.304   1.893   5.547  0.00  0.00    +0.000 HD
ATOM     26  H   UNL     1      46.796   3.480   5.996  0.00  0.00    +0.000 HD
ENDBRANCH  16  23
ENDBRANCH   1  19
TORSDOF 3
ENDMDL
MODEL 4
REMARK VINA RESULT:    -6.563      4.400      6.202
REMARK INTER + INTRA:          -7.886
REMARK INTER:                  -7.759
REMARK INTRA:                  -0.127
REMARK UNBOUND:                -0.172
REMARK  Name = 
REMARK  3 active torsions:
REMARK  status: ('A' for Active; 'I' for Inactive)
REMARK    1  A    between atoms: C_2  and  C_4
REMARK    2  A    between atoms: C_7  and  C_8
REMARK    3  A    between atoms: C_8  and  C_9
REMARK                            x       y       z     vdW  Elec       q    Type
REMARK                         _______ _______ _______ _____ _____    ______ ____
ROOT
ATOM      1  C   UNL     1      48.689   7.536  12.941  0.00  0.00    +0.000 C 
ATOM      2  C   UNL     1      48.977   8.639  11.931  0.00  0.00    +0.000 C 
ATOM      3  C   UNL     1      49.616   7.298  11.752  0.00  0.00    +0.000 C 
ENDROOT
BRANCH   1   4
ATOM      4  C   UNL     1      49.315   7.581  14.332  0.00  0.00    +0.000 A 
ATOM      5  C   UNL     1      49.964   8.711  14.788  0.00  0.00    +0.000 A 
ATOM      6  C   UNL     1      50.302   8.719  16.115  0.00  0.00    +0.000 A 
ATOM      7  N   UNL     1      50.036   7.702  16.950  0.00  0.00    +0.000 NA
ATOM      8  C   UNL     1      49.449   6.608  16.438  0.00  0.00    +0.000 A 
ATOM      9  N   UNL     1      49.242   5.528  17.274  0.00  0.00    +0.000 N 
ATOM     10  C   UNL     1      48.733   4.281  16.691  0.00  0.00    +0.000 C 
ATOM     11  C   UNL     1      47.206   4.177  16.812  0.00  0.00    +0.000 C 
ATOM     12  O   UNL     1      46.772   4.378  18.168  0.00  0.00    +0.000 OA
ATOM     13  C   UNL     1      47.168   5.683  18.621  0.00  0.00    +0.000 C 
ATOM     14  C   UNL     1      48.700   5.842  18.603  0.00  0.00    +0.000 C 
ATOM     15  N   UNL     1      49.099   6.521  15.149  0.00  0.00    +0.000 NA
ENDBRANCH   1   4
BRANCH   1  19
ATOM     16  C   UNL     1      44.789   5.604  12.952  0.00  0.00    +0.000 A 
ATOM     17  C   UNL     1      44.892   6.966  12.646  0.00  0.00    +0.000 A 
ATOM     18  C   UNL     1      46.147   7.582  12.630  0.00  0.00    +0.000 A 
ATOM     19  C   UNL     1      47.319   6.863  12.919  0.00  0.00    +0.000 A 
ATOM     20  C   UNL     1      47.180   5.507  13.271  0.00  0.00    +0.000 A 
ATOM     21  C   UNL     1      45.934   4.882  13.289  0.00  0.00    +0.000 A 
BRANCH  16  23
ATOM     22  N   UNL     1      42.442   5.546  12.333  0.00  0.00    +0.000 N 
ATOM     23  C   UNL     1      43.486   4.893  12.929  0.00  0.00    +0.000 C 
ATOM     24  O   UNL     1      43.356   3.758  13.360  0.00  0.00    +0.000 OA
ATOM     25  H   UNL     1      41.605   4.997  12.186  0.00  0.00    +0.000 HD
ATOM     26  H   UNL     1      42.587   6.343  11.730  0.00  0.00    +0.000 HD
ENDBRANCH  16  23
ENDBRANCH   1  19
TORSDOF 3
ENDMDL
MODEL 5
REMARK VINA RESULT:    -6.358      3.036      4.706
REMARK INTER + INTRA:          -7.645
REMARK INTER:                  -7.471
REMARK INTRA:                  -0.174
REMARK UNBOUND:                -0.172
REMARK  Name = 
REMARK  3 active torsions:
REMARK  status: ('A' for Active; 'I' for Inactive)
REMARK    1  A    between atoms: C_2  and  C_4
REMARK    2  A    between atoms: C_7  and  C_8
REMARK    3  A    between atoms: C_8  and  C_9
REMARK                            x       y       z     vdW  Elec       q    Type
REMARK                         _______ _______ _______ _____ _____    ______ ____
ROOT
ATOM      1  C   UNL     1      46.427   7.860  12.398  0.00  0.00    +0.000 C 
ATOM      2  C   UNL     1      45.644   8.883  13.210  0.00  0.00    +0.000 C 
ATOM      3  C   UNL     1      45.882   9.133  11.755  0.00  0.00    +0.000 C 
ENDROOT
BRANCH   1   4
ATOM      4  C   UNL     1      47.939   7.738  12.562  0.00  0.00    +0.000 A 
ATOM      5  C   UNL     1      48.801   8.104  11.548  0.00  0.00    +0.000 A 
ATOM      6  C   UNL     1      50.130   8.152  11.873  0.00  0.00    +0.000 A 
ATOM      7  N   UNL     1      50.602   7.863  13.096  0.00  0.00    +0.000 NA
ATOM      8  C   UNL     1      49.721   7.463  14.028  0.00  0.00    +0.000 A 
ATOM      9  N   UNL     1      50.208   7.090  15.266  0.00  0.00    +0.000 N 
ATOM     10  C   UNL     1      49.271   6.519  16.241  0.00  0.00    +0.000 C 
ATOM     11  C   UNL     1      48.729   7.586  17.204  0.00  0.00    +0.000 C 
ATOM     12  O   UNL     1      49.795   8.327  17.821  0.00  0.00    +0.000 OA
ATOM     13  C   UNL     1      50.578   8.990  16.815  0.00  0.00    +0.000 C 
ATOM     14  C   UNL     1      51.223   7.978  15.848  0.00  0.00    +0.000 C 
ATOM     15  N   UNL     1      48.408   7.380  13.783  0.00  0.00    +0.000 NA
ENDBRANCH   1   4
BRANCH   1  19
ATOM     16  C   UNL     1      44.568   4.065  11.352  0.00  0.00    +0.000 A 
ATOM     17  C   UNL     1      44.589   4.489  12.686  0.00  0.00    +0.000 A 
ATOM     18  C   UNL     1      45.174   5.714  13.019  0.00  0.00    +0.000 A 
ATOM     19  C   UNL     1      45.751   6.539  12.039  0.00  0.00    +0.000 A 
ATOM     20  C   UNL     1      45.761   6.066  10.713  0.00  0.00    +0.000 A 
ATOM     21  C   UNL     1      45.178   4.846  10.370  0.00  0.00    +0.000 A 
BRANCH  16  23
ATOM     22  N   UNL     1      44.460   2.142   9.875  0.00  0.00    +0.000 N 
ATOM     23  C   UNL     1      43.911   2.799  10.942  0.00  0.00    +0.000 C 
ATOM     24  O   UNL     1      42.966   2.328  11.555  0.00  0.00    +0.000 OA
ATOM     25  H   UNL     1      44.104   1.212   9.700  0.00  0.00    +0.000 HD
ATOM     26  H   UNL     1      45.388   2.354   9.539  0.00  0.00    +0.000 HD
ENDBRANCH  16  23
ENDBRANCH   1  19
TORSDOF 3
ENDMDL
MODEL 6
REMARK VINA RESULT:    -6.190      4.648      7.721
REMARK INTER + INTRA:          -7.448
REMARK INTER:                  -7.212
REMARK INTRA:                  -0.236
REMARK UNBOUND:                -0.172
REMARK  Name = 
REMARK  3 active torsions:
REMARK  status: ('A' for Active; 'I' for Inactive)
REMARK    1  A    between atoms: C_2  and  C_4
REMARK    2  A    between atoms: C_7  and  C_8
REMARK    3  A    between atoms: C_8  and  C_9
REMARK                            x       y       z     vdW  Elec       q    Type
REMARK                         _______ _______ _______ _____ _____    ______ ____
ROOT
ATOM      1  C   UNL     1      48.413   5.050  17.105  0.00  0.00    +0.000 C 
ATOM      2  C   UNL     1      48.336   6.283  17.996  0.00  0.00    +0.000 C 
ATOM      3  C   UNL     1      47.364   5.166  18.208  0.00  0.00    +0.000 C 
ENDROOT
BRANCH   1   4
ATOM      4  C   UNL     1      47.933   5.113  15.658  0.00  0.00    +0.000 A 
ATOM      5  C   UNL     1      46.872   4.345  15.222  0.00  0.00    +0.000 A 
ATOM      6  C   UNL     1      46.393   4.631  13.972  0.00  0.00    +0.000 A 
ATOM      7  N   UNL     1      46.905   5.593  13.187  0.00  0.00    +0.000 NA
ATOM      8  C   UNL     1      47.969   6.272  13.645  0.00  0.00    +0.000 A 
ATOM      9  N   UNL     1      48.549   7.212  12.813  0.00  0.00    +0.000 N 
ATOM     10  C   UNL     1      49.793   7.856  13.248  0.00  0.00    +0.000 C 
ATOM     11  C   UNL     1      49.527   9.200  13.941  0.00  0.00    +0.000 C 
ATOM     12  O   UNL     1      48.708  10.058  13.129  0.00  0.00    +0.000 OA
ATOM     13  C   UNL     1      47.442   9.428  12.873  0.00  0.00    +0.000 C 
ATOM     14  C   UNL     1      47.617   8.103  12.108  0.00  0.00    +0.000 C 
ATOM     15  N   UNL     1      48.501   6.043  14.851  0.00  0.00    +0.000 NA
ENDBRANCH   1   4
BRANCH   1  19
ATOM     16  C   UNL     1      51.676   2.220  17.637  0.00  0.00    +0.000 A 
ATOM     17  C   UNL     1      51.906   3.590  17.804  0.00  0.00    +0.000 A 
ATOM     18  C   UNL     1      50.854   4.497  17.646  0.00  0.00    +0.000 A 
ATOM     19  C   UNL     1      49.559   4.064  17.317  0.00  0.00    +0.000 A 
ATOM     20  C   UNL     1      49.367   2.686  17.106  0.00  0.00    +0.000 A 
ATOM     21  C   UNL     1      50.409   1.772  17.262  0.00  0.00    +0.000 A 
BRANCH  16  23
ATOM     22  N   UNL     1      52.355  -0.011  18.312  0.00  0.00    +0.000 N 
ATOM     23  C   UNL     1      52.748   1.214  17.847  0.00  0.00    +0.000 C 
ATOM     24  O   UNL     1      53.915   1.436  17.564  0.00  0.00    +0.000 OA
ATOM     25  H   UNL     1      53.063  -0.732  18.307  0.00  0.00    +0.000 HD
ATOM     26  H   UNL     1      51.390  -0.307  18.283  0.00  0.00    +0.000 HD
ENDBRANCH  16  23
ENDBRANCH   1  19
TORSDOF 3
ENDMDL
MODEL 7
REMARK VINA RESULT:    -5.984      1.882      2.862
REMARK INTER + INTRA:          -7.205
REMARK INTER:                  -7.018
REMARK INTRA:                  -0.187
REMARK UNBOUND:                -0.172
REMARK  Name = 
REMARK  3 active torsions:
REMARK  status: ('A' for Active; 'I' for Inactive)
REMARK    1  A    between atoms: C_2  and  C_4
REMARK    2  A    between atoms: C_7  and  C_8
REMARK    3  A    between atoms: C_8  and  C_9
REMARK                            x       y       z     vdW  Elec       q    Type
REMARK                         _______ _______ _______ _____ _____    ______ ____
ROOT
ATOM      1  C   UNL     1      44.336   4.822  11.103  0.00  0.00    +0.000 C 
ATOM      2  C   UNL     1      43.229   4.092  11.853  0.00  0.00    +0.000 C 
ATOM      3  C   UNL     1      42.871   5.217  10.934  0.00  0.00    +0.000 C 
ENDROOT
BRANCH   1   4
ATOM      4  C   UNL     1      45.254   5.795  11.837  0.00  0.00    +0.000 A 
ATOM      5  C   UNL     1      45.027   7.156  11.804  0.00  0.00    +0.000 A 
ATOM      6  C   UNL     1      45.779   7.915  12.660  0.00  0.00    +0.000 A 
ATOM      7  N   UNL     1      46.696   7.397  13.494  0.00  0.00    +0.000 NA
ATOM      8  C   UNL     1      46.909   6.073  13.444  0.00  0.00    +0.000 A 
ATOM      9  N   UNL     1      47.904   5.543  14.243  0.00  0.00    +0.000 N 
ATOM     10  C   UNL     1      48.239   4.122  14.091  0.00  0.00    +0.000 C 
ATOM     11  C   UNL     1      47.491   3.248  15.108  0.00  0.00    +0.000 C 
ATOM     12  O   UNL     1      47.678   3.726  16.451  0.00  0.00    +0.000 OA
ATOM     13  C   UNL     1      47.183   5.070  16.566  0.00  0.00    +0.000 C 
ATOM     14  C   UNL     1      47.939   6.030  15.629  0.00  0.00    +0.000 C 
ATOM     15  N   UNL     1      46.222   5.267  12.626  0.00  0.00    +0.000 NA
ENDBRANCH   1   4
BRANCH   1  19
ATOM     16  C   UNL     1      46.215   2.780   7.750  0.00  0.00    +0.000 A 
ATOM     17  C   UNL     1      46.274   4.175   7.839  0.00  0.00    +0.000 A 
ATOM     18  C   UNL     1      45.682   4.829   8.924  0.00  0.00    +0.000 A 
ATOM     19  C   UNL     1      45.019   4.114   9.935  0.00  0.00    +0.000 A 
ATOM     20  C   UNL     1      44.932   2.716   9.795  0.00  0.00    +0.000 A 
ATOM     21  C   UNL     1      45.520   2.054   8.717  0.00  0.00    +0.000 A 
BRANCH  16  23
ATOM     22  N   UNL     1      47.296   2.776   5.576  0.00  0.00    +0.000 N 
ATOM     23  C   UNL     1      46.875   2.036   6.647  0.00  0.00    +0.000 C 
ATOM     24  O   UNL     1      47.092   0.836   6.709  0.00  0.00    +0.000 OA
ATOM     25  H   UNL     1      47.876   2.290   4.906  0.00  0.00    +0.000 HD
ATOM     26  H   UNL     1      47.385   3.780   5.625  0.00  0.00    +0.000 HD
ENDBRANCH  16  23
ENDBRANCH   1  19
TORSDOF 3
ENDMDL
MODEL 8
REMARK VINA RESULT:    -5.725      3.296      6.751
REMARK INTER + INTRA:          -6.900
REMARK INTER:                  -6.683
REMARK INTRA:                  -0.218
REMARK UNBOUND:                -0.172
REMARK  Name = 
REMARK  3 active torsions:
REMARK  status: ('A' for Active; 'I' for Inactive)
REMARK    1  A    between atoms: C_2  and  C_4
REMARK    2  A    between atoms: C_7  and  C_8
REMARK    3  A    between atoms: C_8  and  C_9
REMARK                            x       y       z     vdW  Elec       q    Type
REMARK                         _______ _______ _______ _____ _____    ______ ____
ROOT
ATOM      1  C   UNL     1      47.971   7.950  13.040  0.00  0.00    +0.000 C 
ATOM      2  C   UNL     1      47.026   8.941  12.374  0.00  0.00    +0.000 C 
ATOM      3  C   UNL     1      47.375   9.121  13.817  0.00  0.00    +0.000 C 
ENDROOT
BRANCH   1   4
ATOM      4  C   UNL     1      47.493   6.545  13.394  0.00  0.00    +0.000 A 
ATOM      5  C   UNL     1      47.910   5.917  14.550  0.00  0.00    +0.000 A 
ATOM      6  C   UNL     1      47.263   4.755  14.873  0.00  0.00    +0.000 A 
ATOM      7  N   UNL     1      46.278   4.227  14.129  0.00  0.00    +0.000 NA
ATOM      8  C   UNL     1      45.951   4.855  12.988  0.00  0.00    +0.000 A 
ATOM      9  N   UNL     1      44.992   4.277  12.178  0.00  0.00    +0.000 N 
ATOM     10  C   UNL     1      44.730   4.880  10.866  0.00  0.00    +0.000 C 
ATOM     11  C   UNL     1      43.548   5.858  10.914  0.00  0.00    +0.000 C 
ATOM     12  O   UNL     1      42.382   5.244  11.489  0.00  0.00    +0.000 OA
ATOM     13  C   UNL     1      42.664   4.819  12.832  0.00  0.00    +0.000 C 
ATOM     14  C   UNL     1      43.794   3.774  12.865  0.00  0.00    +0.000 C 
ATOM     15  N   UNL     1      46.546   5.989  12.599  0.00  0.00    +0.000 NA
ENDBRANCH   1   4
BRANCH   1  19
ATOM     16  C   UNL     1      52.194   8.181  12.008  0.00  0.00    +0.000 A 
ATOM     17  C   UNL     1      51.775   8.487  13.308  0.00  0.00    +0.000 A 
ATOM     18  C   UNL     1      50.420   8.399  13.642  0.00  0.00    +0.000 A 
ATOM     19  C   UNL     1      49.457   8.011  12.695  0.00  0.00    +0.000 A 
ATOM     20  C   UNL     1      49.900   7.758  11.383  0.00  0.00    +0.000 A 
ATOM     21  C   UNL     1      51.249   7.841  11.040  0.00  0.00    +0.000 A 
BRANCH  16  23
ATOM     22  N   UNL     1      54.421   7.226  12.148  0.00  0.00    +0.000 N 
ATOM     23  C   UNL     1      53.627   8.206  11.620  0.00  0.00    +0.000 C 
ATOM     24  O   UNL     1      54.071   9.018  10.823  0.00  0.00    +0.000 OA
ATOM     25  H   UNL     1      55.353   7.159  11.762  0.00  0.00    +0.000 HD
ATOM     26  H   UNL     1      54.033   6.396  12.570  0.00  0.00    +0.000 HD
ENDBRANCH  16  23
ENDBRANCH   1  19
TORSDOF 3
ENDMDL
MODEL 9
REMARK VINA RESULT:    -5.710      3.295      8.234
REMARK INTER + INTRA:          -6.883
REMARK INTER:                  -6.704
REMARK INTRA:                  -0.179
REMARK UNBOUND:                -0.172
REMARK  Name = 
REMARK  3 active torsions:
REMARK  status: ('A' for Active; 'I' for Inactive)
REMARK    1  A    between atoms: C_2  and  C_4
REMARK    2  A    between atoms: C_7  and  C_8
REMARK    3  A    between atoms: C_8  and  C_9
REMARK                            x       y       z     vdW  Elec       q    Type
REMARK                         _______ _______ _______ _____ _____    ______ ____
ROOT
ATOM      1  C   UNL     1      48.149   7.786  13.143  0.00  0.00    +0.000 C 
ATOM      2  C   UNL     1      49.155   6.989  12.322  0.00  0.00    +0.000 C 
ATOM      3  C   UNL     1      49.204   8.484  12.289  0.00  0.00    +0.000 C 
ENDROOT
BRANCH   1   4
ATOM      4  C   UNL     1      46.693   7.883  12.696  0.00  0.00    +0.000 A 
ATOM      5  C   UNL     1      46.192   9.044  12.141  0.00  0.00    +0.000 A 
ATOM      6  C   UNL     1      44.943   8.957  11.586  0.00  0.00    +0.000 A 
ATOM      7  N   UNL     1      44.220   7.826  11.569  0.00  0.00    +0.000 NA
ATOM      8  C   UNL     1      44.738   6.743  12.170  0.00  0.00    +0.000 A 
ATOM      9  N   UNL     1      43.968   5.597  12.224  0.00  0.00    +0.000 N 
ATOM     10  C   UNL     1      44.468   4.456  12.999  0.00  0.00    +0.000 C 
ATOM     11  C   UNL     1      45.216   3.448  12.114  0.00  0.00    +0.000 C 
ATOM     12  O   UNL     1      44.421   3.051  10.984  0.00  0.00    +0.000 OA
ATOM     13  C   UNL     1      44.101   4.199  10.181  0.00  0.00    +0.000 C 
ATOM     14  C   UNL     1      43.280   5.230  10.979  0.00  0.00    +0.000 C 
ATOM     15  N   UNL     1      45.947   6.753  12.744  0.00  0.00    +0.000 NA
ENDBRANCH   1   4
BRANCH   1  19
ATOM     16  C   UNL     1      48.703   7.914  17.458  0.00  0.00    +0.000 A 
ATOM     17  C   UNL     1      48.322   9.070  16.769  0.00  0.00    +0.000 A 
ATOM     18  C   UNL     1      48.131   9.025  15.385  0.00  0.00    +0.000 A 
ATOM     19  C   UNL     1      48.317   7.836  14.660  0.00  0.00    +0.000 A 
ATOM     20  C   UNL     1      48.749   6.701  15.371  0.00  0.00    +0.000 A 
ATOM     21  C   UNL     1      48.941   6.735  16.752  0.00  0.00    +0.000 A 
BRANCH  16  23
ATOM     22  N   UNL     1      47.786   8.299  19.672  0.00  0.00    +0.000 N 
ATOM     23  C   UNL     1      48.865   7.899  18.934  0.00  0.00    +0.000 C 
ATOM     24  O   UNL     1      49.883   7.493  19.473  0.00  0.00    +0.000 OA
ATOM     25  H   UNL     1      47.851   8.141  20.669  0.00  0.00    +0.000 HD
ATOM     26  H   UNL     1      46.861   8.364  19.272  0.00  0.00    +0.000 HD
ENDBRANCH  16  23
ENDBRANCH   1  19
TORSDOF 3
ENDMDL
