MODEL 1
REMARK VINA RESULT:    -7.752      0.000      0.000
REMARK INTER + INTRA:         -11.151
REMARK INTER:                 -10.697
REMARK INTRA:                  -0.454
REMARK UNBOUND:                -0.454
REMARK  Name = 
REMARK  10 active torsions:
REMARK  status: ('A' for Active; 'I' for Inactive)
REMARK    1  A    between atoms: C_1  and  C_2
REMARK    2  A    between atoms: C_2  and  C_3
REMARK    3  A    between atoms: C_2  and  C_4
REMARK    4  A    between atoms: C_2  and  C_15
REMARK    5  A    between atoms: C_4  and  N_5
REMARK    6  A    between atoms: C_10  and  C_11
REMARK    7  A    between atoms: C_19  and  O_20
REMARK    8  A    between atoms: O_20  and  C_21
REMARK    9  A    between atoms: C_23  and  C_24
REMARK   10  A    between atoms: C_23  and  O_25
REMARK                            x       y       z     vdW  Elec       q    Type
REMARK                         _______ _______ _______ _____ _____    ______ ____
ROOT
ATOM      1  C   UNL     1      45.592   7.959  12.890  0.00  0.00    +0.000 C 
ATOM      2  C   UNL     1      46.267   6.590  12.627  0.00  0.00    +0.000 C 
ATOM      3  C   UNL     1      47.419   6.810  11.616  0.00  0.00    +0.000 C 
ENDROOT
BRANCH   2   4
ATOM      4  C   UNL     1      45.219   5.625  12.037  0.00  0.00    +0.000 A 
ATOM      5  C   UNL     1      44.263   4.970  12.827  0.00  0.00    +0.000 A 
ATOM      6  C   UNL     1      43.368   4.084  12.242  0.00  0.00    +0.000 A 
ATOM      7  N   UNL     1      43.323   3.824  10.925  0.00  0.00    +0.000 NA
ATOM      8  C   UNL     1      44.226   4.475  10.165  0.00  0.00    +0.000 A 
ATOM      9  C   UNL     1      45.176   5.358  10.659  0.00  0.00    +0.000 A 
BRANCH   8  10
ATOM     10  O   UNL     1      44.182   4.290   8.797  0.00  0.00    +0.000 OA
BRANCH  10  11
ATOM     11  C   UNL     1      44.608   2.980   8.345  0.00  0.00    +0.000 C 
ATOM     12  C   UNL     1      45.092   2.883   6.874  0.00  0.00    +0.000 C 
ATOM     13  C   UNL     1      46.538   3.088   7.390  0.00  0.00    +0.000 C 
ATOM     14  C   UNL     1      47.567   2.226   6.679  0.00  0.00    +0.000 C 
ATOM     15  C   UNL     1      46.040   2.563   8.764  0.00  0.00    +0.000 C 
BRANCH  13  16
ATOM     16  O   UNL     1      47.010   4.454   7.411  0.00  0.00    +0.000 OA
ATOM     17  H   UNL     1      47.829   4.452   6.886  0.00  0.00    +0.000 HD
ENDBRANCH  13  16
ENDBRANCH  10  11
ENDBRANCH   8  10
ENDBRANCH   2   4
BRANCH   2  18
ATOM     18  C   UNL     1      46.886   6.126  13.992  0.00  0.00    +0.000 C 
BRANCH  18  19
ATOM     19  N   UNL     1      46.859   4.678  14.140  0.00  0.00    +0.000 N 
ATOM     20  C   UNL     1      47.365   4.148  15.306  0.00  0.00    +0.000 A 
ATOM     21  N   UNL     1      47.878   2.916  15.196  0.00  0.00    +0.000 NA
ATOM     22  C   UNL     1      48.345   2.333  16.317  0.00  0.00    +0.000 A 
ATOM     23  C   UNL     1      48.322   2.937  17.541  0.00  0.00    +0.000 A 
ATOM     24  C   UNL     1      47.780   4.201  17.547  0.00  0.00    +0.000 A 
ATOM     25  N   UNL     1      47.297   4.833  16.450  0.00  0.00    +0.000 NA
ATOM     26  H   UNL     1      47.229   4.126  13.375  0.00  0.00    +0.000 HD
BRANCH  24  27
ATOM     27  C   UNL     1      47.690   4.954  18.834  0.00  0.00    +0.000 C 
ATOM     28  N   UNL     1      46.525   5.644  19.033  0.00  0.00    +0.000 N 
ATOM     29  O   UNL     1      48.593   4.956  19.659  0.00  0.00    +0.000 OA
ATOM     30  H   UNL     1      45.785   5.597  18.343  0.00  0.00    +0.000 HD
ATOM     31  H   UNL     1      46.388   6.150  19.898  0.00  0.00    +0.000 HD
ENDBRANCH  24  27
ENDBRANCH  18  19
ENDBRANCH   2  18
TORSDOF 7
ENDMDL
MODEL 2
REMARK VINA RESULT:    -7.728      1.809      2.035
REMARK INTER + INTRA:         -11.119
REMARK INTER:                 -10.304
REMARK INTRA:                  -0.815
REMARK UNBOUND:                -0.454
REMARK  Name = 
REMARK  10 active torsions:
REMARK  status: ('A' for Active; 'I' for Inactive)
REMARK    1  A    between atoms: C_1  and  C_2
REMARK    2  A    between atoms: C_2  and  C_3
REMARK    3  A    between atoms: C_2  and  C_4
REMARK    4  A    between atoms: C_2  and  C_15
REMARK    5  A    between atoms: C_4  and  N_5
REMARK    6  A    between atoms: C_10  and  C_11
REMARK    7  A    between atoms: C_19  and  O_20
REMARK    8  A    between atoms: O_20  and  C_21
REMARK    9  A    between atoms: C_23  and  C_24
REMARK   10  A    between atoms: C_23  and  O_25
REMARK                            x       y       z     vdW  Elec       q    Type
REMARK                         _______ _______ _______ _____ _____    ______ ____
ROOT
ATOM      1  C   UNL     1      46.360   8.476  12.072  0.00  0.00    +0.000 C 
ATOM      2  C   UNL     1      47.191   7.233  12.477  0.00  0.00    +0.000 C 
ATOM      3  C   UNL     1      48.506   7.249  11.659  0.00  0.00    +0.000 C 
ENDROOT
BRANCH   2   4
ATOM      4  C   UNL     1      46.378   5.965  12.152  0.00  0.00    +0.000 A 
ATOM      5  C   UNL     1      46.182   4.932  13.081  0.00  0.00    +0.000 A 
ATOM      6  C   UNL     1      45.470   3.797  12.719  0.00  0.00    +0.000 A 
ATOM      7  N   UNL     1      44.904   3.620  11.513  0.00  0.00    +0.000 NA
ATOM      8  C   UNL     1      45.070   4.625  10.631  0.00  0.00    +0.000 A 
ATOM      9  C   UNL     1      45.786   5.786  10.891  0.00  0.00    +0.000 A 
BRANCH   8  10
ATOM     10  O   UNL     1      44.456   4.522   9.399  0.00  0.00    +0.000 OA
BRANCH  10  11
ATOM     11  C   UNL     1      44.599   3.232   8.753  0.00  0.00    +0.000 C 
ATOM     12  C   UNL     1      44.723   3.247   7.206  0.00  0.00    +0.000 C 
ATOM     13  C   UNL     1      46.262   3.243   7.380  0.00  0.00    +0.000 C 
ATOM     14  C   UNL     1      46.987   2.361   6.377  0.00  0.00    +0.000 C 
ATOM     15  C   UNL     1      46.024   2.626   8.784  0.00  0.00    +0.000 C 
BRANCH  13  16
ATOM     16  O   UNL     1      46.896   4.542   7.401  0.00  0.00    +0.000 OA
ATOM     17  H   UNL     1      47.794   4.397   7.057  0.00  0.00    +0.000 HD
ENDBRANCH  13  16
ENDBRANCH  10  11
ENDBRANCH   8  10
ENDBRANCH   2   4
BRANCH   2  18
ATOM     18  C   UNL     1      47.548   7.408  13.994  0.00  0.00    +0.000 C 
BRANCH  18  19
ATOM     19  N   UNL     1      48.930   7.046  14.275  0.00  0.00    +0.000 N 
ATOM     20  C   UNL     1      49.174   6.301  15.409  0.00  0.00    +0.000 A 
ATOM     21  N   UNL     1      50.379   6.486  15.962  0.00  0.00    +0.000 NA
ATOM     22  C   UNL     1      50.687   5.748  17.046  0.00  0.00    +0.000 A 
ATOM     23  C   UNL     1      49.834   4.838  17.600  0.00  0.00    +0.000 A 
ATOM     24  C   UNL     1      48.621   4.726  16.960  0.00  0.00    +0.000 A 
ATOM     25  N   UNL     1      48.262   5.443  15.868  0.00  0.00    +0.000 NA
ATOM     26  H   UNL     1      49.619   7.788  14.251  0.00  0.00    +0.000 HD
BRANCH  24  27
ATOM     27  C   UNL     1      47.611   3.749  17.469  0.00  0.00    +0.000 C 
ATOM     28  N   UNL     1      47.907   3.167  18.672  0.00  0.00    +0.000 N 
ATOM     29  O   UNL     1      46.585   3.486  16.857  0.00  0.00    +0.000 OA
ATOM     30  H   UNL     1      48.751   3.431  19.167  0.00  0.00    +0.000 HD
ATOM     31  H   UNL     1      47.250   2.521  19.087  0.00  0.00    +0.000 HD
ENDBRANCH  24  27
ENDBRANCH  18  19
ENDBRANCH   2  18
TORSDOF 7
ENDMDL
MODEL 3
REMARK VINA RESULT:    -7.724      2.223      3.444
REMARK INTER + INTRA:         -11.113
REMARK INTER:                 -10.400
REMARK INTRA:                  -0.713
REMARK UNBOUND:                -0.454
REMARK  Name = 
REMARK  10 active torsions:
REMARK  status: ('A' for Active; 'I' for Inactive)
REMARK    1  A    between atoms: C_1  and  C_2
REMARK    2  A    between atoms: C_2  and  C_3
REMARK    3  A    between atoms: C_2  and  C_4
REMARK    4  A    between atoms: C_2  and  C_15
REMARK    5  A    between atoms: C_4  and  N_5
REMARK    6  A    between atoms: C_10  and  C_11
REMARK    7  A    between atoms: C_19  and  O_20
REMARK    8  A    between atoms: O_20  and  C_21
REMARK    9  A    between atoms: C_23  and  C_24
REMARK   10  A    between atoms: C_23  and  O_25
REMARK                            x       y       z     vdW  Elec       q    Type
REMARK                         _______ _______ _______ _____ _____    ______ ____
ROOT
ATOM      1  C   UNL     1      47.888   8.668  14.410  0.00  0.00    +0.000 C 
ATOM      2  C   UNL     1      47.885   7.404  13.514  0.00  0.00    +0.000 C 
ATOM      3  C   UNL     1      48.988   7.575  12.441  0.00  0.00    +0.000 C 
ENDROOT
BRANCH   2   4
ATOM      4  C   UNL     1      46.504   7.276  12.840  0.00  0.00    +0.000 A 
ATOM      5  C   UNL     1      46.012   8.228  11.935  0.00  0.00    +0.000 A 
ATOM      6  C   UNL     1      44.745   8.076  11.387  0.00  0.00    +0.000 A 
ATOM      7  N   UNL     1      43.940   7.031  11.641  0.00  0.00    +0.000 NA
ATOM      8  C   UNL     1      44.425   6.105  12.490  0.00  0.00    +0.000 A 
ATOM      9  C   UNL     1      45.666   6.181  13.107  0.00  0.00    +0.000 A 
BRANCH   8  10
ATOM     10  O   UNL     1      43.662   4.980  12.737  0.00  0.00    +0.000 OA
BRANCH  10  11
ATOM     11  C   UNL     1      44.266   3.731  12.318  0.00  0.00    +0.000 C 
ATOM     12  C   UNL     1      43.414   2.835  11.380  0.00  0.00    +0.000 C 
ATOM     13  C   UNL     1      44.135   3.494  10.179  0.00  0.00    +0.000 C 
ATOM     14  C   UNL     1      44.476   2.521   9.063  0.00  0.00    +0.000 C 
ATOM     15  C   UNL     1      45.288   3.839  11.160  0.00  0.00    +0.000 C 
BRANCH  13  16
ATOM     16  O   UNL     1      43.477   4.647   9.606  0.00  0.00    +0.000 OA
ATOM     17  H   UNL     1      43.302   5.243  10.355  0.00  0.00    +0.000 HD
ENDBRANCH  13  16
ENDBRANCH  10  11
ENDBRANCH   8  10
ENDBRANCH   2   4
BRANCH   2  18
ATOM     18  C   UNL     1      48.274   6.199  14.438  0.00  0.00    +0.000 C 
BRANCH  18  19
ATOM     19  N   UNL     1      48.354   6.587  15.838  0.00  0.00    +0.000 N 
ATOM     20  C   UNL     1      48.501   5.583  16.771  0.00  0.00    +0.000 A 
ATOM     21  N   UNL     1      47.988   5.847  17.978  0.00  0.00    +0.000 NA
ATOM     22  C   UNL     1      48.145   4.917  18.939  0.00  0.00    +0.000 A 
ATOM     23  C   UNL     1      48.792   3.732  18.737  0.00  0.00    +0.000 A 
ATOM     24  C   UNL     1      49.279   3.555  17.463  0.00  0.00    +0.000 A 
ATOM     25  N   UNL     1      49.148   4.457  16.460  0.00  0.00    +0.000 NA
ATOM     26  H   UNL     1      47.640   7.216  16.188  0.00  0.00    +0.000 HD
BRANCH  24  27
ATOM     27  C   UNL     1      50.018   2.300  17.128  0.00  0.00    +0.000 C 
ATOM     28  N   UNL     1      51.066   1.995  17.953  0.00  0.00    +0.000 N 
ATOM     29  O   UNL     1      49.709   1.589  16.181  0.00  0.00    +0.000 OA
ATOM     30  H   UNL     1      51.275   2.590  18.746  0.00  0.00    +0.000 HD
ATOM     31  H   UNL     1      51.588   1.143  17.799  0.00  0.00    +0.000 HD
ENDBRANCH  24  27
ENDBRANCH  18  19
ENDBRANCH   2  18
TORSDOF 7
ENDMDL
MODEL 4
REMARK VINA RESULT:    -7.497      2.310      8.173
REMARK INTER + INTRA:         -10.800
REMARK INTER:                  -9.904
REMARK INTRA:                  -0.896
REMARK UNBOUND:                -0.454
REMARK  Name = 
REMARK  10 active torsions:
REMARK  status: ('A' for Active; 'I' for Inactive)
REMARK    1  A    between atoms: C_1  and  C_2
REMARK    2  A    between atoms: C_2  and  C_3
REMARK    3  A    between atoms: C_2  and  C_4
REMARK    4  A    between atoms: C_2  and  C_15
REMARK    5  A    between atoms: C_4  and  N_5
REMARK    6  A    between atoms: C_10  and  C_11
REMARK    7  A    between atoms: C_19  and  O_20
REMARK    8  A    between atoms: O_20  and  C_21
REMARK    9  A    between atoms: C_23  and  C_24
REMARK   10  A    between atoms: C_23  and  O_25
REMARK                            x       y       z     vdW  Elec       q    Type
REMARK                         _______ _______ _______ _____ _____    ______ ____
ROOT
ATOM      1  C   UNL     1      43.605   6.607  11.371  0.00  0.00    +0.000 C 
ATOM      2  C   UNL     1      44.012   5.213  11.910  0.00  0.00    +0.000 C 
ATOM      3  C   UNL     1      42.986   4.800  12.994  0.00  0.00    +0.000 C 
ENDROOT
BRANCH   2   4
ATOM      4  C   UNL     1      45.423   5.309  12.523  0.00  0.00    +0.000 A 
ATOM      5  C   UNL     1      46.339   6.309  12.163  0.00  0.00    +0.000 A 
ATOM      6  C   UNL     1      47.609   6.324  12.724  0.00  0.00    +0.000 A 
ATOM      7  N   UNL     1      48.031   5.442  13.646  0.00  0.00    +0.000 NA
ATOM      8  C   UNL     1      47.140   4.498  14.010  0.00  0.00    +0.000 A 
ATOM      9  C   UNL     1      45.859   4.386  13.488  0.00  0.00    +0.000 A 
BRANCH   8  10
ATOM     10  O   UNL     1      47.503   3.604  14.999  0.00  0.00    +0.000 OA
BRANCH  10  11
ATOM     11  C   UNL     1      47.094   3.978  16.338  0.00  0.00    +0.000 C 
ATOM     12  C   UNL     1      47.514   3.016  17.480  0.00  0.00    +0.000 C 
ATOM     13  C   UNL     1      48.764   3.903  17.699  0.00  0.00    +0.000 C 
ATOM     14  C   UNL     1      49.121   4.103  19.163  0.00  0.00    +0.000 C 
ATOM     15  C   UNL     1      47.970   5.054  17.026  0.00  0.00    +0.000 C 
BRANCH  13  16
ATOM     16  O   UNL     1      49.953   3.501  16.981  0.00  0.00    +0.000 OA
ATOM     17  H   UNL     1      50.556   4.263  17.034  0.00  0.00    +0.000 HD
ENDBRANCH  13  16
ENDBRANCH  10  11
ENDBRANCH   8  10
ENDBRANCH   2   4
BRANCH   2  18
ATOM     18  C   UNL     1      43.891   4.214  10.706  0.00  0.00    +0.000 C 
BRANCH  18  19
ATOM     19  N   UNL     1      44.358   4.803   9.459  0.00  0.00    +0.000 N 
ATOM     20  C   UNL     1      45.288   4.094   8.730  0.00  0.00    +0.000 A 
ATOM     21  N   UNL     1      46.113   4.838   7.984  0.00  0.00    +0.000 NA
ATOM     22  C   UNL     1      47.012   4.193   7.215  0.00  0.00    +0.000 A 
ATOM     23  C   UNL     1      47.118   2.833   7.168  0.00  0.00    +0.000 A 
ATOM     24  C   UNL     1      46.227   2.160   7.973  0.00  0.00    +0.000 A 
ATOM     25  N   UNL     1      45.305   2.760   8.764  0.00  0.00    +0.000 NA
ATOM     26  H   UNL     1      44.673   5.766   9.489  0.00  0.00    +0.000 HD
BRANCH  24  27
ATOM     27  C   UNL     1      46.241   0.666   7.993  0.00  0.00    +0.000 C 
ATOM     28  N   UNL     1      45.095   0.072   8.447  0.00  0.00    +0.000 N 
ATOM     29  O   UNL     1      47.208   0.013   7.627  0.00  0.00    +0.000 OA
ATOM     30  H   UNL     1      44.301   0.643   8.714  0.00  0.00    +0.000 HD
ATOM     31  H   UNL     1      45.027  -0.936   8.457  0.00  0.00    +0.000 HD
ENDBRANCH  24  27
ENDBRANCH  18  19
ENDBRANCH   2  18
TORSDOF 7
ENDMDL
MODEL 5
REMARK VINA RESULT:    -7.392      2.771      7.730
REMARK INTER + INTRA:         -10.655
REMARK INTER:                  -9.647
REMARK INTRA:                  -1.007
REMARK UNBOUND:                -0.454
REMARK  Name = 
REMARK  10 active torsions:
REMARK  status: ('A' for Active; 'I' for Inactive)
REMARK    1  A    between atoms: C_1  and  C_2
REMARK    2  A    between atoms: C_2  and  C_3
REMARK    3  A    between atoms: C_2  and  C_4
REMARK    4  A    between atoms: C_2  and  C_15
REMARK    5  A    between atoms: C_4  and  N_5
REMARK    6  A    between atoms: C_10  and  C_11
REMARK    7  A    between atoms: C_19  and  O_20
REMARK    8  A    between atoms: O_20  and  C_21
REMARK    9  A    between atoms: C_23  and  C_24
REMARK   10  A    between atoms: C_23  and  O_25
REMARK                            x       y       z     vdW  Elec       q    Type
REMARK                         _______ _______ _______ _____ _____    ______ ____
ROOT
ATOM      1  C   UNL     1      48.877   8.001  11.442  0.00  0.00    +0.000 C 
ATOM      2  C   UNL     1      47.761   7.944  12.513  0.00  0.00    +0.000 C 
ATOM      3  C   UNL     1      46.834   9.168  12.305  0.00  0.00    +0.000 C 
ENDROOT
BRANCH   2   4
ATOM      4  C   UNL     1      48.409   8.000  13.911  0.00  0.00    +0.000 A 
ATOM      5  C   UNL     1      48.396   9.156  14.705  0.00  0.00    +0.000 A 
ATOM      6  C   UNL     1      49.028   9.156  15.942  0.00  0.00    +0.000 A 
ATOM      7  N   UNL     1      49.643   8.084  16.469  0.00  0.00    +0.000 NA
ATOM      8  C   UNL     1      49.631   6.967  15.715  0.00  0.00    +0.000 A 
ATOM      9  C   UNL     1      49.049   6.876  14.458  0.00  0.00    +0.000 A 
BRANCH   8  10
ATOM     10  O   UNL     1      50.195   5.820  16.238  0.00  0.00    +0.000 OA
BRANCH  10  11
ATOM     11  C   UNL     1      49.584   5.343  17.462  0.00  0.00    +0.000 C 
ATOM     12  C   UNL     1      48.041   5.183  17.444  0.00  0.00    +0.000 C 
ATOM     13  C   UNL     1      48.251   3.696  17.064  0.00  0.00    +0.000 C 
ATOM     14  C   UNL     1      47.287   2.747  17.755  0.00  0.00    +0.000 C 
ATOM     15  C   UNL     1      49.664   3.814  17.695  0.00  0.00    +0.000 C 
BRANCH  13  16
ATOM     16  O   UNL     1      48.255   3.405  15.647  0.00  0.00    +0.000 OA
ATOM     17  H   UNL     1      48.530   2.474  15.576  0.00  0.00    +0.000 HD
ENDBRANCH  13  16
ENDBRANCH  10  11
ENDBRANCH   8  10
ENDBRANCH   2   4
BRANCH   2  18
ATOM     18  C   UNL     1      46.933   6.642  12.229  0.00  0.00    +0.000 C 
BRANCH  18  19
ATOM     19  N   UNL     1      46.376   6.631  10.885  0.00  0.00    +0.000 N 
ATOM     20  C   UNL     1      45.667   5.514  10.499  0.00  0.00    +0.000 A 
ATOM     21  N   UNL     1      45.692   5.250   9.187  0.00  0.00    +0.000 NA
ATOM     22  C   UNL     1      44.977   4.195   8.750  0.00  0.00    +0.000 A 
ATOM     23  C   UNL     1      44.243   3.394   9.576  0.00  0.00    +0.000 A 
ATOM     24  C   UNL     1      44.286   3.747  10.904  0.00  0.00    +0.000 A 
ATOM     25  N   UNL     1      44.988   4.796  11.396  0.00  0.00    +0.000 NA
ATOM     26  H   UNL     1      46.999   6.867  10.122  0.00  0.00    +0.000 HD
BRANCH  24  27
ATOM     27  C   UNL     1      43.508   2.950  11.901  0.00  0.00    +0.000 C 
ATOM     28  N   UNL     1      43.531   3.426  13.184  0.00  0.00    +0.000 N 
ATOM     29  O   UNL     1      42.890   1.939  11.595  0.00  0.00    +0.000 OA
ATOM     30  H   UNL     1      44.029   4.282  13.396  0.00  0.00    +0.000 HD
ATOM     31  H   UNL     1      43.000   2.950  13.900  0.00  0.00    +0.000 HD
ENDBRANCH  24  27
ENDBRANCH  18  19
ENDBRANCH   2  18
TORSDOF 7
ENDMDL
MODEL 6
REMARK VINA RESULT:    -7.303      2.413      7.885
REMARK INTER + INTRA:         -10.532
REMARK INTER:                  -9.588
REMARK INTRA:                  -0.944
REMARK UNBOUND:                -0.454
REMARK  Name = 
REMARK  10 active torsions:
REMARK  status: ('A' for Active; 'I' for Inactive)
REMARK    1  A    between atoms: C_1  and  C_2
REMARK    2  A    between atoms: C_2  and  C_3
REMARK    3  A    between atoms: C_2  and  C_4
REMARK    4  A    between atoms: C_2  and  C_15
REMARK    5  A    between atoms: C_4  and  N_5
REMARK    6  A    between atoms: C_10  and  C_11
REMARK    7  A    between atoms: C_19  and  O_20
REMARK    8  A    between atoms: O_20  and  C_21
REMARK    9  A    between atoms: C_23  and  C_24
REMARK   10  A    between atoms: C_23  and  O_25
REMARK                            x       y       z     vdW  Elec       q    Type
REMARK                         _______ _______ _______ _____ _____    ______ ____
ROOT
ATOM      1  C   UNL     1      48.509   8.679  11.866  0.00  0.00    +0.000 C 
ATOM      2  C   UNL     1      47.602   8.097  12.978  0.00  0.00    +0.000 C 
ATOM      3  C   UNL     1      46.347   8.997  13.094  0.00  0.00    +0.000 C 
ENDROOT
BRANCH   2   4
ATOM      4  C   UNL     1      48.383   8.099  14.307  0.00  0.00    +0.000 A 
ATOM      5  C   UNL     1      48.468   9.229  15.134  0.00  0.00    +0.000 A 
ATOM      6  C   UNL     1      49.215   9.181  16.303  0.00  0.00    +0.000 A 
ATOM      7  N   UNL     1      49.858   8.083  16.736  0.00  0.00    +0.000 NA
ATOM      8  C   UNL     1      49.753   6.991  15.954  0.00  0.00    +0.000 A 
ATOM      9  C   UNL     1      49.051   6.948  14.757  0.00  0.00    +0.000 A 
BRANCH   8  10
ATOM     10  O   UNL     1      50.343   5.819  16.385  0.00  0.00    +0.000 OA
BRANCH  10  11
ATOM     11  C   UNL     1      49.755   5.243  17.578  0.00  0.00    +0.000 C 
ATOM     12  C   UNL     1      48.205   5.199  17.629  0.00  0.00    +0.000 C 
ATOM     13  C   UNL     1      48.279   3.759  17.066  0.00  0.00    +0.000 C 
ATOM     14  C   UNL     1      47.276   2.805  17.695  0.00  0.00    +0.000 C 
ATOM     15  C   UNL     1      49.725   3.695  17.626  0.00  0.00    +0.000 C 
BRANCH  13  16
ATOM     16  O   UNL     1      48.192   3.642  15.627  0.00  0.00    +0.000 OA
ATOM     17  H   UNL     1      48.657   4.421  15.276  0.00  0.00    +0.000 HD
ENDBRANCH  13  16
ENDBRANCH  10  11
ENDBRANCH   8  10
ENDBRANCH   2   4
BRANCH   2  18
ATOM     18  C   UNL     1      47.150   6.676  12.489  0.00  0.00    +0.000 C 
BRANCH  18  19
ATOM     19  N   UNL     1      46.062   6.142  13.295  0.00  0.00    +0.000 N 
ATOM     20  C   UNL     1      45.027   5.517  12.634  0.00  0.00    +0.000 A 
ATOM     21  N   UNL     1      43.839   5.580  13.248  0.00  0.00    +0.000 NA
ATOM     22  C   UNL     1      42.803   4.945  12.666  0.00  0.00    +0.000 A 
ATOM     23  C   UNL     1      42.910   4.254  11.494  0.00  0.00    +0.000 A 
ATOM     24  C   UNL     1      44.170   4.253  10.942  0.00  0.00    +0.000 A 
ATOM     25  N   UNL     1      45.245   4.874  11.485  0.00  0.00    +0.000 NA
ATOM     26  H   UNL     1      45.647   6.760  13.983  0.00  0.00    +0.000 HD
BRANCH  24  27
ATOM     27  C   UNL     1      44.411   3.516   9.664  0.00  0.00    +0.000 C 
ATOM     28  N   UNL     1      44.549   2.160   9.783  0.00  0.00    +0.000 N 
ATOM     29  O   UNL     1      44.478   4.083   8.582  0.00  0.00    +0.000 OA
ATOM     30  H   UNL     1      44.457   1.719  10.690  0.00  0.00    +0.000 HD
ATOM     31  H   UNL     1      44.682   1.599   8.952  0.00  0.00    +0.000 HD
ENDBRANCH  24  27
ENDBRANCH  18  19
ENDBRANCH   2  18
TORSDOF 7
ENDMDL
MODEL 7
REMARK VINA RESULT:    -7.296      2.899      4.366
REMARK INTER + INTRA:         -10.522
REMARK INTER:                  -9.427
REMARK INTRA:                  -1.095
REMARK UNBOUND:                -0.454
REMARK  Name = 
REMARK  10 active torsions:
REMARK  status: ('A' for Active; 'I' for Inactive)
REMARK    1  A    between atoms: C_1  and  C_2
REMARK    2  A    between atoms: C_2  and  C_3
REMARK    3  A    between atoms: C_2  and  C_4
REMARK    4  A    between atoms: C_2  and  C_15
REMARK    5  A    between atoms: C_4  and  N_5
REMARK    6  A    between atoms: C_10  and  C_11
REMARK    7  A    between atoms: C_19  and  O_20
REMARK    8  A    between atoms: O_20  and  C_21
REMARK    9  A    between atoms: C_23  and  C_24
REMARK   10  A    between atoms: C_23  and  O_25
REMARK                            x       y       z     vdW  Elec       q    Type
REMARK                         _______ _______ _______ _____ _____    ______ ____
ROOT
ATOM      1  C   UNL     1      49.712   9.517  13.451  0.00  0.00    +0.000 C 
ATOM      2  C   UNL     1      49.092   8.333  12.669  0.00  0.00    +0.000 C 
ATOM      3  C   UNL     1      49.929   8.118  11.383  0.00  0.00    +0.000 C 
ENDROOT
BRANCH   2   4
ATOM      4  C   UNL     1      47.637   8.686  12.302  0.00  0.00    +0.000 A 
ATOM      5  C   UNL     1      47.206  10.006  12.100  0.00  0.00    +0.000 A 
ATOM      6  C   UNL     1      45.874  10.264  11.806  0.00  0.00    +0.000 A 
ATOM      7  N   UNL     1      44.939   9.310  11.662  0.00  0.00    +0.000 NA
ATOM      8  C   UNL     1      45.361   8.041  11.831  0.00  0.00    +0.000 A 
ATOM      9  C   UNL     1      46.664   7.685  12.151  0.00  0.00    +0.000 A 
BRANCH   8  10
ATOM     10  O   UNL     1      44.454   7.019  11.633  0.00  0.00    +0.000 OA
BRANCH  10  11
ATOM     11  C   UNL     1      45.034   5.692  11.577  0.00  0.00    +0.000 C 
ATOM     12  C   UNL     1      44.559   4.687  12.660  0.00  0.00    +0.000 C 
ATOM     13  C   UNL     1      43.499   4.180  11.652  0.00  0.00    +0.000 C 
ATOM     14  C   UNL     1      43.308   2.673  11.673  0.00  0.00    +0.000 C 
ATOM     15  C   UNL     1      44.413   4.737  10.528  0.00  0.00    +0.000 C 
BRANCH  13  16
ATOM     16  O   UNL     1      42.201   4.814  11.731  0.00  0.00    +0.000 OA
ATOM     17  H   UNL     1      42.124   5.346  10.921  0.00  0.00    +0.000 HD
ENDBRANCH  13  16
ENDBRANCH  10  11
ENDBRANCH   8  10
ENDBRANCH   2   4
BRANCH   2  18
ATOM     18  C   UNL     1      49.246   7.065  13.579  0.00  0.00    +0.000 C 
BRANCH  18  19
ATOM     19  N   UNL     1      49.597   7.415  14.948  0.00  0.00    +0.000 N 
ATOM     20  C   UNL     1      49.013   6.685  15.961  0.00  0.00    +0.000 A 
ATOM     21  N   UNL     1      48.851   7.343  17.115  0.00  0.00    +0.000 NA
ATOM     22  C   UNL     1      48.326   6.662  18.152  0.00  0.00    +0.000 A 
ATOM     23  C   UNL     1      47.955   5.351  18.077  0.00  0.00    +0.000 A 
ATOM     24  C   UNL     1      48.159   4.767  16.848  0.00  0.00    +0.000 A 
ATOM     25  N   UNL     1      48.682   5.406  15.773  0.00  0.00    +0.000 NA
ATOM     26  H   UNL     1      49.533   8.392  15.209  0.00  0.00    +0.000 HD
BRANCH  24  27
ATOM     27  C   UNL     1      47.802   3.329  16.650  0.00  0.00    +0.000 C 
ATOM     28  N   UNL     1      46.909   2.814  17.550  0.00  0.00    +0.000 N 
ATOM     29  O   UNL     1      48.272   2.655  15.744  0.00  0.00    +0.000 OA
ATOM     30  H   UNL     1      46.517   3.410  18.270  0.00  0.00    +0.000 HD
ATOM     31  H   UNL     1      46.603   1.856  17.454  0.00  0.00    +0.000 HD
ENDBRANCH  24  27
ENDBRANCH  18  19
ENDBRANCH   2  18
TORSDOF 7
ENDMDL
MODEL 8
REMARK VINA RESULT:    -7.243      3.086      4.815
REMARK INTER + INTRA:         -10.449
REMARK INTER:                  -8.909
REMARK INTRA:                  -1.539
REMARK UNBOUND:                -0.454
REMARK  Name = 
REMARK  10 active torsions:
REMARK  status: ('A' for Active; 'I' for Inactive)
REMARK    1  A    between atoms: C_1  and  C_2
REMARK    2  A    between atoms: C_2  and  C_3
REMARK    3  A    between atoms: C_2  and  C_4
REMARK    4  A    between atoms: C_2  and  C_15
REMARK    5  A    between atoms: C_4  and  N_5
REMARK    6  A    between atoms: C_10  and  C_11
REMARK    7  A    between atoms: C_19  and  O_20
REMARK    8  A    between atoms: O_20  and  C_21
REMARK    9  A    between atoms: C_23  and  C_24
REMARK   10  A    between atoms: C_23  and  O_25
REMARK                            x       y       z     vdW  Elec       q    Type
REMARK                         _______ _______ _______ _____ _____    ______ ____
ROOT
ATOM      1  C   UNL     1      49.457  10.185  15.615  0.00  0.00    +0.000 C 
ATOM      2  C   UNL     1      49.984   8.771  15.267  0.00  0.00    +0.000 C 
ATOM      3  C   UNL     1      51.495   8.888  14.947  0.00  0.00    +0.000 C 
ENDROOT
BRANCH   2   4
ATOM      4  C   UNL     1      49.220   8.245  14.035  0.00  0.00    +0.000 A 
ATOM      5  C   UNL     1      49.345   8.822  12.763  0.00  0.00    +0.000 A 
ATOM      6  C   UNL     1      48.604   8.327  11.699  0.00  0.00    +0.000 A 
ATOM      7  N   UNL     1      47.771   7.276  11.791  0.00  0.00    +0.000 NA
ATOM      8  C   UNL     1      47.672   6.707  13.008  0.00  0.00    +0.000 A 
ATOM      9  C   UNL     1      48.352   7.146  14.136  0.00  0.00    +0.000 A 
BRANCH   8  10
ATOM     10  O   UNL     1      46.877   5.586  13.143  0.00  0.00    +0.000 OA
BRANCH  10  11
ATOM     11  C   UNL     1      45.574   5.683  12.516  0.00  0.00    +0.000 C 
ATOM     12  C   UNL     1      45.327   4.759  11.294  0.00  0.00    +0.000 C 
ATOM     13  C   UNL     1      44.695   3.731  12.264  0.00  0.00    +0.000 C 
ATOM     14  C   UNL     1      43.464   3.039  11.703  0.00  0.00    +0.000 C 
ATOM     15  C   UNL     1      44.432   4.918  13.229  0.00  0.00    +0.000 C 
BRANCH  13  16
ATOM     16  O   UNL     1      45.594   2.727  12.788  0.00  0.00    +0.000 OA
ATOM     17  H   UNL     1      46.189   2.503  12.051  0.00  0.00    +0.000 HD
ENDBRANCH  13  16
ENDBRANCH  10  11
ENDBRANCH   8  10
ENDBRANCH   2   4
BRANCH   2  18
ATOM     18  C   UNL     1      49.816   7.899  16.560  0.00  0.00    +0.000 C 
BRANCH  18  19
ATOM     19  N   UNL     1      50.806   6.835  16.633  0.00  0.00    +0.000 N 
ATOM     20  C   UNL     1      50.361   5.573  16.961  0.00  0.00    +0.000 A 
ATOM     21  N   UNL     1      51.255   4.800  17.591  0.00  0.00    +0.000 NA
ATOM     22  C   UNL     1      50.885   3.540  17.894  0.00  0.00    +0.000 A 
ATOM     23  C   UNL     1      49.657   3.027  17.594  0.00  0.00    +0.000 A 
ATOM     24  C   UNL     1      48.812   3.901  16.951  0.00  0.00    +0.000 A 
ATOM     25  N   UNL     1      49.132   5.177  16.624  0.00  0.00    +0.000 NA
ATOM     26  H   UNL     1      51.638   7.011  17.184  0.00  0.00    +0.000 HD
BRANCH  24  27
ATOM     27  C   UNL     1      47.443   3.445  16.561  0.00  0.00    +0.000 C 
ATOM     28  N   UNL     1      47.170   3.480  15.220  0.00  0.00    +0.000 N 
ATOM     29  O   UNL     1      46.619   3.063  17.381  0.00  0.00    +0.000 OA
ATOM     30  H   UNL     1      47.885   3.773  14.566  0.00  0.00    +0.000 HD
ATOM     31  H   UNL     1      46.272   3.155  14.887  0.00  0.00    +0.000 HD
ENDBRANCH  24  27
ENDBRANCH  18  19
ENDBRANCH   2  18
TORSDOF 7
ENDMDL
MODEL 9
REMARK VINA RESULT:    -6.953      2.198      8.318
REMARK INTER + INTRA:         -10.049
REMARK INTER:                  -9.445
REMARK INTRA:                  -0.604
REMARK UNBOUND:                -0.454
REMARK  Name = 
REMARK  10 active torsions:
REMARK  status: ('A' for Active; 'I' for Inactive)
REMARK    1  A    between atoms: C_1  and  C_2
REMARK    2  A    between atoms: C_2  and  C_3
REMARK    3  A    between atoms: C_2  and  C_4
REMARK    4  A    between atoms: C_2  and  C_15
REMARK    5  A    between atoms: C_4  and  N_5
REMARK    6  A    between atoms: C_10  and  C_11
REMARK    7  A    between atoms: C_19  and  O_20
REMARK    8  A    between atoms: O_20  and  C_21
REMARK    9  A    between atoms: C_23  and  C_24
REMARK   10  A    between atoms: C_23  and  O_25
REMARK                            x       y       z     vdW  Elec       q    Type
REMARK                         _______ _______ _______ _____ _____    ______ ____
ROOT
ATOM      1  C   UNL     1      43.833   7.144  11.332  0.00  0.00    +0.000 C 
ATOM      2  C   UNL     1      44.103   5.663  11.695  0.00  0.00    +0.000 C 
ATOM      3  C   UNL     1      42.920   5.158  12.559  0.00  0.00    +0.000 C 
ENDROOT
BRANCH   2   4
ATOM      4  C   UNL     1      45.418   5.579  12.494  0.00  0.00    +0.000 A 
ATOM      5  C   UNL     1      46.599   6.210  12.077  0.00  0.00    +0.000 A 
ATOM      6  C   UNL     1      47.763   6.069  12.821  0.00  0.00    +0.000 A 
ATOM      7  N   UNL     1      47.839   5.376  13.970  0.00  0.00    +0.000 NA
ATOM      8  C   UNL     1      46.696   4.792  14.382  0.00  0.00    +0.000 A 
ATOM      9  C   UNL     1      45.491   4.855  13.696  0.00  0.00    +0.000 A 
BRANCH   8  10
ATOM     10  O   UNL     1      46.704   4.120  15.589  0.00  0.00    +0.000 OA
BRANCH  10  11
ATOM     11  C   UNL     1      47.976   4.132  16.284  0.00  0.00    +0.000 C 
ATOM     12  C   UNL     1      48.353   5.452  17.008  0.00  0.00    +0.000 C 
ATOM     13  C   UNL     1      47.741   4.857  18.301  0.00  0.00    +0.000 C 
ATOM     14  C   UNL     1      48.537   5.176  19.556  0.00  0.00    +0.000 C 
ATOM     15  C   UNL     1      47.979   3.456  17.678  0.00  0.00    +0.000 C 
BRANCH  13  16
ATOM     16  O   UNL     1      46.350   5.173  18.540  0.00  0.00    +0.000 OA
ATOM     17  H   UNL     1      45.914   4.318  18.699  0.00  0.00    +0.000 HD
ENDBRANCH  13  16
ENDBRANCH  10  11
ENDBRANCH   8  10
ENDBRANCH   2   4
BRANCH   2  18
ATOM     18  C   UNL     1      44.107   4.865  10.345  0.00  0.00    +0.000 C 
BRANCH  18  19
ATOM     19  N   UNL     1      44.413   3.456  10.545  0.00  0.00    +0.000 N 
ATOM     20  C   UNL     1      45.004   2.778   9.500  0.00  0.00    +0.000 A 
ATOM     21  N   UNL     1      44.735   1.468   9.446  0.00  0.00    +0.000 NA
ATOM     22  C   UNL     1      45.325   0.750   8.471  0.00  0.00    +0.000 A 
ATOM     23  C   UNL     1      46.169   1.294   7.547  0.00  0.00    +0.000 A 
ATOM     24  C   UNL     1      46.378   2.646   7.687  0.00  0.00    +0.000 A 
ATOM     25  N   UNL     1      45.810   3.414   8.648  0.00  0.00    +0.000 NA
ATOM     26  H   UNL     1      43.670   2.865  10.901  0.00  0.00    +0.000 HD
BRANCH  24  27
ATOM     27  C   UNL     1      47.296   3.349   6.739  0.00  0.00    +0.000 C 
ATOM     28  N   UNL     1      48.466   2.697   6.459  0.00  0.00    +0.000 N 
ATOM     29  O   UNL     1      47.022   4.433   6.242  0.00  0.00    +0.000 OA
ATOM     30  H   UNL     1      48.646   1.786   6.864  0.00  0.00    +0.000 HD
ATOM     31  H   UNL     1      49.116   3.104   5.801  0.00  0.00    +0.000 HD
ENDBRANCH  24  27
ENDBRANCH  18  19
ENDBRANCH   2  18
TORSDOF 7
ENDMDL
