MODEL 1
REMARK VINA RESULT:    -7.914      0.000      0.000
REMARK INTER + INTRA:         -11.046
REMARK INTER:                 -10.227
REMARK INTRA:                  -0.819
REMARK UNBOUND:                -0.819
REMARK  Name = 
REMARK  8 active torsions:
REMARK  status: ('A' for Active; 'I' for Inactive)
REMARK    1  A    between atoms: C_1  and  C_2
REMARK    2  A    between atoms: C_5  and  C_6
REMARK    3  A    between atoms: C_10  and  C_11
REMARK    4  A    between atoms: C_12  and  C_13
REMARK    5  A    between atoms: C_13  and  C_14
REMARK    6  A    between atoms: C_13  and  C_15
REMARK    7  A    between atoms: C_13  and  C_16
REMARK    8  A    between atoms: C_19  and  C_20
REMARK                            x       y       z     vdW  Elec       q    Type
REMARK                         _______ _______ _______ _____ _____    ______ ____
ROOT
ATOM      1  C   UNL     1      45.967   6.776  13.188  0.00  0.00    +0.000 C 
ATOM      2  C   UNL     1      47.267   6.470  13.356  0.00  0.00    +0.000 C 
ENDROOT
BRANCH   1   7
ATOM      3  C   UNL     1      44.808   4.648  10.284  0.00  0.00    +0.000 A 
ATOM      4  C   UNL     1      43.432   4.563  10.564  0.00  0.00    +0.000 A 
ATOM      5  C   UNL     1      42.871   5.209  11.668  0.00  0.00    +0.000 A 
ATOM      6  C   UNL     1      43.680   5.950  12.527  0.00  0.00    +0.000 A 
ATOM      7  C   UNL     1      45.056   6.044  12.296  0.00  0.00    +0.000 A 
ATOM      8  C   UNL     1      45.597   5.417  11.162  0.00  0.00    +0.000 A 
BRANCH   3  13
ATOM      9  C   UNL     1      47.374   1.866   6.047  0.00  0.00    +0.000 C 
ATOM     10  C   UNL     1      46.657   2.590   7.132  0.00  0.00    +0.000 A 
ATOM     11  C   UNL     1      46.002   1.943   8.158  0.00  0.00    +0.000 A 
ATOM     12  N   UNL     1      45.375   2.580   9.164  0.00  0.00    +0.000 NA
ATOM     13  C   UNL     1      45.407   3.927   9.143  0.00  0.00    +0.000 A 
ATOM     14  N   UNL     1      46.004   4.655   8.177  0.00  0.00    +0.000 NA
ATOM     15  C   UNL     1      46.615   3.966   7.195  0.00  0.00    +0.000 A 
ENDBRANCH   3  13
ENDBRANCH   1   7
BRANCH   2  16
ATOM     16  C   UNL     1      48.296   7.241  14.185  0.00  0.00    +0.000 C 
ATOM     17  C   UNL     1      49.583   7.306  13.323  0.00  0.00    +0.000 C 
ATOM     18  C   UNL     1      47.881   8.697  14.487  0.00  0.00    +0.000 C 
BRANCH  16  19
ATOM     19  C   UNL     1      48.558   6.511  15.511  0.00  0.00    +0.000 A 
ATOM     20  C   UNL     1      49.198   7.155  16.576  0.00  0.00    +0.000 A 
ATOM     21  N   UNL     1      49.458   6.563  17.772  0.00  0.00    +0.000 NA
ATOM     22  C   UNL     1      49.039   5.271  17.868  0.00  0.00    +0.000 A 
ATOM     23  C   UNL     1      48.405   4.615  16.826  0.00  0.00    +0.000 A 
ATOM     24  N   UNL     1      48.155   5.216  15.636  0.00  0.00    +0.000 NA
BRANCH  22  25
ATOM     25  C   UNL     1      49.275   4.553  19.151  0.00  0.00    +0.000 C 
ATOM     26  N   UNL     1      48.495   3.450  19.372  0.00  0.00    +0.000 N 
ATOM     27  O   UNL     1      50.113   4.920  19.962  0.00  0.00    +0.000 OA
ATOM     28  H   UNL     1      47.811   3.162  18.682  0.00  0.00    +0.000 HD
ATOM     29  H   UNL     1      48.618   2.917  20.222  0.00  0.00    +0.000 HD
ENDBRANCH  22  25
ENDBRANCH  16  19
ENDBRANCH   2  16
TORSDOF 5
ENDMDL
MODEL 2
REMARK VINA RESULT:    -7.773      3.027      9.036
REMARK INTER + INTRA:         -10.864
REMARK INTER:                 -10.303
REMARK INTRA:                  -0.561
REMARK UNBOUND:                -0.819
REMARK  Name = 
REMARK  8 active torsions:
REMARK  status: ('A' for Active; 'I' for Inactive)
REMARK    1  A    between atoms: C_1  and  C_2
REMARK    2  A    between atoms: C_5  and  C_6
REMARK    3  A    between atoms: C_10  and  C_11
REMARK    4  A    between atoms: C_12  and  C_13
REMARK    5  A    between atoms: C_13  and  C_14
REMARK    6  A    between atoms: C_13  and  C_15
REMARK    7  A    between atoms: C_13  and  C_16
REMARK    8  A    between atoms: C_19  and  C_20
REMARK                            x       y       z     vdW  Elec       q    Type
REMARK                         _______ _______ _______ _____ _____    ______ ____
ROOT
ATOM      1  C   UNL     1      46.451   6.081  11.649  0.00  0.00    +0.000 C 
ATOM      2  C   UNL     1      45.589   5.108  11.997  0.00  0.00    +0.000 C 
ENDROOT
BRANCH   1   7
ATOM      3  C   UNL     1      48.448   6.683  14.804  0.00  0.00    +0.000 A 
ATOM      4  C   UNL     1      49.237   7.776  14.402  0.00  0.00    +0.000 A 
ATOM      5  C   UNL     1      49.109   8.338  13.130  0.00  0.00    +0.000 A 
ATOM      6  C   UNL     1      48.194   7.809  12.222  0.00  0.00    +0.000 A 
ATOM      7  C   UNL     1      47.404   6.709  12.575  0.00  0.00    +0.000 A 
ATOM      8  C   UNL     1      47.521   6.180  13.870  0.00  0.00    +0.000 A 
BRANCH   3  13
ATOM      9  C   UNL     1      48.798   4.335  19.966  0.00  0.00    +0.000 C 
ATOM     10  C   UNL     1      48.755   4.935  18.604  0.00  0.00    +0.000 A 
ATOM     11  C   UNL     1      48.475   4.203  17.471  0.00  0.00    +0.000 A 
ATOM     12  N   UNL     1      48.400   4.733  16.236  0.00  0.00    +0.000 NA
ATOM     13  C   UNL     1      48.615   6.060  16.133  0.00  0.00    +0.000 A 
ATOM     14  N   UNL     1      48.914   6.862  17.174  0.00  0.00    +0.000 NA
ATOM     15  C   UNL     1      48.976   6.278  18.386  0.00  0.00    +0.000 A 
ENDBRANCH   3  13
ENDBRANCH   1   7
BRANCH   2  16
ATOM     16  C   UNL     1      44.505   4.479  11.120  0.00  0.00    +0.000 C 
ATOM     17  C   UNL     1      43.838   3.378  11.983  0.00  0.00    +0.000 C 
ATOM     18  C   UNL     1      43.391   5.467  10.710  0.00  0.00    +0.000 C 
BRANCH  16  19
ATOM     19  C   UNL     1      45.133   3.881   9.852  0.00  0.00    +0.000 A 
ATOM     20  C   UNL     1      45.635   4.704   8.837  0.00  0.00    +0.000 A 
ATOM     21  N   UNL     1      46.200   4.234   7.694  0.00  0.00    +0.000 NA
ATOM     22  C   UNL     1      46.252   2.876   7.603  0.00  0.00    +0.000 A 
ATOM     23  C   UNL     1      45.762   2.045   8.595  0.00  0.00    +0.000 A 
ATOM     24  N   UNL     1      45.195   2.526   9.730  0.00  0.00    +0.000 NA
BRANCH  22  25
ATOM     25  C   UNL     1      46.869   2.280   6.385  0.00  0.00    +0.000 C 
ATOM     26  N   UNL     1      47.109   3.145   5.351  0.00  0.00    +0.000 N 
ATOM     27  O   UNL     1      47.148   1.092   6.307  0.00  0.00    +0.000 OA
ATOM     28  H   UNL     1      46.875   4.126   5.443  0.00  0.00    +0.000 HD
ATOM     29  H   UNL     1      47.536   2.798   4.504  0.00  0.00    +0.000 HD
ENDBRANCH  22  25
ENDBRANCH  16  19
ENDBRANCH   2  16
TORSDOF 5
ENDMDL
MODEL 3
REMARK VINA RESULT:    -7.232      4.761      8.567
REMARK INTER + INTRA:         -10.165
REMARK INTER:                  -9.319
REMARK INTRA:                  -0.846
REMARK UNBOUND:                -0.819
REMARK  Name = 
REMARK  8 active torsions:
REMARK  status: ('A' for Active; 'I' for Inactive)
REMARK    1  A    between atoms: C_1  and  C_2
REMARK    2  A    between atoms: C_5  and  C_6
REMARK    3  A    between atoms: C_10  and  C_11
REMARK    4  A    between atoms: C_12  and  C_13
REMARK    5  A    between atoms: C_13  and  C_14
REMARK    6  A    between atoms: C_13  and  C_15
REMARK    7  A    between atoms: C_13  and  C_16
REMARK    8  A    between atoms: C_19  and  C_20
REMARK                            x       y       z     vdW  Elec       q    Type
REMARK                         _______ _______ _______ _____ _____    ______ ____
ROOT
ATOM      1  C   UNL     1      46.453   6.360  11.908  0.00  0.00    +0.000 C 
ATOM      2  C   UNL     1      45.436   6.122  11.059  0.00  0.00    +0.000 C 
ENDROOT
BRANCH   1   7
ATOM      3  C   UNL     1      49.299   8.836  11.645  0.00  0.00    +0.000 A 
ATOM      4  C   UNL     1      48.646  10.018  12.038  0.00  0.00    +0.000 A 
ATOM      5  C   UNL     1      47.301  10.017  12.414  0.00  0.00    +0.000 A 
ATOM      6  C   UNL     1      46.572   8.830  12.394  0.00  0.00    +0.000 A 
ATOM      7  C   UNL     1      47.179   7.636  11.990  0.00  0.00    +0.000 A 
ATOM      8  C   UNL     1      48.540   7.649  11.649  0.00  0.00    +0.000 A 
BRANCH   3  13
ATOM      9  C   UNL     1      54.624   8.912   9.665  0.00  0.00    +0.000 C 
ATOM     10  C   UNL     1      53.248   8.893  10.232  0.00  0.00    +0.000 A 
ATOM     11  C   UNL     1      52.592  10.031  10.647  0.00  0.00    +0.000 A 
ATOM     12  N   UNL     1      51.336  10.037  11.132  0.00  0.00    +0.000 NA
ATOM     13  C   UNL     1      50.709   8.846  11.204  0.00  0.00    +0.000 A 
ATOM     14  N   UNL     1      51.267   7.673  10.842  0.00  0.00    +0.000 NA
ATOM     15  C   UNL     1      52.524   7.727  10.363  0.00  0.00    +0.000 A 
ENDBRANCH   3  13
ENDBRANCH   1   7
BRANCH   2  16
ATOM     16  C   UNL     1      44.702   4.798  10.847  0.00  0.00    +0.000 C 
ATOM     17  C   UNL     1      44.864   3.999  12.165  0.00  0.00    +0.000 C 
ATOM     18  C   UNL     1      43.186   4.964  10.603  0.00  0.00    +0.000 C 
BRANCH  16  19
ATOM     19  C   UNL     1      45.317   4.037   9.663  0.00  0.00    +0.000 A 
ATOM     20  C   UNL     1      45.292   2.639   9.610  0.00  0.00    +0.000 A 
ATOM     21  N   UNL     1      45.820   1.911   8.591  0.00  0.00    +0.000 NA
ATOM     22  C   UNL     1      46.385   2.652   7.597  0.00  0.00    +0.000 A 
ATOM     23  C   UNL     1      46.421   4.035   7.630  0.00  0.00    +0.000 A 
ATOM     24  N   UNL     1      45.894   4.750   8.656  0.00  0.00    +0.000 NA
BRANCH  22  25
ATOM     25  C   UNL     1      46.976   1.930   6.436  0.00  0.00    +0.000 C 
ATOM     26  N   UNL     1      47.387   2.712   5.391  0.00  0.00    +0.000 N 
ATOM     27  O   UNL     1      47.091   0.713   6.412  0.00  0.00    +0.000 OA
ATOM     28  H   UNL     1      47.287   3.719   5.438  0.00  0.00    +0.000 HD
ATOM     29  H   UNL     1      47.806   2.278   4.581  0.00  0.00    +0.000 HD
ENDBRANCH  22  25
ENDBRANCH  16  19
ENDBRANCH   2  16
TORSDOF 5
ENDMDL
MODEL 4
REMARK VINA RESULT:    -7.119      3.297      8.471
REMARK INTER + INTRA:         -10.018
REMARK INTER:                  -9.186
REMARK INTRA:                  -0.833
REMARK UNBOUND:                -0.819
REMARK  Name = 
REMARK  8 active torsions:
REMARK  status: ('A' for Active; 'I' for Inactive)
REMARK    1  A    between atoms: C_1  and  C_2
REMARK    2  A    between atoms: C_5  and  C_6
REMARK    3  A    between atoms: C_10  and  C_11
REMARK    4  A    between atoms: C_12  and  C_13
REMARK    5  A    between atoms: C_13  and  C_14
REMARK    6  A    between atoms: C_13  and  C_15
REMARK    7  A    between atoms: C_13  and  C_16
REMARK    8  A    between atoms: C_19  and  C_20
REMARK                            x       y       z     vdW  Elec       q    Type
REMARK                         _______ _______ _______ _____ _____    ______ ____
ROOT
ATOM      1  C   UNL     1      48.474   7.669  14.987  0.00  0.00    +0.000 C 
ATOM      2  C   UNL     1      47.901   6.816  14.119  0.00  0.00    +0.000 C 
ENDROOT
BRANCH   1   7
ATOM      3  C   UNL     1      50.181   5.548  17.612  0.00  0.00    +0.000 A 
ATOM      4  C   UNL     1      50.169   6.435  18.704  0.00  0.00    +0.000 A 
ATOM      5  C   UNL     1      49.590   7.702  18.607  0.00  0.00    +0.000 A 
ATOM      6  C   UNL     1      49.017   8.117  17.407  0.00  0.00    +0.000 A 
ATOM      7  C   UNL     1      49.026   7.273  16.291  0.00  0.00    +0.000 A 
ATOM      8  C   UNL     1      49.581   5.991  16.417  0.00  0.00    +0.000 A 
BRANCH   3  13
ATOM      9  C   UNL     1      52.832   0.524  17.696  0.00  0.00    +0.000 C 
ATOM     10  C   UNL     1      52.120   1.831  17.721  0.00  0.00    +0.000 A 
ATOM     11  C   UNL     1      52.652   2.962  18.300  0.00  0.00    +0.000 A 
ATOM     12  N   UNL     1      52.037   4.160  18.306  0.00  0.00    +0.000 NA
ATOM     13  C   UNL     1      50.834   4.226  17.702  0.00  0.00    +0.000 A 
ATOM     14  N   UNL     1      50.219   3.176  17.123  0.00  0.00    +0.000 NA
ATOM     15  C   UNL     1      50.879   2.003  17.147  0.00  0.00    +0.000 A 
ENDBRANCH   3  13
ENDBRANCH   1   7
BRANCH   2  16
ATOM     16  C   UNL     1      47.220   7.166  12.795  0.00  0.00    +0.000 C 
ATOM     17  C   UNL     1      46.355   8.421  13.074  0.00  0.00    +0.000 C 
ATOM     18  C   UNL     1      48.210   7.540  11.670  0.00  0.00    +0.000 C 
BRANCH  16  19
ATOM     19  C   UNL     1      46.349   5.991  12.323  0.00  0.00    +0.000 A 
ATOM     20  C   UNL     1      46.007   4.949  13.193  0.00  0.00    +0.000 A 
ATOM     21  N   UNL     1      45.243   3.884  12.833  0.00  0.00    +0.000 NA
ATOM     22  C   UNL     1      44.817   3.903  11.540  0.00  0.00    +0.000 A 
ATOM     23  C   UNL     1      45.144   4.923  10.664  0.00  0.00    +0.000 A 
ATOM     24  N   UNL     1      45.912   5.979  11.033  0.00  0.00    +0.000 NA
BRANCH  22  25
ATOM     25  C   UNL     1      43.962   2.777  11.069  0.00  0.00    +0.000 C 
ATOM     26  N   UNL     1      44.386   2.137   9.937  0.00  0.00    +0.000 N 
ATOM     27  O   UNL     1      42.944   2.439  11.655  0.00  0.00    +0.000 OA
ATOM     28  H   UNL     1      45.237   2.431   9.473  0.00  0.00    +0.000 HD
ATOM     29  H   UNL     1      43.852   1.359   9.577  0.00  0.00    +0.000 HD
ENDBRANCH  22  25
ENDBRANCH  16  19
ENDBRANCH   2  16
TORSDOF 5
ENDMDL
MODEL 5
REMARK VINA RESULT:    -7.114      1.621      2.017
REMARK INTER + INTRA:         -10.012
REMARK INTER:                  -9.177
REMARK INTRA:                  -0.835
REMARK UNBOUND:                -0.819
REMARK  Name = 
REMARK  8 active torsions:
REMARK  status: ('A' for Active; 'I' for Inactive)
REMARK    1  A    between atoms: C_1  and  C_2
REMARK    2  A    between atoms: C_5  and  C_6
REMARK    3  A    between atoms: C_10  and  C_11
REMARK    4  A    between atoms: C_12  and  C_13
REMARK    5  A    between atoms: C_13  and  C_14
REMARK    6  A    between atoms: C_13  and  C_15
REMARK    7  A    between atoms: C_13  and  C_16
REMARK    8  A    between atoms: C_19  and  C_20
REMARK                            x       y       z     vdW  Elec       q    Type
REMARK                         _______ _______ _______ _____ _____    ______ ____
ROOT
ATOM      1  C   UNL     1      45.831   7.485  12.461  0.00  0.00    +0.000 C 
ATOM      2  C   UNL     1      47.159   7.572  12.260  0.00  0.00    +0.000 C 
ENDROOT
BRANCH   1   7
ATOM      3  C   UNL     1      44.749   4.700  10.144  0.00  0.00    +0.000 A 
ATOM      4  C   UNL     1      43.435   4.486  10.598  0.00  0.00    +0.000 A 
ATOM      5  C   UNL     1      42.886   5.253  11.628  0.00  0.00    +0.000 A 
ATOM      6  C   UNL     1      43.647   6.248  12.238  0.00  0.00    +0.000 A 
ATOM      7  C   UNL     1      44.965   6.479  11.830  0.00  0.00    +0.000 A 
ATOM      8  C   UNL     1      45.488   5.723  10.770  0.00  0.00    +0.000 A 
BRANCH   3  13
ATOM      9  C   UNL     1      47.299   1.476   6.221  0.00  0.00    +0.000 C 
ATOM     10  C   UNL     1      46.585   2.312   7.226  0.00  0.00    +0.000 A 
ATOM     11  C   UNL     1      45.956   1.781   8.330  0.00  0.00    +0.000 A 
ATOM     12  N   UNL     1      45.333   2.522   9.265  0.00  0.00    +0.000 NA
ATOM     13  C   UNL     1      45.343   3.858   9.085  0.00  0.00    +0.000 A 
ATOM     14  N   UNL     1      45.915   4.476   8.032  0.00  0.00    +0.000 NA
ATOM     15  C   UNL     1      46.523   3.685   7.128  0.00  0.00    +0.000 A 
ENDBRANCH   3  13
ENDBRANCH   1   7
BRANCH   2  16
ATOM     16  C   UNL     1      48.105   8.646  12.800  0.00  0.00    +0.000 C 
ATOM     17  C   UNL     1      49.287   8.721  11.800  0.00  0.00    +0.000 C 
ATOM     18  C   UNL     1      47.473  10.054  12.859  0.00  0.00    +0.000 C 
BRANCH  16  19
ATOM     19  C   UNL     1      48.595   8.260  14.204  0.00  0.00    +0.000 A 
ATOM     20  C   UNL     1      49.220   7.030  14.439  0.00  0.00    +0.000 A 
ATOM     21  N   UNL     1      49.674   6.633  15.657  0.00  0.00    +0.000 NA
ATOM     22  C   UNL     1      49.478   7.537  16.657  0.00  0.00    +0.000 A 
ATOM     23  C   UNL     1      48.862   8.758  16.447  0.00  0.00    +0.000 A 
ATOM     24  N   UNL     1      48.409   9.141  15.226  0.00  0.00    +0.000 NA
BRANCH  22  25
ATOM     25  C   UNL     1      49.958   7.183  18.023  0.00  0.00    +0.000 C 
ATOM     26  N   UNL     1      51.309   7.269  18.223  0.00  0.00    +0.000 N 
ATOM     27  O   UNL     1      49.197   6.838  18.915  0.00  0.00    +0.000 OA
ATOM     28  H   UNL     1      51.918   7.563  17.469  0.00  0.00    +0.000 HD
ATOM     29  H   UNL     1      51.690   7.051  19.133  0.00  0.00    +0.000 HD
ENDBRANCH  22  25
ENDBRANCH  16  19
ENDBRANCH   2  16
TORSDOF 5
ENDMDL
MODEL 6
REMARK VINA RESULT:    -7.066      3.844      4.989
REMARK INTER + INTRA:          -9.950
REMARK INTER:                  -9.095
REMARK INTRA:                  -0.855
REMARK UNBOUND:                -0.819
REMARK  Name = 
REMARK  8 active torsions:
REMARK  status: ('A' for Active; 'I' for Inactive)
REMARK    1  A    between atoms: C_1  and  C_2
REMARK    2  A    between atoms: C_5  and  C_6
REMARK    3  A    between atoms: C_10  and  C_11
REMARK    4  A    between atoms: C_12  and  C_13
REMARK    5  A    between atoms: C_13  and  C_14
REMARK    6  A    between atoms: C_13  and  C_15
REMARK    7  A    between atoms: C_13  and  C_16
REMARK    8  A    between atoms: C_19  and  C_20
REMARK                            x       y       z     vdW  Elec       q    Type
REMARK                         _______ _______ _______ _____ _____    ______ ____
ROOT
ATOM      1  C   UNL     1      45.573   7.547  12.348  0.00  0.00    +0.000 C 
ATOM      2  C   UNL     1      46.886   7.748  12.127  0.00  0.00    +0.000 C 
ENDROOT
BRANCH   1   7
ATOM      3  C   UNL     1      44.722   4.587  10.153  0.00  0.00    +0.000 A 
ATOM      4  C   UNL     1      43.460   4.242  10.669  0.00  0.00    +0.000 A 
ATOM      5  C   UNL     1      42.869   4.974  11.701  0.00  0.00    +0.000 A 
ATOM      6  C   UNL     1      43.536   6.066  12.252  0.00  0.00    +0.000 A 
ATOM      7  C   UNL     1      44.802   6.431  11.781  0.00  0.00    +0.000 A 
ATOM      8  C   UNL     1      45.365   5.706  10.720  0.00  0.00    +0.000 A 
BRANCH   3  13
ATOM      9  C   UNL     1      47.455   1.517   6.231  0.00  0.00    +0.000 C 
ATOM     10  C   UNL     1      46.695   2.312   7.234  0.00  0.00    +0.000 A 
ATOM     11  C   UNL     1      46.040   1.741   8.303  0.00  0.00    +0.000 A 
ATOM     12  N   UNL     1      45.374   2.445   9.236  0.00  0.00    +0.000 NA
ATOM     13  C   UNL     1      45.366   3.786   9.092  0.00  0.00    +0.000 A 
ATOM     14  N   UNL     1      45.959   4.441   8.075  0.00  0.00    +0.000 NA
ATOM     15  C   UNL     1      46.610   3.686   7.170  0.00  0.00    +0.000 A 
ENDBRANCH   3  13
ENDBRANCH   1   7
BRANCH   2  16
ATOM     16  C   UNL     1      47.729   8.933  12.598  0.00  0.00    +0.000 C 
ATOM     17  C   UNL     1      46.959  10.208  12.170  0.00  0.00    +0.000 C 
ATOM     18  C   UNL     1      47.899   9.001  14.132  0.00  0.00    +0.000 C 
BRANCH  16  19
ATOM     19  C   UNL     1      49.119   8.885  11.944  0.00  0.00    +0.000 A 
ATOM     20  C   UNL     1      49.814  10.059  11.635  0.00  0.00    +0.000 A 
ATOM     21  N   UNL     1      51.044  10.080  11.057  0.00  0.00    +0.000 NA
ATOM     22  C   UNL     1      51.569   8.851  10.796  0.00  0.00    +0.000 A 
ATOM     23  C   UNL     1      50.898   7.677  11.093  0.00  0.00    +0.000 A 
ATOM     24  N   UNL     1      49.668   7.670  11.667  0.00  0.00    +0.000 NA
BRANCH  22  25
ATOM     25  C   UNL     1      52.921   8.786  10.174  0.00  0.00    +0.000 C 
ATOM     26  N   UNL     1      53.542   9.987   9.964  0.00  0.00    +0.000 N 
ATOM     27  O   UNL     1      53.450   7.727   9.867  0.00  0.00    +0.000 OA
ATOM     28  H   UNL     1      53.085  10.851  10.233  0.00  0.00    +0.000 HD
ATOM     29  H   UNL     1      54.465  10.004   9.554  0.00  0.00    +0.000 HD
ENDBRANCH  22  25
ENDBRANCH  16  19
ENDBRANCH   2  16
TORSDOF 5
ENDMDL
MODEL 7
REMARK VINA RESULT:    -6.609      2.876      4.869
REMARK INTER + INTRA:          -9.360
REMARK INTER:                  -8.490
REMARK INTRA:                  -0.870
REMARK UNBOUND:                -0.819
REMARK  Name = 
REMARK  8 active torsions:
REMARK  status: ('A' for Active; 'I' for Inactive)
REMARK    1  A    between atoms: C_1  and  C_2
REMARK    2  A    between atoms: C_5  and  C_6
REMARK    3  A    between atoms: C_10  and  C_11
REMARK    4  A    between atoms: C_12  and  C_13
REMARK    5  A    between atoms: C_13  and  C_14
REMARK    6  A    between atoms: C_13  and  C_15
REMARK    7  A    between atoms: C_13  and  C_16
REMARK    8  A    between atoms: C_19  and  C_20
REMARK                            x       y       z     vdW  Elec       q    Type
REMARK                         _______ _______ _______ _____ _____    ______ ____
ROOT
ATOM      1  C   UNL     1      50.219   7.372  15.193  0.00  0.00    +0.000 C 
ATOM      2  C   UNL     1      49.798   6.575  16.193  0.00  0.00    +0.000 C 
ENDROOT
BRANCH   1   7
ATOM      3  C   UNL     1      47.703   6.742  12.440  0.00  0.00    +0.000 A 
ATOM      4  C   UNL     1      48.133   7.679  11.483  0.00  0.00    +0.000 A 
ATOM      5  C   UNL     1      49.246   8.492  11.708  0.00  0.00    +0.000 A 
ATOM      6  C   UNL     1      49.949   8.396  12.906  0.00  0.00    +0.000 A 
ATOM      7  C   UNL     1      49.543   7.491  13.893  0.00  0.00    +0.000 A 
ATOM      8  C   UNL     1      48.444   6.657  13.636  0.00  0.00    +0.000 A 
BRANCH   3  13
ATOM      9  C   UNL     1      43.255   3.328  11.524  0.00  0.00    +0.000 C 
ATOM     10  C   UNL     1      44.389   4.258  11.782  0.00  0.00    +0.000 A 
ATOM     11  C   UNL     1      44.989   4.382  13.016  0.00  0.00    +0.000 A 
ATOM     12  N   UNL     1      46.034   5.194  13.261  0.00  0.00    +0.000 NA
ATOM     13  C   UNL     1      46.500   5.914  12.221  0.00  0.00    +0.000 A 
ATOM     14  N   UNL     1      45.973   5.880  10.981  0.00  0.00    +0.000 NA
ATOM     15  C   UNL     1      44.929   5.050  10.792  0.00  0.00    +0.000 A 
ENDBRANCH   3  13
ENDBRANCH   1   7
BRANCH   2  16
ATOM     16  C   UNL     1      50.499   6.323  17.529  0.00  0.00    +0.000 C 
ATOM     17  C   UNL     1      51.644   7.364  17.618  0.00  0.00    +0.000 C 
ATOM     18  C   UNL     1      49.588   6.548  18.756  0.00  0.00    +0.000 C 
BRANCH  16  19
ATOM     19  C   UNL     1      51.051   4.891  17.573  0.00  0.00    +0.000 A 
ATOM     20  C   UNL     1      52.386   4.640  17.911  0.00  0.00    +0.000 A 
ATOM     21  N   UNL     1      52.931   3.396  17.967  0.00  0.00    +0.000 NA
ATOM     22  C   UNL     1      52.069   2.385  17.668  0.00  0.00    +0.000 A 
ATOM     23  C   UNL     1      50.746   2.611  17.330  0.00  0.00    +0.000 A 
ATOM     24  N   UNL     1      50.214   3.858  17.274  0.00  0.00    +0.000 NA
BRANCH  22  25
ATOM     25  C   UNL     1      52.586   0.989  17.717  0.00  0.00    +0.000 C 
ATOM     26  N   UNL     1      51.706   0.041  18.162  0.00  0.00    +0.000 N 
ATOM     27  O   UNL     1      53.725   0.700  17.381  0.00  0.00    +0.000 OA
ATOM     28  H   UNL     1      50.765   0.304  18.429  0.00  0.00    +0.000 HD
ATOM     29  H   UNL     1      51.998  -0.926  18.207  0.00  0.00    +0.000 HD
ENDBRANCH  22  25
ENDBRANCH  16  19
ENDBRANCH   2  16
TORSDOF 5
ENDMDL
MODEL 8
REMARK VINA RESULT:    -6.374      5.344      8.204
REMARK INTER + INTRA:          -9.056
REMARK INTER:                  -8.254
REMARK INTRA:                  -0.802
REMARK UNBOUND:                -0.819
REMARK  Name = 
REMARK  8 active torsions:
REMARK  status: ('A' for Active; 'I' for Inactive)
REMARK    1  A    between atoms: C_1  and  C_2
REMARK    2  A    between atoms: C_5  and  C_6
REMARK    3  A    between atoms: C_10  and  C_11
REMARK    4  A    between atoms: C_12  and  C_13
REMARK    5  A    between atoms: C_13  and  C_14
REMARK    6  A    between atoms: C_13  and  C_15
REMARK    7  A    between atoms: C_13  and  C_16
REMARK    8  A    between atoms: C_19  and  C_20
REMARK                            x       y       z     vdW  Elec       q    Type
REMARK                         _______ _______ _______ _____ _____    ______ ____
ROOT
ATOM      1  C   UNL     1      50.938   8.353  11.199  0.00  0.00    +0.000 C 
ATOM      2  C   UNL     1      52.242   8.031  11.114  0.00  0.00    +0.000 C 
ENDROOT
BRANCH   1   7
ATOM      3  C   UNL     1      47.930   6.813  12.897  0.00  0.00    +0.000 A 
ATOM      4  C   UNL     1      48.300   6.953  14.246  0.00  0.00    +0.000 A 
ATOM      5  C   UNL     1      49.499   7.565  14.614  0.00  0.00    +0.000 A 
ATOM      6  C   UNL     1      50.367   8.043  13.634  0.00  0.00    +0.000 A 
ATOM      7  C   UNL     1      50.047   7.906  12.279  0.00  0.00    +0.000 A 
ATOM      8  C   UNL     1      48.821   7.320  11.930  0.00  0.00    +0.000 A 
BRANCH   3  13
ATOM      9  C   UNL     1      42.981   4.414  11.472  0.00  0.00    +0.000 C 
ATOM     10  C   UNL     1      44.302   5.002  11.826  0.00  0.00    +0.000 A 
ATOM     11  C   UNL     1      45.078   5.697  10.925  0.00  0.00    +0.000 A 
ATOM     12  N   UNL     1      46.260   6.261  11.235  0.00  0.00    +0.000 NA
ATOM     13  C   UNL     1      46.683   6.124  12.507  0.00  0.00    +0.000 A 
ATOM     14  N   UNL     1      46.009   5.449  13.460  0.00  0.00    +0.000 NA
ATOM     15  C   UNL     1      44.833   4.904  13.094  0.00  0.00    +0.000 A 
ENDBRANCH   3  13
ENDBRANCH   1   7
BRANCH   2  16
ATOM     16  C   UNL     1      53.205   8.372   9.976  0.00  0.00    +0.000 C 
ATOM     17  C   UNL     1      52.588   9.589   9.240  0.00  0.00    +0.000 C 
ATOM     18  C   UNL     1      54.608   8.801  10.460  0.00  0.00    +0.000 C 
BRANCH  16  19
ATOM     19  C   UNL     1      53.349   7.171   9.029  0.00  0.00    +0.000 A 
ATOM     20  C   UNL     1      52.651   7.118   7.817  0.00  0.00    +0.000 A 
ATOM     21  N   UNL     1      52.738   6.084   6.939  0.00  0.00    +0.000 NA
ATOM     22  C   UNL     1      53.573   5.080   7.326  0.00  0.00    +0.000 A 
ATOM     23  C   UNL     1      54.271   5.112   8.520  0.00  0.00    +0.000 A 
ATOM     24  N   UNL     1      54.173   6.149   9.390  0.00  0.00    +0.000 NA
BRANCH  22  25
ATOM     25  C   UNL     1      53.733   3.913   6.414  0.00  0.00    +0.000 C 
ATOM     26  N   UNL     1      53.095   2.764   6.794  0.00  0.00    +0.000 N 
ATOM     27  O   UNL     1      54.392   3.972   5.385  0.00  0.00    +0.000 OA
ATOM     28  H   UNL     1      52.549   2.742   7.647  0.00  0.00    +0.000 HD
ATOM     29  H   UNL     1      53.160   1.943   6.208  0.00  0.00    +0.000 HD
ENDBRANCH  22  25
ENDBRANCH  16  19
ENDBRANCH   2  16
TORSDOF 5
ENDMDL
MODEL 9
REMARK VINA RESULT:    -6.265      4.788      7.309
REMARK INTER + INTRA:          -8.916
REMARK INTER:                  -8.129
REMARK INTRA:                  -0.787
REMARK UNBOUND:                -0.819
REMARK  Name = 
REMARK  8 active torsions:
REMARK  status: ('A' for Active; 'I' for Inactive)
REMARK    1  A    between atoms: C_1  and  C_2
REMARK    2  A    between atoms: C_5  and  C_6
REMARK    3  A    between atoms: C_10  and  C_11
REMARK    4  A    between atoms: C_12  and  C_13
REMARK    5  A    between atoms: C_13  and  C_14
REMARK    6  A    between atoms: C_13  and  C_15
REMARK    7  A    between atoms: C_13  and  C_16
REMARK    8  A    between atoms: C_19  and  C_20
REMARK                            x       y       z     vdW  Elec       q    Type
REMARK                         _______ _______ _______ _____ _____    ______ ____
ROOT
ATOM      1  C   UNL     1      49.630   8.669  12.231  0.00  0.00    +0.000 C 
ATOM      2  C   UNL     1      48.882   7.549  12.242  0.00  0.00    +0.000 C 
ENDROOT
BRANCH   1   7
ATOM      3  C   UNL     1      52.374   7.895   9.746  0.00  0.00    +0.000 A 
ATOM      4  C   UNL     1      52.944   9.171   9.591  0.00  0.00    +0.000 A 
ATOM      5  C   UNL     1      52.468  10.274  10.304  0.00  0.00    +0.000 A 
ATOM      6  C   UNL     1      51.397  10.127  11.182  0.00  0.00    +0.000 A 
ATOM      7  C   UNL     1      50.788   8.879  11.351  0.00  0.00    +0.000 A 
ATOM      8  C   UNL     1      51.302   7.775  10.653  0.00  0.00    +0.000 A 
BRANCH   3  13
ATOM      9  C   UNL     1      54.418   3.623   6.608  0.00  0.00    +0.000 C 
ATOM     10  C   UNL     1      53.850   4.709   7.453  0.00  0.00    +0.000 A 
ATOM     11  C   UNL     1      54.265   4.948   8.745  0.00  0.00    +0.000 A 
ATOM     12  N   UNL     1      53.785   5.944   9.512  0.00  0.00    +0.000 NA
ATOM     13  C   UNL     1      52.848   6.739   8.959  0.00  0.00    +0.000 A 
ATOM     14  N   UNL     1      52.362   6.580   7.711  0.00  0.00    +0.000 NA
ATOM     15  C   UNL     1      52.877   5.568   6.988  0.00  0.00    +0.000 A 
ENDBRANCH   3  13
ENDBRANCH   1   7
BRANCH   2  16
ATOM     16  C   UNL     1      47.731   7.219  13.192  0.00  0.00    +0.000 C 
ATOM     17  C   UNL     1      48.384   6.676  14.489  0.00  0.00    +0.000 C 
ATOM     18  C   UNL     1      46.886   8.449  13.592  0.00  0.00    +0.000 C 
BRANCH  16  19
ATOM     19  C   UNL     1      46.809   6.166  12.558  0.00  0.00    +0.000 A 
ATOM     20  C   UNL     1      46.473   4.992  13.242  0.00  0.00    +0.000 A 
ATOM     21  N   UNL     1      45.664   4.026  12.733  0.00  0.00    +0.000 NA
ATOM     22  C   UNL     1      45.187   4.285  11.484  0.00  0.00    +0.000 A 
ATOM     23  C   UNL     1      45.507   5.439  10.790  0.00  0.00    +0.000 A 
ATOM     24  N   UNL     1      46.320   6.395  11.307  0.00  0.00    +0.000 NA
BRANCH  22  25
ATOM     25  C   UNL     1      44.282   3.280  10.859  0.00  0.00    +0.000 C 
ATOM     26  N   UNL     1      44.875   2.390  10.005  0.00  0.00    +0.000 N 
ATOM     27  O   UNL     1      43.082   3.246  11.091  0.00  0.00    +0.000 OA
ATOM     28  H   UNL     1      45.873   2.435   9.834  0.00  0.00    +0.000 HD
ATOM     29  H   UNL     1      44.312   1.679   9.560  0.00  0.00    +0.000 HD
ENDBRANCH  22  25
ENDBRANCH  16  19
ENDBRANCH   2  16
TORSDOF 5
ENDMDL
