MODEL 1
REMARK VINA RESULT:    -8.116      0.000      0.000
REMARK INTER + INTRA:         -11.311
REMARK INTER:                 -10.488
REMARK INTRA:                  -0.823
REMARK UNBOUND:                -0.823
REMARK  Name = 
REMARK  5 active torsions:
REMARK  status: ('A' for Active; 'I' for Inactive)
REMARK    1  A    between atoms: C_2  and  C_3
REMARK    2  A    between atoms: C_7  and  N_8
REMARK    3  A    between atoms: N_8  and  C_9
REMARK    4  A    between atoms: C_9  and  C_10
REMARK    5  A    between atoms: C_15  and  C_16
REMARK                            x       y       z     vdW  Elec       q    Type
REMARK                         _______ _______ _______ _____ _____    ______ ____
ROOT
ATOM      1  C   UNL     1      43.948   4.888  11.261  0.00  0.00    +0.000 C 
ATOM      2  C   UNL     1      42.595   4.987  11.966  0.00  0.00    +0.000 C 
ATOM      3  C   UNL     1      43.017   6.060  11.023  0.00  0.00    +0.000 C 
ENDROOT
BRANCH   1   4
ATOM      4  C   UNL     1      45.200   5.190  12.080  0.00  0.00    +0.000 A 
ATOM      5  C   UNL     1      45.616   4.338  13.111  0.00  0.00    +0.000 A 
ATOM      6  C   UNL     1      46.808   4.575  13.782  0.00  0.00    +0.000 A 
ATOM      7  F   UNL     1      47.205   3.726  14.738  0.00  0.00    +0.000 F 
ATOM      8  C   UNL     1      47.608   5.667  13.467  0.00  0.00    +0.000 A 
ATOM      9  C   UNL     1      47.226   6.569  12.462  0.00  0.00    +0.000 A 
ATOM     10  C   UNL     1      46.014   6.306  11.791  0.00  0.00    +0.000 A 
BRANCH   9  11
ATOM     11  C   UNL     1      48.062   7.738  12.121  0.00  0.00    +0.000 A 
ATOM     12  C   UNL     1      49.413   7.615  11.761  0.00  0.00    +0.000 A 
ATOM     13  C   UNL     1      50.182   8.745  11.487  0.00  0.00    +0.000 A 
ATOM     14  C   UNL     1      49.577   9.986  11.561  0.00  0.00    +0.000 A 
ATOM     15  N   UNL     1      48.280  10.164  11.876  0.00  0.00    +0.000 NA
ATOM     16  C   UNL     1      47.563   9.045  12.147  0.00  0.00    +0.000 A 
ENDBRANCH   9  11
ENDBRANCH   1   4
BRANCH   1  17
ATOM     17  N   UNL     1      44.066   3.719  10.379  0.00  0.00    +0.000 N 
ATOM     18  H   UNL     1      43.943   2.808  10.818  0.00  0.00    +0.000 HD
BRANCH  17  23
ATOM     19  C   UNL     1      46.205   2.041   8.080  0.00  0.00    +0.000 A 
ATOM     20  C   UNL     1      46.676   3.066   7.280  0.00  0.00    +0.000 A 
ATOM     21  N   UNL     1      46.322   4.354   7.486  0.00  0.00    +0.000 NA
ATOM     22  C   UNL     1      45.471   4.565   8.529  0.00  0.00    +0.000 A 
ATOM     23  C   UNL     1      44.997   3.548   9.353  0.00  0.00    +0.000 A 
ATOM     24  N   UNL     1      45.362   2.265   9.127  0.00  0.00    +0.000 NA
BRANCH  19  26
ATOM     25  N   UNL     1      46.809  -0.439   7.608  0.00  0.00    +0.000 NA
ATOM     26  C   UNL     1      46.557   0.679   7.811  0.00  0.00    +0.000 C 
ENDBRANCH  19  26
ENDBRANCH  17  23
ENDBRANCH   1  17
TORSDOF 5
ENDMDL
MODEL 2
REMARK VINA RESULT:    -7.902      2.379      3.724
REMARK INTER + INTRA:         -11.035
REMARK INTER:                 -10.473
REMARK INTRA:                  -0.562
REMARK UNBOUND:                -0.823
REMARK  Name = 
REMARK  5 active torsions:
REMARK  status: ('A' for Active; 'I' for Inactive)
REMARK    1  A    between atoms: C_2  and  C_3
REMARK    2  A    between atoms: C_7  and  N_8
REMARK    3  A    between atoms: N_8  and  C_9
REMARK    4  A    between atoms: C_9  and  C_10
REMARK    5  A    between atoms: C_15  and  C_16
REMARK                            x       y       z     vdW  Elec       q    Type
REMARK                         _______ _______ _______ _____ _____    ______ ____
ROOT
ATOM      1  C   UNL     1      44.167   4.753  11.704  0.00  0.00    +0.000 C 
ATOM      2  C   UNL     1      42.946   4.740  12.626  0.00  0.00    +0.000 C 
ATOM      3  C   UNL     1      43.064   5.783  11.568  0.00  0.00    +0.000 C 
ENDROOT
BRANCH   1   4
ATOM      4  C   UNL     1      45.485   5.263  12.279  0.00  0.00    +0.000 A 
ATOM      5  C   UNL     1      46.202   6.289  11.651  0.00  0.00    +0.000 A 
ATOM      6  C   UNL     1      47.349   6.808  12.237  0.00  0.00    +0.000 A 
ATOM      7  F   UNL     1      47.998   7.814  11.637  0.00  0.00    +0.000 F 
ATOM      8  C   UNL     1      47.828   6.314  13.445  0.00  0.00    +0.000 A 
ATOM      9  C   UNL     1      47.164   5.269  14.105  0.00  0.00    +0.000 A 
ATOM     10  C   UNL     1      45.999   4.761  13.493  0.00  0.00    +0.000 A 
BRANCH   9  11
ATOM     11  C   UNL     1      47.663   4.728  15.386  0.00  0.00    +0.000 A 
ATOM     12  C   UNL     1      47.534   3.374  15.729  0.00  0.00    +0.000 A 
ATOM     13  C   UNL     1      47.978   2.907  16.967  0.00  0.00    +0.000 A 
ATOM     14  C   UNL     1      48.563   3.808  17.837  0.00  0.00    +0.000 A 
ATOM     15  N   UNL     1      48.737   5.113  17.552  0.00  0.00    +0.000 NA
ATOM     16  C   UNL     1      48.284   5.535  16.345  0.00  0.00    +0.000 A 
ENDBRANCH   9  11
ENDBRANCH   1   4
BRANCH   1  17
ATOM     17  N   UNL     1      44.291   3.545  10.878  0.00  0.00    +0.000 N 
ATOM     18  H   UNL     1      44.409   2.665  11.379  0.00  0.00    +0.000 HD
BRANCH  17  23
ATOM     19  C   UNL     1      46.058   1.995   8.203  0.00  0.00    +0.000 A 
ATOM     20  C   UNL     1      46.275   3.038   7.321  0.00  0.00    +0.000 A 
ATOM     21  N   UNL     1      45.866   4.298   7.589  0.00  0.00    +0.000 NA
ATOM     22  C   UNL     1      45.225   4.461   8.781  0.00  0.00    +0.000 A 
ATOM     23  C   UNL     1      45.010   3.427   9.687  0.00  0.00    +0.000 A 
ATOM     24  N   UNL     1      45.426   2.173   9.397  0.00  0.00    +0.000 NA
BRANCH  19  26
ATOM     25  N   UNL     1      46.817  -0.410   7.588  0.00  0.00    +0.000 NA
ATOM     26  C   UNL     1      46.459   0.660   7.874  0.00  0.00    +0.000 C 
ENDBRANCH  19  26
ENDBRANCH  17  23
ENDBRANCH   1  17
TORSDOF 5
ENDMDL
MODEL 3
REMARK VINA RESULT:    -7.450      3.081      6.968
REMARK INTER + INTRA:         -10.450
REMARK INTER:                  -9.720
REMARK INTRA:                  -0.730
REMARK UNBOUND:                -0.823
REMARK  Name = 
REMARK  5 active torsions:
REMARK  status: ('A' for Active; 'I' for Inactive)
REMARK    1  A    between atoms: C_2  and  C_3
REMARK    2  A    between atoms: C_7  and  N_8
REMARK    3  A    between atoms: N_8  and  C_9
REMARK    4  A    between atoms: C_9  and  C_10
REMARK    5  A    between atoms: C_15  and  C_16
REMARK                            x       y       z     vdW  Elec       q    Type
REMARK                         _______ _______ _______ _____ _____    ______ ____
ROOT
ATOM      1  C   UNL     1      46.516   7.249  12.600  0.00  0.00    +0.000 C 
ATOM      2  C   UNL     1      46.765   8.636  12.006  0.00  0.00    +0.000 C 
ATOM      3  C   UNL     1      45.939   8.496  13.239  0.00  0.00    +0.000 C 
ENDROOT
BRANCH   1   4
ATOM      4  C   UNL     1      45.515   6.341  11.892  0.00  0.00    +0.000 A 
ATOM      5  C   UNL     1      44.144   6.421  12.162  0.00  0.00    +0.000 A 
ATOM      6  C   UNL     1      43.237   5.657  11.440  0.00  0.00    +0.000 A 
ATOM      7  F   UNL     1      41.927   5.778  11.690  0.00  0.00    +0.000 F 
ATOM      8  C   UNL     1      43.662   4.781  10.448  0.00  0.00    +0.000 A 
ATOM      9  C   UNL     1      45.027   4.640  10.153  0.00  0.00    +0.000 A 
ATOM     10  C   UNL     1      45.929   5.430  10.896  0.00  0.00    +0.000 A 
BRANCH   9  11
ATOM     11  C   UNL     1      45.495   3.709   9.107  0.00  0.00    +0.000 A 
ATOM     12  C   UNL     1      46.039   4.158   7.893  0.00  0.00    +0.000 A 
ATOM     13  C   UNL     1      46.431   3.249   6.910  0.00  0.00    +0.000 A 
ATOM     14  C   UNL     1      46.287   1.899   7.168  0.00  0.00    +0.000 A 
ATOM     15  N   UNL     1      45.796   1.410   8.322  0.00  0.00    +0.000 NA
ATOM     16  C   UNL     1      45.413   2.320   9.252  0.00  0.00    +0.000 A 
ENDBRANCH   9  11
ENDBRANCH   1   4
BRANCH   1  17
ATOM     17  N   UNL     1      47.743   6.572  13.043  0.00  0.00    +0.000 N 
ATOM     18  H   UNL     1      48.028   5.754  12.505  0.00  0.00    +0.000 HD
BRANCH  17  23
ATOM     19  C   UNL     1      47.905   4.969  16.218  0.00  0.00    +0.000 A 
ATOM     20  C   UNL     1      48.899   5.670  16.876  0.00  0.00    +0.000 A 
ATOM     21  N   UNL     1      49.536   6.715  16.303  0.00  0.00    +0.000 NA
ATOM     22  C   UNL     1      49.133   7.020  15.038  0.00  0.00    +0.000 A 
ATOM     23  C   UNL     1      48.126   6.335  14.364  0.00  0.00    +0.000 A 
ATOM     24  N   UNL     1      47.503   5.290  14.957  0.00  0.00    +0.000 NA
BRANCH  19  26
ATOM     25  N   UNL     1      46.775   2.931  17.362  0.00  0.00    +0.000 NA
ATOM     26  C   UNL     1      47.280   3.834  16.830  0.00  0.00    +0.000 C 
ENDBRANCH  19  26
ENDBRANCH  17  23
ENDBRANCH   1  17
TORSDOF 5
ENDMDL
MODEL 4
REMARK VINA RESULT:    -7.016      3.226      7.333
REMARK INTER + INTRA:          -9.889
REMARK INTER:                  -9.011
REMARK INTRA:                  -0.878
REMARK UNBOUND:                -0.823
REMARK  Name = 
REMARK  5 active torsions:
REMARK  status: ('A' for Active; 'I' for Inactive)
REMARK    1  A    between atoms: C_2  and  C_3
REMARK    2  A    between atoms: C_7  and  N_8
REMARK    3  A    between atoms: N_8  and  C_9
REMARK    4  A    between atoms: C_9  and  C_10
REMARK    5  A    between atoms: C_15  and  C_16
REMARK                            x       y       z     vdW  Elec       q    Type
REMARK                         _______ _______ _______ _____ _____    ______ ____
ROOT
ATOM      1  C   UNL     1      49.123   8.033  12.713  0.00  0.00    +0.000 C 
ATOM      2  C   UNL     1      50.065   8.354  11.552  0.00  0.00    +0.000 C 
ATOM      3  C   UNL     1      49.681   9.427  12.512  0.00  0.00    +0.000 C 
ENDROOT
BRANCH   1   4
ATOM      4  C   UNL     1      47.640   7.858  12.398  0.00  0.00    +0.000 A 
ATOM      5  C   UNL     1      46.714   8.868  12.683  0.00  0.00    +0.000 A 
ATOM      6  C   UNL     1      45.385   8.733  12.303  0.00  0.00    +0.000 A 
ATOM      7  F   UNL     1      44.525   9.728  12.552  0.00  0.00    +0.000 F 
ATOM      8  C   UNL     1      44.935   7.592  11.649  0.00  0.00    +0.000 A 
ATOM      9  C   UNL     1      45.814   6.537  11.362  0.00  0.00    +0.000 A 
ATOM     10  C   UNL     1      47.160   6.698  11.754  0.00  0.00    +0.000 A 
BRANCH   9  11
ATOM     11  C   UNL     1      45.350   5.315  10.675  0.00  0.00    +0.000 A 
ATOM     12  C   UNL     1      45.550   5.105   9.301  0.00  0.00    +0.000 A 
ATOM     13  C   UNL     1      45.059   3.958   8.677  0.00  0.00    +0.000 A 
ATOM     14  C   UNL     1      44.388   3.027   9.448  0.00  0.00    +0.000 A 
ATOM     15  N   UNL     1      44.189   3.162  10.773  0.00  0.00    +0.000 NA
ATOM     16  C   UNL     1      44.669   4.293  11.346  0.00  0.00    +0.000 A 
ENDBRANCH   9  11
ENDBRANCH   1   4
BRANCH   1  17
ATOM     17  N   UNL     1      49.666   7.040  13.652  0.00  0.00    +0.000 N 
ATOM     18  H   UNL     1      49.841   6.110  13.274  0.00  0.00    +0.000 HD
BRANCH  17  23
ATOM     19  C   UNL     1      48.189   5.526  16.516  0.00  0.00    +0.000 A 
ATOM     20  C   UNL     1      48.618   6.331  17.555  0.00  0.00    +0.000 A 
ATOM     21  N   UNL     1      49.393   7.419  17.345  0.00  0.00    +0.000 NA
ATOM     22  C   UNL     1      49.720   7.659  16.044  0.00  0.00    +0.000 A 
ATOM     23  C   UNL     1      49.287   6.868  14.983  0.00  0.00    +0.000 A 
ATOM     24  N   UNL     1      48.514   5.782  15.217  0.00  0.00    +0.000 NA
BRANCH  19  26
ATOM     25  N   UNL     1      46.783   3.402  17.016  0.00  0.00    +0.000 NA
ATOM     26  C   UNL     1      47.409   4.352  16.770  0.00  0.00    +0.000 C 
ENDBRANCH  19  26
ENDBRANCH  17  23
ENDBRANCH   1  17
TORSDOF 5
ENDMDL
MODEL 5
REMARK VINA RESULT:    -6.255      3.747      7.447
REMARK INTER + INTRA:          -8.906
REMARK INTER:                  -8.255
REMARK INTRA:                  -0.651
REMARK UNBOUND:                -0.823
REMARK  Name = 
REMARK  5 active torsions:
REMARK  status: ('A' for Active; 'I' for Inactive)
REMARK    1  A    between atoms: C_2  and  C_3
REMARK    2  A    between atoms: C_7  and  N_8
REMARK    3  A    between atoms: N_8  and  C_9
REMARK    4  A    between atoms: C_9  and  C_10
REMARK    5  A    between atoms: C_15  and  C_16
REMARK                            x       y       z     vdW  Elec       q    Type
REMARK                         _______ _______ _______ _____ _____    ______ ____
ROOT
ATOM      1  C   UNL     1      48.006   7.627  13.926  0.00  0.00    +0.000 C 
ATOM      2  C   UNL     1      49.062   8.706  13.680  0.00  0.00    +0.000 C 
ATOM      3  C   UNL     1      48.129   8.833  14.835  0.00  0.00    +0.000 C 
ENDROOT
BRANCH   1   4
ATOM      4  C   UNL     1      46.785   7.605  13.011  0.00  0.00    +0.000 A 
ATOM      5  C   UNL     1      45.953   8.724  12.884  0.00  0.00    +0.000 A 
ATOM      6  C   UNL     1      44.903   8.722  11.976  0.00  0.00    +0.000 A 
ATOM      7  F   UNL     1      44.144   9.817  11.845  0.00  0.00    +0.000 F 
ATOM      8  C   UNL     1      44.636   7.609  11.187  0.00  0.00    +0.000 A 
ATOM      9  C   UNL     1      45.420   6.451  11.292  0.00  0.00    +0.000 A 
ATOM     10  C   UNL     1      46.484   6.478  12.217  0.00  0.00    +0.000 A 
BRANCH   9  11
ATOM     11  C   UNL     1      45.145   5.258  10.465  0.00  0.00    +0.000 A 
ATOM     12  C   UNL     1      45.707   5.084   9.190  0.00  0.00    +0.000 A 
ATOM     13  C   UNL     1      45.390   3.965   8.420  0.00  0.00    +0.000 A 
ATOM     14  C   UNL     1      44.524   3.026   8.949  0.00  0.00    +0.000 A 
ATOM     15  N   UNL     1      43.975   3.128  10.175  0.00  0.00    +0.000 NA
ATOM     16  C   UNL     1      44.295   4.233  10.893  0.00  0.00    +0.000 A 
ENDBRANCH   9  11
ENDBRANCH   1   4
BRANCH   1  17
ATOM     17  N   UNL     1      48.577   6.303  14.210  0.00  0.00    +0.000 N 
ATOM     18  H   UNL     1      48.764   5.709  13.402  0.00  0.00    +0.000 HD
BRANCH  17  23
ATOM     19  C   UNL     1      48.556   4.874  17.471  0.00  0.00    +0.000 A 
ATOM     20  C   UNL     1      47.503   3.979  17.417  0.00  0.00    +0.000 A 
ATOM     21  N   UNL     1      46.776   3.797  16.293  0.00  0.00    +0.000 NA
ATOM     22  C   UNL     1      47.152   4.558  15.227  0.00  0.00    +0.000 A 
ATOM     23  C   UNL     1      48.216   5.454  15.257  0.00  0.00    +0.000 A 
ATOM     24  N   UNL     1      48.929   5.623  16.395  0.00  0.00    +0.000 NA
BRANCH  19  26
ATOM     25  N   UNL     1      49.899   5.235  19.663  0.00  0.00    +0.000 NA
ATOM     26  C   UNL     1      49.280   5.084  18.689  0.00  0.00    +0.000 C 
ENDBRANCH  19  26
ENDBRANCH  17  23
ENDBRANCH   1  17
TORSDOF 5
ENDMDL
MODEL 6
REMARK VINA RESULT:    -6.106      4.263      7.554
REMARK INTER + INTRA:          -8.714
REMARK INTER:                  -9.017
REMARK INTRA:                   0.303
REMARK UNBOUND:                -0.823
REMARK  Name = 
REMARK  5 active torsions:
REMARK  status: ('A' for Active; 'I' for Inactive)
REMARK    1  A    between atoms: C_2  and  C_3
REMARK    2  A    between atoms: C_7  and  N_8
REMARK    3  A    between atoms: N_8  and  C_9
REMARK    4  A    between atoms: C_9  and  C_10
REMARK    5  A    between atoms: C_15  and  C_16
REMARK                            x       y       z     vdW  Elec       q    Type
REMARK                         _______ _______ _______ _____ _____    ______ ____
ROOT
ATOM      1  C   UNL     1      49.355   7.125  15.823  0.00  0.00    +0.000 C 
ATOM      2  C   UNL     1      50.868   6.904  15.876  0.00  0.00    +0.000 C 
ATOM      3  C   UNL     1      50.316   8.284  15.995  0.00  0.00    +0.000 C 
ENDROOT
BRANCH   1   4
ATOM      4  C   UNL     1      48.670   7.027  14.463  0.00  0.00    +0.000 A 
ATOM      5  C   UNL     1      49.218   7.635  13.328  0.00  0.00    +0.000 A 
ATOM      6  C   UNL     1      48.635   7.456  12.081  0.00  0.00    +0.000 A 
ATOM      7  F   UNL     1      49.199   8.016  11.003  0.00  0.00    +0.000 F 
ATOM      8  C   UNL     1      47.486   6.689  11.926  0.00  0.00    +0.000 A 
ATOM      9  C   UNL     1      46.878   6.079  13.033  0.00  0.00    +0.000 A 
ATOM     10  C   UNL     1      47.491   6.271  14.289  0.00  0.00    +0.000 A 
BRANCH   9  11
ATOM     11  C   UNL     1      45.653   5.267  12.887  0.00  0.00    +0.000 A 
ATOM     12  C   UNL     1      44.369   5.830  12.950  0.00  0.00    +0.000 A 
ATOM     13  C   UNL     1      43.233   5.025  12.851  0.00  0.00    +0.000 A 
ATOM     14  C   UNL     1      43.405   3.665  12.673  0.00  0.00    +0.000 A 
ATOM     15  N   UNL     1      44.611   3.073  12.580  0.00  0.00    +0.000 NA
ATOM     16  C   UNL     1      45.694   3.882  12.692  0.00  0.00    +0.000 A 
ENDBRANCH   9  11
ENDBRANCH   1   4
BRANCH   1  17
ATOM     17  N   UNL     1      48.628   6.470  16.919  0.00  0.00    +0.000 N 
ATOM     18  H   UNL     1      48.855   6.783  17.862  0.00  0.00    +0.000 HD
BRANCH  17  23
ATOM     19  C   UNL     1      49.141   2.952  17.125  0.00  0.00    +0.000 A 
ATOM     20  C   UNL     1      47.867   2.459  17.340  0.00  0.00    +0.000 A 
ATOM     21  N   UNL     1      46.787   3.270  17.402  0.00  0.00    +0.000 NA
ATOM     22  C   UNL     1      47.046   4.598  17.242  0.00  0.00    +0.000 A 
ATOM     23  C   UNL     1      48.319   5.112  17.010  0.00  0.00    +0.000 A 
ATOM     24  N   UNL     1      49.386   4.282  16.955  0.00  0.00    +0.000 NA
BRANCH  19  26
ATOM     25  N   UNL     1      51.180   1.345  17.131  0.00  0.00    +0.000 NA
ATOM     26  C   UNL     1      50.275   2.077  17.112  0.00  0.00    +0.000 C 
ENDBRANCH  19  26
ENDBRANCH  17  23
ENDBRANCH   1  17
TORSDOF 5
ENDMDL
MODEL 7
REMARK VINA RESULT:    -6.018      3.146      4.720
REMARK INTER + INTRA:          -8.599
REMARK INTER:                  -7.883
REMARK INTRA:                  -0.716
REMARK UNBOUND:                -0.823
REMARK  Name = 
REMARK  5 active torsions:
REMARK  status: ('A' for Active; 'I' for Inactive)
REMARK    1  A    between atoms: C_2  and  C_3
REMARK    2  A    between atoms: C_7  and  N_8
REMARK    3  A    between atoms: N_8  and  C_9
REMARK    4  A    between atoms: C_9  and  C_10
REMARK    5  A    between atoms: C_15  and  C_16
REMARK                            x       y       z     vdW  Elec       q    Type
REMARK                         _______ _______ _______ _____ _____    ______ ____
ROOT
ATOM      1  C   UNL     1      45.446   7.833  12.441  0.00  0.00    +0.000 C 
ATOM      2  C   UNL     1      44.929   9.258  12.650  0.00  0.00    +0.000 C 
ATOM      3  C   UNL     1      45.090   8.723  11.268  0.00  0.00    +0.000 C 
ENDROOT
BRANCH   1   4
ATOM      4  C   UNL     1      46.936   7.580  12.655  0.00  0.00    +0.000 A 
ATOM      5  C   UNL     1      47.866   7.817  11.636  0.00  0.00    +0.000 A 
ATOM      6  C   UNL     1      49.226   7.674  11.876  0.00  0.00    +0.000 A 
ATOM      7  F   UNL     1      50.100   7.944  10.898  0.00  0.00    +0.000 F 
ATOM      8  C   UNL     1      49.700   7.273  13.120  0.00  0.00    +0.000 A 
ATOM      9  C   UNL     1      48.811   6.995  14.170  0.00  0.00    +0.000 A 
ATOM     10  C   UNL     1      47.435   7.152  13.904  0.00  0.00    +0.000 A 
BRANCH   9  11
ATOM     11  C   UNL     1      49.298   6.561  15.495  0.00  0.00    +0.000 A 
ATOM     12  C   UNL     1      50.573   6.901  15.974  0.00  0.00    +0.000 A 
ATOM     13  C   UNL     1      51.015   6.438  17.212  0.00  0.00    +0.000 A 
ATOM     14  C   UNL     1      50.161   5.651  17.963  0.00  0.00    +0.000 A 
ATOM     15  N   UNL     1      48.919   5.313  17.567  0.00  0.00    +0.000 NA
ATOM     16  C   UNL     1      48.525   5.771  16.353  0.00  0.00    +0.000 A 
ENDBRANCH   9  11
ENDBRANCH   1   4
BRANCH   1  17
ATOM     17  N   UNL     1      44.566   6.802  13.007  0.00  0.00    +0.000 N 
ATOM     18  H   UNL     1      44.619   6.667  14.017  0.00  0.00    +0.000 HD
BRANCH  17  23
ATOM     19  C   UNL     1      44.370   4.230  10.552  0.00  0.00    +0.000 A 
ATOM     20  C   UNL     1      43.956   3.129  11.280  0.00  0.00    +0.000 A 
ATOM     21  N   UNL     1      43.704   3.202  12.606  0.00  0.00    +0.000 NA
ATOM     22  C   UNL     1      43.890   4.429  13.168  0.00  0.00    +0.000 A 
ATOM     23  C   UNL     1      44.292   5.552  12.450  0.00  0.00    +0.000 A 
ATOM     24  N   UNL     1      44.542   5.455  11.123  0.00  0.00    +0.000 NA
BRANCH  19  26
ATOM     25  N   UNL     1      44.965   4.023   8.034  0.00  0.00    +0.000 NA
ATOM     26  C   UNL     1      44.677   4.115   9.158  0.00  0.00    +0.000 C 
ENDBRANCH  19  26
ENDBRANCH  17  23
ENDBRANCH   1  17
TORSDOF 5
ENDMDL
MODEL 8
REMARK VINA RESULT:    -5.964      5.387      8.280
REMARK INTER + INTRA:          -8.530
REMARK INTER:                  -8.070
REMARK INTRA:                  -0.460
REMARK UNBOUND:                -0.823
REMARK  Name = 
REMARK  5 active torsions:
REMARK  status: ('A' for Active; 'I' for Inactive)
REMARK    1  A    between atoms: C_2  and  C_3
REMARK    2  A    between atoms: C_7  and  N_8
REMARK    3  A    between atoms: N_8  and  C_9
REMARK    4  A    between atoms: C_9  and  C_10
REMARK    5  A    between atoms: C_15  and  C_16
REMARK                            x       y       z     vdW  Elec       q    Type
REMARK                         _______ _______ _______ _____ _____    ______ ____
ROOT
ATOM      1  C   UNL     1      48.166   4.517  16.973  0.00  0.00    +0.000 C 
ATOM      2  C   UNL     1      47.167   4.751  18.107  0.00  0.00    +0.000 C 
ATOM      3  C   UNL     1      47.159   3.457  17.369  0.00  0.00    +0.000 C 
ENDROOT
BRANCH   1   4
ATOM      4  C   UNL     1      47.907   5.217  15.642  0.00  0.00    +0.000 A 
ATOM      5  C   UNL     1      48.644   6.344  15.258  0.00  0.00    +0.000 A 
ATOM      6  C   UNL     1      48.463   6.911  14.004  0.00  0.00    +0.000 A 
ATOM      7  F   UNL     1      49.205   7.965  13.644  0.00  0.00    +0.000 F 
ATOM      8  C   UNL     1      47.538   6.391  13.105  0.00  0.00    +0.000 A 
ATOM      9  C   UNL     1      46.754   5.280  13.447  0.00  0.00    +0.000 A 
ATOM     10  C   UNL     1      46.958   4.718  14.725  0.00  0.00    +0.000 A 
BRANCH   9  11
ATOM     11  C   UNL     1      45.762   4.720  12.506  0.00  0.00    +0.000 A 
ATOM     12  C   UNL     1      45.508   5.298  11.252  0.00  0.00    +0.000 A 
ATOM     13  C   UNL     1      44.533   4.768  10.408  0.00  0.00    +0.000 A 
ATOM     14  C   UNL     1      43.837   3.650  10.829  0.00  0.00    +0.000 A 
ATOM     15  N   UNL     1      44.054   3.038  12.009  0.00  0.00    +0.000 NA
ATOM     16  C   UNL     1      45.001   3.586  12.810  0.00  0.00    +0.000 A 
ENDBRANCH   9  11
ENDBRANCH   1   4
BRANCH   1  17
ATOM     17  N   UNL     1      49.569   4.546  17.412  0.00  0.00    +0.000 N 
ATOM     18  H   UNL     1      50.111   5.364  17.137  0.00  0.00    +0.000 HD
BRANCH  17  23
ATOM     19  C   UNL     1      52.512   2.674  18.122  0.00  0.00    +0.000 A 
ATOM     20  C   UNL     1      52.195   1.404  17.674  0.00  0.00    +0.000 A 
ATOM     21  N   UNL     1      51.004   1.126  17.099  0.00  0.00    +0.000 NA
ATOM     22  C   UNL     1      50.146   2.179  16.998  0.00  0.00    +0.000 A 
ATOM     23  C   UNL     1      50.452   3.466  17.430  0.00  0.00    +0.000 A 
ATOM     24  N   UNL     1      51.649   3.722  18.006  0.00  0.00    +0.000 NA
BRANCH  19  26
ATOM     25  N   UNL     1      54.773   3.180  19.294  0.00  0.00    +0.000 NA
ATOM     26  C   UNL     1      53.763   2.932  18.772  0.00  0.00    +0.000 C 
ENDBRANCH  19  26
ENDBRANCH  17  23
ENDBRANCH   1  17
TORSDOF 5
ENDMDL
MODEL 9
REMARK VINA RESULT:    -5.848      3.507      5.784
REMARK INTER + INTRA:          -8.380
REMARK INTER:                  -7.736
REMARK INTRA:                  -0.644
REMARK UNBOUND:                -0.823
REMARK  Name = 
REMARK  5 active torsions:
REMARK  status: ('A' for Active; 'I' for Inactive)
REMARK    1  A    between atoms: C_2  and  C_3
REMARK    2  A    between atoms: C_7  and  N_8
REMARK    3  A    between atoms: N_8  and  C_9
REMARK    4  A    between atoms: C_9  and  C_10
REMARK    5  A    between atoms: C_15  and  C_16
REMARK                            x       y       z     vdW  Elec       q    Type
REMARK                         _______ _______ _______ _____ _____    ______ ____
ROOT
ATOM      1  C   UNL     1      47.874   8.071  12.568  0.00  0.00    +0.000 C 
ATOM      2  C   UNL     1      48.525   9.177  11.737  0.00  0.00    +0.000 C 
ATOM      3  C   UNL     1      49.009   7.774  11.610  0.00  0.00    +0.000 C 
ENDROOT
BRANCH   1   4
ATOM      4  C   UNL     1      48.220   8.000  14.052  0.00  0.00    +0.000 A 
ATOM      5  C   UNL     1      48.207   9.146  14.857  0.00  0.00    +0.000 A 
ATOM      6  C   UNL     1      48.430   9.050  16.224  0.00  0.00    +0.000 A 
ATOM      7  F   UNL     1      48.375  10.154  16.979  0.00  0.00    +0.000 F 
ATOM      8  C   UNL     1      48.692   7.825  16.827  0.00  0.00    +0.000 A 
ATOM      9  C   UNL     1      48.744   6.648  16.065  0.00  0.00    +0.000 A 
ATOM     10  C   UNL     1      48.510   6.769  14.679  0.00  0.00    +0.000 A 
BRANCH   9  11
ATOM     11  C   UNL     1      49.028   5.340  16.689  0.00  0.00    +0.000 A 
ATOM     12  C   UNL     1      50.272   5.037  17.262  0.00  0.00    +0.000 A 
ATOM     13  C   UNL     1      50.518   3.775  17.804  0.00  0.00    +0.000 A 
ATOM     14  C   UNL     1      49.501   2.839  17.778  0.00  0.00    +0.000 A 
ATOM     15  N   UNL     1      48.280   3.081  17.265  0.00  0.00    +0.000 NA
ATOM     16  C   UNL     1      48.078   4.313  16.736  0.00  0.00    +0.000 A 
ENDBRANCH   9  11
ENDBRANCH   1   4
BRANCH   1  17
ATOM     17  N   UNL     1      46.449   7.872  12.266  0.00  0.00    +0.000 N 
ATOM     18  H   UNL     1      45.793   8.463  12.776  0.00  0.00    +0.000 HD
BRANCH  17  23
ATOM     19  C   UNL     1      45.252   5.002  10.533  0.00  0.00    +0.000 A 
ATOM     20  C   UNL     1      44.745   4.209  11.546  0.00  0.00    +0.000 A 
ATOM     21  N   UNL     1      44.758   4.605  12.838  0.00  0.00    +0.000 NA
ATOM     22  C   UNL     1      45.308   5.831  13.066  0.00  0.00    +0.000 A 
ATOM     23  C   UNL     1      45.811   6.649  12.059  0.00  0.00    +0.000 A 
ATOM     24  N   UNL     1      45.790   6.231  10.772  0.00  0.00    +0.000 NA
BRANCH  19  26
ATOM     25  N   UNL     1      45.312   4.189   8.068  0.00  0.00    +0.000 NA
ATOM     26  C   UNL     1      45.270   4.539   9.177  0.00  0.00    +0.000 C 
ENDBRANCH  19  26
ENDBRANCH  17  23
ENDBRANCH   1  17
TORSDOF 5
ENDMDL
