MODEL 1
REMARK VINA RESULT:    -7.537      0.000      0.000
REMARK INTER + INTRA:         -12.133
REMARK INTER:                 -10.621
REMARK INTRA:                  -1.512
REMARK UNBOUND:                -1.512
REMARK  Name = 
REMARK  9 active torsions:
REMARK  status: ('A' for Active; 'I' for Inactive)
REMARK    1  A    between atoms: C_1  and  O_2
REMARK    2  A    between atoms: O_2  and  C_3
REMARK    3  A    between atoms: C_5  and  C_6
REMARK    4  A    between atoms: C_6  and  N_7
REMARK    5  A    between atoms: C_8  and  C_10
REMARK    6  A    between atoms: N_16  and  C_17
REMARK    7  A    between atoms: C_23  and  C_24
REMARK    8  A    between atoms: C_24  and  N_25
REMARK    9  A    between atoms: C_26  and  C_28
REMARK                            x       y       z     vdW  Elec       q    Type
REMARK                         _______ _______ _______ _____ _____    ______ ____
ROOT
ATOM      1  C   UNL     1      45.971   5.789  12.438  0.00  0.00    +0.000 A 
ATOM      2  C   UNL     1      46.763   6.664  13.187  0.00  0.00    +0.000 A 
ATOM      3  C   UNL     1      46.625   8.046  13.049  0.00  0.00    +0.000 A 
ATOM      4  C   UNL     1      45.719   8.497  12.101  0.00  0.00    +0.000 A 
ATOM      5  N   UNL     1      44.952   7.685  11.334  0.00  0.00    +0.000 NA
ATOM      6  C   UNL     1      45.093   6.337  11.495  0.00  0.00    +0.000 A 
ENDROOT
BRANCH   1   8
ATOM      7  C   UNL     1      46.772   3.944  13.678  0.00  0.00    +0.000 C 
ATOM      8  O   UNL     1      46.014   4.428  12.572  0.00  0.00    +0.000 OA
ENDBRANCH   1   8
BRANCH   3   9
ATOM      9  C   UNL     1      47.434   8.979  13.903  0.00  0.00    +0.000 C 
BRANCH   9  10
ATOM     10  N   UNL     1      47.618   8.470  15.236  0.00  0.00    +0.000 N 
ATOM     11  C   UNL     1      48.723   8.708  16.009  0.00  0.00    +0.000 C 
ATOM     12  O   UNL     1      49.699   9.326  15.593  0.00  0.00    +0.000 OA
ATOM     13  H   UNL     1      46.786   8.098  15.679  0.00  0.00    +0.000 HD
BRANCH  11  14
ATOM     14  C   UNL     1      48.692   8.131  17.363  0.00  0.00    +0.000 A 
ATOM     15  C   UNL     1      48.648   8.960  18.477  0.00  0.00    +0.000 A 
ATOM     16  S   UNL     1      48.633   8.112  19.958  0.00  0.00    +0.000 S 
ATOM     17  C   UNL     1      48.641   6.608  19.162  0.00  0.00    +0.000 A 
ATOM     18  N   UNL     1      48.602   5.446  19.863  0.00  0.00    +0.000 NA
ATOM     19  C   UNL     1      48.583   4.378  19.133  0.00  0.00    +0.000 A 
ATOM     20  N   UNL     1      48.614   4.352  17.755  0.00  0.00    +0.000 N 
ATOM     21  C   UNL     1      48.618   3.099  17.030  0.00  0.00    +0.000 C 
ATOM     22  C   UNL     1      48.718   5.520  17.012  0.00  0.00    +0.000 A 
ATOM     23  O   UNL     1      48.868   5.511  15.792  0.00  0.00    +0.000 OA
ATOM     24  C   UNL     1      48.692   6.748  17.790  0.00  0.00    +0.000 A 
ENDBRANCH  11  14
ENDBRANCH   9  10
ENDBRANCH   3   9
BRANCH   6  25
ATOM     25  C   UNL     1      44.208   5.458  10.633  0.00  0.00    +0.000 C 
BRANCH  25  26
ATOM     26  N   UNL     1      44.962   4.675   9.672  0.00  0.00    +0.000 N 
ATOM     27  C   UNL     1      44.778   3.320   9.510  0.00  0.00    +0.000 C 
ATOM     28  O   UNL     1      43.941   2.701  10.163  0.00  0.00    +0.000 OA
ATOM     29  H   UNL     1      45.647   5.142   9.095  0.00  0.00    +0.000 HD
BRANCH  27  30
ATOM     30  C   UNL     1      45.633   2.684   8.509  0.00  0.00    +0.000 A 
ATOM     31  C   UNL     1      45.953   1.341   8.412  0.00  0.00    +0.000 A 
ATOM     32  C   UNL     1      46.818   1.060   7.309  0.00  0.00    +0.000 A 
ATOM     33  C   UNL     1      47.133   2.195   6.602  0.00  0.00    +0.000 A 
ATOM     34  S   UNL     1      46.393   3.587   7.261  0.00  0.00    +0.000 S 
ENDBRANCH  27  30
ENDBRANCH  25  26
ENDBRANCH   6  25
TORSDOF 7
ENDMDL
MODEL 2
REMARK VINA RESULT:    -6.746      2.938      8.830
REMARK INTER + INTRA:         -11.018
REMARK INTER:                  -9.680
REMARK INTRA:                  -1.338
REMARK UNBOUND:                -1.512
REMARK  Name = 
REMARK  9 active torsions:
REMARK  status: ('A' for Active; 'I' for Inactive)
REMARK    1  A    between atoms: C_1  and  O_2
REMARK    2  A    between atoms: O_2  and  C_3
REMARK    3  A    between atoms: C_5  and  C_6
REMARK    4  A    between atoms: C_6  and  N_7
REMARK    5  A    between atoms: C_8  and  C_10
REMARK    6  A    between atoms: N_16  and  C_17
REMARK    7  A    between atoms: C_23  and  C_24
REMARK    8  A    between atoms: C_24  and  N_25
REMARK    9  A    between atoms: C_26  and  C_28
REMARK                            x       y       z     vdW  Elec       q    Type
REMARK                         _______ _______ _______ _____ _____    ______ ____
ROOT
ATOM      1  C   UNL     1      48.940   6.714  15.395  0.00  0.00    +0.000 A 
ATOM      2  C   UNL     1      48.026   6.905  14.354  0.00  0.00    +0.000 A 
ATOM      3  C   UNL     1      48.385   7.619  13.211  0.00  0.00    +0.000 A 
ATOM      4  C   UNL     1      49.657   8.174  13.188  0.00  0.00    +0.000 A 
ATOM      5  N   UNL     1      50.564   8.039  14.186  0.00  0.00    +0.000 NA
ATOM      6  C   UNL     1      50.196   7.324  15.288  0.00  0.00    +0.000 A 
ENDROOT
BRANCH   1   8
ATOM      7  C   UNL     1      47.889   4.799  16.295  0.00  0.00    +0.000 C 
ATOM      8  O   UNL     1      48.671   5.972  16.512  0.00  0.00    +0.000 OA
ENDBRANCH   1   8
BRANCH   3   9
ATOM      9  C   UNL     1      47.420   7.764  12.071  0.00  0.00    +0.000 C 
BRANCH   9  10
ATOM     10  N   UNL     1      46.657   6.564  11.853  0.00  0.00    +0.000 N 
ATOM     11  C   UNL     1      45.326   6.543  11.530  0.00  0.00    +0.000 C 
ATOM     12  O   UNL     1      44.644   7.562  11.473  0.00  0.00    +0.000 OA
ATOM     13  H   UNL     1      47.200   5.718  11.730  0.00  0.00    +0.000 HD
BRANCH  11  14
ATOM     14  C   UNL     1      44.744   5.209  11.305  0.00  0.00    +0.000 A 
ATOM     15  C   UNL     1      43.907   4.640  12.255  0.00  0.00    +0.000 A 
ATOM     16  S   UNL     1      43.343   3.087  11.827  0.00  0.00    +0.000 S 
ATOM     17  C   UNL     1      44.165   3.139  10.337  0.00  0.00    +0.000 A 
ATOM     18  N   UNL     1      44.074   2.112   9.452  0.00  0.00    +0.000 NA
ATOM     19  C   UNL     1      44.724   2.295   8.349  0.00  0.00    +0.000 A 
ATOM     20  N   UNL     1      45.477   3.407   8.040  0.00  0.00    +0.000 N 
ATOM     21  C   UNL     1      46.192   3.502   6.784  0.00  0.00    +0.000 C 
ATOM     22  C   UNL     1      45.641   4.444   8.948  0.00  0.00    +0.000 A 
ATOM     23  O   UNL     1      46.404   5.386   8.740  0.00  0.00    +0.000 OA
ATOM     24  C   UNL     1      44.887   4.305  10.183  0.00  0.00    +0.000 A 
ENDBRANCH  11  14
ENDBRANCH   9  10
ENDBRANCH   3   9
BRANCH   6  25
ATOM     25  C   UNL     1      51.241   7.179  16.378  0.00  0.00    +0.000 C 
BRANCH  25  26
ATOM     26  N   UNL     1      51.629   5.799  16.602  0.00  0.00    +0.000 N 
ATOM     27  C   UNL     1      51.571   5.203  17.842  0.00  0.00    +0.000 C 
ATOM     28  O   UNL     1      51.164   5.810  18.830  0.00  0.00    +0.000 OA
ATOM     29  H   UNL     1      51.949   5.250  15.816  0.00  0.00    +0.000 HD
BRANCH  27  30
ATOM     30  C   UNL     1      52.015   3.811  17.892  0.00  0.00    +0.000 A 
ATOM     31  C   UNL     1      51.331   2.696  17.442  0.00  0.00    +0.000 A 
ATOM     32  C   UNL     1      52.059   1.483  17.647  0.00  0.00    +0.000 A 
ATOM     33  C   UNL     1      53.273   1.709  18.250  0.00  0.00    +0.000 A 
ATOM     34  S   UNL     1      53.532   3.368  18.565  0.00  0.00    +0.000 S 
ENDBRANCH  27  30
ENDBRANCH  25  26
ENDBRANCH   6  25
TORSDOF 7
ENDMDL
MODEL 3
REMARK VINA RESULT:    -6.632      1.946      2.239
REMARK INTER + INTRA:         -10.858
REMARK INTER:                  -9.320
REMARK INTRA:                  -1.538
REMARK UNBOUND:                -1.512
REMARK  Name = 
REMARK  9 active torsions:
REMARK  status: ('A' for Active; 'I' for Inactive)
REMARK    1  A    between atoms: C_1  and  O_2
REMARK    2  A    between atoms: O_2  and  C_3
REMARK    3  A    between atoms: C_5  and  C_6
REMARK    4  A    between atoms: C_6  and  N_7
REMARK    5  A    between atoms: C_8  and  C_10
REMARK    6  A    between atoms: N_16  and  C_17
REMARK    7  A    between atoms: C_23  and  C_24
REMARK    8  A    between atoms: C_24  and  N_25
REMARK    9  A    between atoms: C_26  and  C_28
REMARK                            x       y       z     vdW  Elec       q    Type
REMARK                         _______ _______ _______ _____ _____    ______ ____
ROOT
ATOM      1  C   UNL     1      46.672   6.575  12.820  0.00  0.00    +0.000 A 
ATOM      2  C   UNL     1      47.641   7.185  13.621  0.00  0.00    +0.000 A 
ATOM      3  C   UNL     1      47.656   8.570  13.793  0.00  0.00    +0.000 A 
ATOM      4  C   UNL     1      46.712   9.303  13.088  0.00  0.00    +0.000 A 
ATOM      5  N   UNL     1      45.774   8.756  12.278  0.00  0.00    +0.000 NA
ATOM      6  C   UNL     1      45.768   7.398  12.137  0.00  0.00    +0.000 A 
ENDROOT
BRANCH   1   8
ATOM      7  C   UNL     1      46.148   4.499  13.820  0.00  0.00    +0.000 C 
ATOM      8  O   UNL     1      46.564   5.220  12.662  0.00  0.00    +0.000 OA
ENDBRANCH   1   8
BRANCH   3   9
ATOM      9  C   UNL     1      48.660   9.211  14.706  0.00  0.00    +0.000 C 
BRANCH   9  10
ATOM     10  N   UNL     1      49.573   8.251  15.265  0.00  0.00    +0.000 N 
ATOM     11  C   UNL     1      50.068   8.307  16.541  0.00  0.00    +0.000 C 
ATOM     12  O   UNL     1      49.829   9.241  17.302  0.00  0.00    +0.000 OA
ATOM     13  H   UNL     1      49.672   7.388  14.744  0.00  0.00    +0.000 HD
BRANCH  11  14
ATOM     14  C   UNL     1      50.955   7.199  16.932  0.00  0.00    +0.000 A 
ATOM     15  C   UNL     1      52.299   7.434  17.189  0.00  0.00    +0.000 A 
ATOM     16  S   UNL     1      53.170   6.028  17.612  0.00  0.00    +0.000 S 
ATOM     17  C   UNL     1      51.772   5.063  17.508  0.00  0.00    +0.000 A 
ATOM     18  N   UNL     1      51.816   3.735  17.787  0.00  0.00    +0.000 NA
ATOM     19  C   UNL     1      50.677   3.128  17.696  0.00  0.00    +0.000 A 
ATOM     20  N   UNL     1      49.484   3.718  17.338  0.00  0.00    +0.000 N 
ATOM     21  C   UNL     1      48.265   2.942  17.239  0.00  0.00    +0.000 C 
ATOM     22  C   UNL     1      49.417   5.059  16.986  0.00  0.00    +0.000 A 
ATOM     23  O   UNL     1      48.390   5.574  16.549  0.00  0.00    +0.000 OA
ATOM     24  C   UNL     1      50.665   5.793  17.121  0.00  0.00    +0.000 A 
ENDBRANCH  11  14
ENDBRANCH   9  10
ENDBRANCH   3   9
BRANCH   6  25
ATOM     25  C   UNL     1      44.694   6.818  11.237  0.00  0.00    +0.000 C 
BRANCH  25  26
ATOM     26  N   UNL     1      45.224   5.883  10.263  0.00  0.00    +0.000 N 
ATOM     27  C   UNL     1      44.630   4.669   9.998  0.00  0.00    +0.000 C 
ATOM     28  O   UNL     1      43.596   4.321  10.565  0.00  0.00    +0.000 OA
ATOM     29  H   UNL     1      46.060   6.133   9.754  0.00  0.00    +0.000 HD
BRANCH  27  30
ATOM     30  C   UNL     1      45.305   3.842   9.000  0.00  0.00    +0.000 A 
ATOM     31  C   UNL     1      46.148   4.268   7.989  0.00  0.00    +0.000 A 
ATOM     32  C   UNL     1      46.637   3.189   7.189  0.00  0.00    +0.000 A 
ATOM     33  C   UNL     1      46.151   1.976   7.611  0.00  0.00    +0.000 A 
ATOM     34  S   UNL     1      45.115   2.135   8.960  0.00  0.00    +0.000 S 
ENDBRANCH  27  30
ENDBRANCH  25  26
ENDBRANCH   6  25
TORSDOF 7
ENDMDL
MODEL 4
REMARK VINA RESULT:    -6.345      4.404      8.063
REMARK INTER + INTRA:         -10.454
REMARK INTER:                  -9.289
REMARK INTRA:                  -1.165
REMARK UNBOUND:                -1.512
REMARK  Name = 
REMARK  9 active torsions:
REMARK  status: ('A' for Active; 'I' for Inactive)
REMARK    1  A    between atoms: C_1  and  O_2
REMARK    2  A    between atoms: O_2  and  C_3
REMARK    3  A    between atoms: C_5  and  C_6
REMARK    4  A    between atoms: C_6  and  N_7
REMARK    5  A    between atoms: C_8  and  C_10
REMARK    6  A    between atoms: N_16  and  C_17
REMARK    7  A    between atoms: C_23  and  C_24
REMARK    8  A    between atoms: C_24  and  N_25
REMARK    9  A    between atoms: C_26  and  C_28
REMARK                            x       y       z     vdW  Elec       q    Type
REMARK                         _______ _______ _______ _____ _____    ______ ____
ROOT
ATOM      1  C   UNL     1      49.601   9.678  12.309  0.00  0.00    +0.000 A 
ATOM      2  C   UNL     1      48.215   9.552  12.442  0.00  0.00    +0.000 A 
ATOM      3  C   UNL     1      47.637   8.319  12.746  0.00  0.00    +0.000 A 
ATOM      4  C   UNL     1      48.491   7.230  12.847  0.00  0.00    +0.000 A 
ATOM      5  N   UNL     1      49.836   7.301  12.697  0.00  0.00    +0.000 NA
ATOM      6  C   UNL     1      50.381   8.520  12.415  0.00  0.00    +0.000 A 
ENDROOT
BRANCH   1   8
ATOM      7  C   UNL     1      49.936  11.485  10.824  0.00  0.00    +0.000 C 
ATOM      8  O   UNL     1      50.234  10.868  12.075  0.00  0.00    +0.000 OA
ENDBRANCH   1   8
BRANCH   3   9
ATOM      9  C   UNL     1      46.155   8.204  12.950  0.00  0.00    +0.000 C 
BRANCH   9  10
ATOM     10  N   UNL     1      45.662   6.895  12.613  0.00  0.00    +0.000 N 
ATOM     11  C   UNL     1      44.770   6.641  11.606  0.00  0.00    +0.000 C 
ATOM     12  O   UNL     1      44.250   7.534  10.943  0.00  0.00    +0.000 OA
ATOM     13  H   UNL     1      46.175   6.120  13.015  0.00  0.00    +0.000 HD
BRANCH  11  14
ATOM     14  C   UNL     1      44.429   5.224  11.397  0.00  0.00    +0.000 A 
ATOM     15  C   UNL     1      43.650   4.546  12.326  0.00  0.00    +0.000 A 
ATOM     16  S   UNL     1      43.374   2.911  11.922  0.00  0.00    +0.000 S 
ATOM     17  C   UNL     1      44.250   3.063  10.471  0.00  0.00    +0.000 A 
ATOM     18  N   UNL     1      44.375   2.015   9.616  0.00  0.00    +0.000 NA
ATOM     19  C   UNL     1      45.041   2.277   8.539  0.00  0.00    +0.000 A 
ATOM     20  N   UNL     1      45.614   3.491   8.229  0.00  0.00    +0.000 N 
ATOM     21  C   UNL     1      46.366   3.673   7.004  0.00  0.00    +0.000 C 
ATOM     22  C   UNL     1      45.558   4.563   9.109  0.00  0.00    +0.000 A 
ATOM     23  O   UNL     1      46.164   5.613   8.906  0.00  0.00    +0.000 OA
ATOM     24  C   UNL     1      44.776   4.329  10.313  0.00  0.00    +0.000 A 
ENDBRANCH  11  14
ENDBRANCH   9  10
ENDBRANCH   3   9
BRANCH   6  25
ATOM     25  C   UNL     1      51.891   8.567  12.271  0.00  0.00    +0.000 C 
BRANCH  25  26
ATOM     26  N   UNL     1      52.385   7.653  11.259  0.00  0.00    +0.000 N 
ATOM     27  C   UNL     1      52.579   8.029   9.948  0.00  0.00    +0.000 C 
ATOM     28  O   UNL     1      52.358   9.177   9.569  0.00  0.00    +0.000 OA
ATOM     29  H   UNL     1      52.603   6.703  11.527  0.00  0.00    +0.000 HD
BRANCH  27  30
ATOM     30  C   UNL     1      53.067   6.978   9.057  0.00  0.00    +0.000 A 
ATOM     31  C   UNL     1      52.596   6.664   7.795  0.00  0.00    +0.000 A 
ATOM     32  C   UNL     1      53.305   5.575   7.199  0.00  0.00    +0.000 A 
ATOM     33  C   UNL     1      54.290   5.090   8.024  0.00  0.00    +0.000 A 
ATOM     34  S   UNL     1      54.361   5.940   9.505  0.00  0.00    +0.000 S 
ENDBRANCH  27  30
ENDBRANCH  25  26
ENDBRANCH   6  25
TORSDOF 7
ENDMDL
MODEL 5
REMARK VINA RESULT:    -6.010      3.138      8.182
REMARK INTER + INTRA:          -9.981
REMARK INTER:                  -8.581
REMARK INTRA:                  -1.400
REMARK UNBOUND:                -1.512
REMARK  Name = 
REMARK  9 active torsions:
REMARK  status: ('A' for Active; 'I' for Inactive)
REMARK    1  A    between atoms: C_1  and  O_2
REMARK    2  A    between atoms: O_2  and  C_3
REMARK    3  A    between atoms: C_5  and  C_6
REMARK    4  A    between atoms: C_6  and  N_7
REMARK    5  A    between atoms: C_8  and  C_10
REMARK    6  A    between atoms: N_16  and  C_17
REMARK    7  A    between atoms: C_23  and  C_24
REMARK    8  A    between atoms: C_24  and  N_25
REMARK    9  A    between atoms: C_26  and  C_28
REMARK                            x       y       z     vdW  Elec       q    Type
REMARK                         _______ _______ _______ _____ _____    ______ ____
ROOT
ATOM      1  C   UNL     1      48.976   5.498  16.959  0.00  0.00    +0.000 A 
ATOM      2  C   UNL     1      48.695   6.577  16.116  0.00  0.00    +0.000 A 
ATOM      3  C   UNL     1      48.880   7.890  16.550  0.00  0.00    +0.000 A 
ATOM      4  C   UNL     1      49.292   8.066  17.864  0.00  0.00    +0.000 A 
ATOM      5  N   UNL     1      49.547   7.051  18.724  0.00  0.00    +0.000 NA
ATOM      6  C   UNL     1      49.373   5.775  18.273  0.00  0.00    +0.000 A 
ENDROOT
BRANCH   1   8
ATOM      7  C   UNL     1      47.551   3.721  16.331  0.00  0.00    +0.000 C 
ATOM      8  O   UNL     1      48.876   4.189  16.573  0.00  0.00    +0.000 OA
ENDBRANCH   1   8
BRANCH   3   9
ATOM      9  C   UNL     1      48.638   9.040  15.618  0.00  0.00    +0.000 C 
BRANCH   9  10
ATOM     10  N   UNL     1      47.527   8.796  14.736  0.00  0.00    +0.000 N 
ATOM     11  C   UNL     1      47.632   8.677  13.376  0.00  0.00    +0.000 C 
ATOM     12  O   UNL     1      48.691   8.845  12.778  0.00  0.00    +0.000 OA
ATOM     13  H   UNL     1      46.672   8.493  15.185  0.00  0.00    +0.000 HD
BRANCH  11  14
ATOM     14  C   UNL     1      46.379   8.383  12.662  0.00  0.00    +0.000 A 
ATOM     15  C   UNL     1      45.627   9.413  12.112  0.00  0.00    +0.000 A 
ATOM     16  S   UNL     1      44.202   8.881  11.339  0.00  0.00    +0.000 S 
ATOM     17  C   UNL     1      44.561   7.252  11.673  0.00  0.00    +0.000 A 
ATOM     18  N   UNL     1      43.745   6.254  11.248  0.00  0.00    +0.000 NA
ATOM     19  C   UNL     1      44.152   5.062  11.545  0.00  0.00    +0.000 A 
ATOM     20  N   UNL     1      45.300   4.762  12.246  0.00  0.00    +0.000 N 
ATOM     21  C   UNL     1      45.654   3.392  12.552  0.00  0.00    +0.000 C 
ATOM     22  C   UNL     1      46.123   5.761  12.748  0.00  0.00    +0.000 A 
ATOM     23  O   UNL     1      47.083   5.518  13.476  0.00  0.00    +0.000 OA
ATOM     24  C   UNL     1      45.730   7.116  12.395  0.00  0.00    +0.000 A 
ENDBRANCH  11  14
ENDBRANCH   9  10
ENDBRANCH   3   9
BRANCH   6  25
ATOM     25  C   UNL     1      49.684   4.663  19.256  0.00  0.00    +0.000 C 
BRANCH  25  26
ATOM     26  N   UNL     1      50.607   3.682  18.719  0.00  0.00    +0.000 N 
ATOM     27  C   UNL     1      51.975   3.833  18.785  0.00  0.00    +0.000 C 
ATOM     28  O   UNL     1      52.489   4.809  19.327  0.00  0.00    +0.000 OA
ATOM     29  H   UNL     1      50.234   2.850  18.284  0.00  0.00    +0.000 HD
BRANCH  27  30
ATOM     30  C   UNL     1      52.757   2.757  18.180  0.00  0.00    +0.000 A 
ATOM     31  C   UNL     1      52.305   1.510  17.788  0.00  0.00    +0.000 A 
ATOM     32  C   UNL     1      53.342   0.699  17.229  0.00  0.00    +0.000 A 
ATOM     33  C   UNL     1      54.551   1.350  17.215  0.00  0.00    +0.000 A 
ATOM     34  S   UNL     1      54.439   2.925  17.869  0.00  0.00    +0.000 S 
ENDBRANCH  27  30
ENDBRANCH  25  26
ENDBRANCH   6  25
TORSDOF 7
ENDMDL
MODEL 6
REMARK VINA RESULT:    -5.934      3.673      8.924
REMARK INTER + INTRA:          -9.875
REMARK INTER:                  -8.249
REMARK INTRA:                  -1.625
REMARK UNBOUND:                -1.512
REMARK  Name = 
REMARK  9 active torsions:
REMARK  status: ('A' for Active; 'I' for Inactive)
REMARK    1  A    between atoms: C_1  and  O_2
REMARK    2  A    between atoms: O_2  and  C_3
REMARK    3  A    between atoms: C_5  and  C_6
REMARK    4  A    between atoms: C_6  and  N_7
REMARK    5  A    between atoms: C_8  and  C_10
REMARK    6  A    between atoms: N_16  and  C_17
REMARK    7  A    between atoms: C_23  and  C_24
REMARK    8  A    between atoms: C_24  and  N_25
REMARK    9  A    between atoms: C_26  and  C_28
REMARK                            x       y       z     vdW  Elec       q    Type
REMARK                         _______ _______ _______ _____ _____    ______ ____
ROOT
ATOM      1  C   UNL     1      50.963   3.121  17.753  0.00  0.00    +0.000 A 
ATOM      2  C   UNL     1      49.658   2.821  17.351  0.00  0.00    +0.000 A 
ATOM      3  C   UNL     1      48.591   3.643  17.719  0.00  0.00    +0.000 A 
ATOM      4  C   UNL     1      48.882   4.721  18.543  0.00  0.00    +0.000 A 
ATOM      5  N   UNL     1      50.126   5.031  18.980  0.00  0.00    +0.000 NA
ATOM      6  C   UNL     1      51.156   4.222  18.596  0.00  0.00    +0.000 A 
ENDROOT
BRANCH   1   8
ATOM      7  C   UNL     1      52.016   1.007  17.708  0.00  0.00    +0.000 C 
ATOM      8  O   UNL     1      52.057   2.392  17.375  0.00  0.00    +0.000 OA
ENDBRANCH   1   8
BRANCH   3   9
ATOM      9  C   UNL     1      47.203   3.351  17.230  0.00  0.00    +0.000 C 
BRANCH   9  10
ATOM     10  N   UNL     1      46.805   4.239  16.171  0.00  0.00    +0.000 N 
ATOM     11  C   UNL     1      46.940   3.960  14.837  0.00  0.00    +0.000 C 
ATOM     12  O   UNL     1      47.491   2.942  14.427  0.00  0.00    +0.000 OA
ATOM     13  H   UNL     1      46.206   5.007  16.448  0.00  0.00    +0.000 HD
BRANCH  11  14
ATOM     14  C   UNL     1      46.427   4.987  13.914  0.00  0.00    +0.000 A 
ATOM     15  C   UNL     1      45.214   4.801  13.264  0.00  0.00    +0.000 A 
ATOM     16  S   UNL     1      44.792   6.087  12.226  0.00  0.00    +0.000 S 
ATOM     17  C   UNL     1      46.194   6.957  12.641  0.00  0.00    +0.000 A 
ATOM     18  N   UNL     1      46.435   8.187  12.119  0.00  0.00    +0.000 NA
ATOM     19  C   UNL     1      47.521   8.748  12.542  0.00  0.00    +0.000 A 
ATOM     20  N   UNL     1      48.411   8.193  13.436  0.00  0.00    +0.000 N 
ATOM     21  C   UNL     1      49.616   8.894  13.826  0.00  0.00    +0.000 C 
ATOM     22  C   UNL     1      48.225   6.912  13.940  0.00  0.00    +0.000 A 
ATOM     23  O   UNL     1      49.066   6.354  14.642  0.00  0.00    +0.000 OA
ATOM     24  C   UNL     1      46.991   6.263  13.530  0.00  0.00    +0.000 A 
ENDBRANCH  11  14
ENDBRANCH   9  10
ENDBRANCH   3   9
BRANCH   6  25
ATOM     25  C   UNL     1      52.538   4.609  19.089  0.00  0.00    +0.000 C 
BRANCH  25  26
ATOM     26  N   UNL     1      53.358   5.200  18.049  0.00  0.00    +0.000 N 
ATOM     27  C   UNL     1      53.335   6.546  17.760  0.00  0.00    +0.000 C 
ATOM     28  O   UNL     1      52.625   7.328  18.389  0.00  0.00    +0.000 OA
ATOM     29  H   UNL     1      53.976   4.603  17.519  0.00  0.00    +0.000 HD
BRANCH  27  30
ATOM     30  C   UNL     1      54.213   6.972  16.672  0.00  0.00    +0.000 A 
ATOM     31  C   UNL     1      54.502   6.280  15.509  0.00  0.00    +0.000 A 
ATOM     32  C   UNL     1      55.403   6.990  14.655  0.00  0.00    +0.000 A 
ATOM     33  C   UNL     1      55.775   8.198  15.193  0.00  0.00    +0.000 A 
ATOM     34  S   UNL     1      55.045   8.474  16.714  0.00  0.00    +0.000 S 
ENDBRANCH  27  30
ENDBRANCH  25  26
ENDBRANCH   6  25
TORSDOF 7
ENDMDL
MODEL 7
REMARK VINA RESULT:    -5.920      3.722      9.572
REMARK INTER + INTRA:          -9.854
REMARK INTER:                  -8.874
REMARK INTRA:                  -0.980
REMARK UNBOUND:                -1.512
REMARK  Name = 
REMARK  9 active torsions:
REMARK  status: ('A' for Active; 'I' for Inactive)
REMARK    1  A    between atoms: C_1  and  O_2
REMARK    2  A    between atoms: O_2  and  C_3
REMARK    3  A    between atoms: C_5  and  C_6
REMARK    4  A    between atoms: C_6  and  N_7
REMARK    5  A    between atoms: C_8  and  C_10
REMARK    6  A    between atoms: N_16  and  C_17
REMARK    7  A    between atoms: C_23  and  C_24
REMARK    8  A    between atoms: C_24  and  N_25
REMARK    9  A    between atoms: C_26  and  C_28
REMARK                            x       y       z     vdW  Elec       q    Type
REMARK                         _______ _______ _______ _____ _____    ______ ____
ROOT
ATOM      1  C   UNL     1      50.947   3.497  18.105  0.00  0.00    +0.000 A 
ATOM      2  C   UNL     1      49.645   3.332  17.625  0.00  0.00    +0.000 A 
ATOM      3  C   UNL     1      48.638   4.236  17.966  0.00  0.00    +0.000 A 
ATOM      4  C   UNL     1      48.979   5.258  18.842  0.00  0.00    +0.000 A 
ATOM      5  N   UNL     1      50.221   5.438  19.354  0.00  0.00    +0.000 NA
ATOM      6  C   UNL     1      51.193   4.550  18.995  0.00  0.00    +0.000 A 
ENDROOT
BRANCH   1   8
ATOM      7  C   UNL     1      51.634   1.352  17.392  0.00  0.00    +0.000 C 
ATOM      8  O   UNL     1      51.991   2.683  17.758  0.00  0.00    +0.000 OA
ENDBRANCH   1   8
BRANCH   3   9
ATOM      9  C   UNL     1      47.258   4.088  17.396  0.00  0.00    +0.000 C 
BRANCH   9  10
ATOM     10  N   UNL     1      47.105   4.806  16.159  0.00  0.00    +0.000 N 
ATOM     11  C   UNL     1      47.241   4.244  14.917  0.00  0.00    +0.000 C 
ATOM     12  O   UNL     1      47.586   3.077  14.755  0.00  0.00    +0.000 OA
ATOM     13  H   UNL     1      46.667   5.716  16.234  0.00  0.00    +0.000 HD
BRANCH  11  14
ATOM     14  C   UNL     1      46.997   5.144  13.778  0.00  0.00    +0.000 A 
ATOM     15  C   UNL     1      47.605   6.392  13.729  0.00  0.00    +0.000 A 
ATOM     16  S   UNL     1      47.192   7.299  12.344  0.00  0.00    +0.000 S 
ATOM     17  C   UNL     1      46.221   6.039  11.740  0.00  0.00    +0.000 A 
ATOM     18  N   UNL     1      45.587   6.155  10.545  0.00  0.00    +0.000 NA
ATOM     19  C   UNL     1      44.906   5.113  10.193  0.00  0.00    +0.000 A 
ATOM     20  N   UNL     1      44.781   3.955  10.929  0.00  0.00    +0.000 N 
ATOM     21  C   UNL     1      43.971   2.852  10.458  0.00  0.00    +0.000 C 
ATOM     22  C   UNL     1      45.365   3.828  12.183  0.00  0.00    +0.000 A 
ATOM     23  O   UNL     1      45.166   2.853  12.905  0.00  0.00    +0.000 OA
ATOM     24  C   UNL     1      46.181   4.958  12.597  0.00  0.00    +0.000 A 
ENDBRANCH  11  14
ENDBRANCH   9  10
ENDBRANCH   3   9
BRANCH   6  25
ATOM     25  C   UNL     1      52.575   4.792  19.572  0.00  0.00    +0.000 C 
BRANCH  25  26
ATOM     26  N   UNL     1      53.157   6.043  19.126  0.00  0.00    +0.000 N 
ATOM     27  C   UNL     1      53.955   6.135  18.008  0.00  0.00    +0.000 C 
ATOM     28  O   UNL     1      54.202   5.154  17.310  0.00  0.00    +0.000 OA
ATOM     29  H   UNL     1      52.965   6.884  19.653  0.00  0.00    +0.000 HD
BRANCH  27  30
ATOM     30  C   UNL     1      54.472   7.470  17.711  0.00  0.00    +0.000 A 
ATOM     31  C   UNL     1      54.529   8.556  18.566  0.00  0.00    +0.000 A 
ATOM     32  C   UNL     1      55.097   9.714  17.949  0.00  0.00    +0.000 A 
ATOM     33  C   UNL     1      55.453   9.477  16.644  0.00  0.00    +0.000 A 
ATOM     34  S   UNL     1      55.105   7.873  16.166  0.00  0.00    +0.000 S 
ENDBRANCH  27  30
ENDBRANCH  25  26
ENDBRANCH   6  25
TORSDOF 7
ENDMDL
MODEL 8
REMARK VINA RESULT:    -5.459      3.379      9.394
REMARK INTER + INTRA:          -9.204
REMARK INTER:                  -7.454
REMARK INTRA:                  -1.750
REMARK UNBOUND:                -1.512
REMARK  Name = 
REMARK  9 active torsions:
REMARK  status: ('A' for Active; 'I' for Inactive)
REMARK    1  A    between atoms: C_1  and  O_2
REMARK    2  A    between atoms: O_2  and  C_3
REMARK    3  A    between atoms: C_5  and  C_6
REMARK    4  A    between atoms: C_6  and  N_7
REMARK    5  A    between atoms: C_8  and  C_10
REMARK    6  A    between atoms: N_16  and  C_17
REMARK    7  A    between atoms: C_23  and  C_24
REMARK    8  A    between atoms: C_24  and  N_25
REMARK    9  A    between atoms: C_26  and  C_28
REMARK                            x       y       z     vdW  Elec       q    Type
REMARK                         _______ _______ _______ _____ _____    ______ ____
ROOT
ATOM      1  C   UNL     1      49.944   5.058  19.240  0.00  0.00    +0.000 A 
ATOM      2  C   UNL     1      48.685   4.841  18.672  0.00  0.00    +0.000 A 
ATOM      3  C   UNL     1      48.497   3.844  17.715  0.00  0.00    +0.000 A 
ATOM      4  C   UNL     1      49.619   3.131  17.318  0.00  0.00    +0.000 A 
ATOM      5  N   UNL     1      50.862   3.327  17.821  0.00  0.00    +0.000 NA
ATOM      6  C   UNL     1      51.020   4.298  18.767  0.00  0.00    +0.000 A 
ENDROOT
BRANCH   1   8
ATOM      7  C   UNL     1      49.705   7.294  19.965  0.00  0.00    +0.000 C 
ATOM      8  O   UNL     1      50.181   5.976  20.227  0.00  0.00    +0.000 OA
ENDBRANCH   1   8
BRANCH   3   9
ATOM      9  C   UNL     1      47.130   3.575  17.157  0.00  0.00    +0.000 C 
BRANCH   9  10
ATOM     10  N   UNL     1      46.836   4.409  16.022  0.00  0.00    +0.000 N 
ATOM     11  C   UNL     1      47.005   4.026  14.717  0.00  0.00    +0.000 C 
ATOM     12  O   UNL     1      47.501   2.948  14.404  0.00  0.00    +0.000 OA
ATOM     13  H   UNL     1      46.281   5.233  16.218  0.00  0.00    +0.000 HD
BRANCH  11  14
ATOM     14  C   UNL     1      46.600   5.015  13.704  0.00  0.00    +0.000 A 
ATOM     15  C   UNL     1      45.528   4.756  12.861  0.00  0.00    +0.000 A 
ATOM     16  S   UNL     1      45.218   6.009  11.745  0.00  0.00    +0.000 S 
ATOM     17  C   UNL     1      46.479   6.960  12.377  0.00  0.00    +0.000 A 
ATOM     18  N   UNL     1      46.738   8.198  11.883  0.00  0.00    +0.000 NA
ATOM     19  C   UNL     1      47.704   8.823  12.474  0.00  0.00    +0.000 A 
ATOM     20  N   UNL     1      48.457   8.326  13.515  0.00  0.00    +0.000 N 
ATOM     21  C   UNL     1      49.538   9.097  14.092  0.00  0.00    +0.000 C 
ATOM     22  C   UNL     1      48.259   7.040  14.002  0.00  0.00    +0.000 A 
ATOM     23  O   UNL     1      48.998   6.536  14.846  0.00  0.00    +0.000 OA
ATOM     24  C   UNL     1      47.150   6.319  13.399  0.00  0.00    +0.000 A 
ENDBRANCH  11  14
ENDBRANCH   9  10
ENDBRANCH   3   9
BRANCH   6  25
ATOM     25  C   UNL     1      52.421   4.480  19.320  0.00  0.00    +0.000 C 
BRANCH  25  26
ATOM     26  N   UNL     1      52.938   5.818  19.107  0.00  0.00    +0.000 N 
ATOM     27  C   UNL     1      53.505   6.215  17.917  0.00  0.00    +0.000 C 
ATOM     28  O   UNL     1      53.584   5.454  16.955  0.00  0.00    +0.000 OA
ATOM     29  H   UNL     1      52.876   6.489  19.860  0.00  0.00    +0.000 HD
BRANCH  27  30
ATOM     30  C   UNL     1      53.990   7.594  17.879  0.00  0.00    +0.000 A 
ATOM     31  C   UNL     1      55.306   8.020  17.917  0.00  0.00    +0.000 A 
ATOM     32  C   UNL     1      55.425   9.444  17.862  0.00  0.00    +0.000 A 
ATOM     33  C   UNL     1      54.199  10.059  17.787  0.00  0.00    +0.000 A 
ATOM     34  S   UNL     1      52.915   8.930  17.783  0.00  0.00    +0.000 S 
ENDBRANCH  27  30
ENDBRANCH  25  26
ENDBRANCH   6  25
TORSDOF 7
ENDMDL
