MODEL 1
REMARK VINA RESULT:    -6.630      0.000      0.000
REMARK INTER + INTRA:         -10.330
REMARK INTER:                  -9.150
REMARK INTRA:                  -1.180
REMARK UNBOUND:                -1.180
REMARK  Name = 
REMARK  7 active torsions:
REMARK  status: ('A' for Active; 'I' for Inactive)
REMARK    1  A    between atoms: N_1  and  C_2
REMARK    2  A    between atoms: C_2  and  C_3
REMARK    3  A    between atoms: C_6  and  C_7
REMARK    4  A    between atoms: C_7  and  C_8
REMARK    5  A    between atoms: C_11  and  C_12
REMARK    6  A    between atoms: C_12  and  N_13
REMARK    7  A    between atoms: C_14  and  C_16
REMARK                            x       y       z     vdW  Elec       q    Type
REMARK                         _______ _______ _______ _____ _____    ______ ____
ROOT
ATOM      1  C   UNL     1      49.423   7.935  15.459  0.00  0.00    +0.000 A 
ATOM      2  C   UNL     1      48.421   8.878  15.245  0.00  0.00    +0.000 A 
ATOM      3  C   UNL     1      47.703   8.849  14.050  0.00  0.00    +0.000 A 
ATOM      4  C   UNL     1      48.020   7.909  13.069  0.00  0.00    +0.000 A 
ATOM      5  C   UNL     1      49.049   7.020  13.361  0.00  0.00    +0.000 A 
ATOM      6  N   UNL     1      49.745   7.006  14.527  0.00  0.00    +0.000 NA
ENDROOT
BRANCH   1   7
ATOM      7  C   UNL     1      50.119   7.860  16.803  0.00  0.00    +0.000 C 
BRANCH   7  11
ATOM      8  C   UNL     1      50.075   5.011  19.417  0.00  0.00    +0.000 C 
ATOM      9  C   UNL     1      49.337   4.992  18.068  0.00  0.00    +0.000 C 
ATOM     10  C   UNL     1      48.444   6.217  17.862  0.00  0.00    +0.000 C 
ATOM     11  C   UNL     1      49.201   7.549  18.007  0.00  0.00    +0.000 C 
ATOM     12  C   UNL     1      50.000   7.570  19.327  0.00  0.00    +0.000 C 
ATOM     13  C   UNL     1      50.868   6.325  19.539  0.00  0.00    +0.000 C 
BRANCH   8  14
ATOM     14  C   UNL     1      49.154   4.815  20.642  0.00  0.00    +0.000 C 
BRANCH  14  15
ATOM     15  N   UNL     1      48.331   3.612  20.549  0.00  0.00    +0.000 NA
ATOM     16  H   UNL     1      47.482   3.749  21.099  0.00  0.00    +0.000 HD
ATOM     17  H   UNL     1      48.818   2.826  20.972  0.00  0.00    +0.000 HD
ENDBRANCH  14  15
ENDBRANCH   8  14
ENDBRANCH   7  11
ENDBRANCH   1   7
BRANCH   4  18
ATOM     18  C   UNL     1      47.265   7.848  11.773  0.00  0.00    +0.000 C 
BRANCH  18  19
ATOM     19  N   UNL     1      46.637   6.564  11.578  0.00  0.00    +0.000 N 
ATOM     20  C   UNL     1      45.270   6.425  11.626  0.00  0.00    +0.000 C 
ATOM     21  O   UNL     1      44.523   7.382  11.810  0.00  0.00    +0.000 OA
ATOM     22  H   UNL     1      47.216   5.739  11.697  0.00  0.00    +0.000 HD
BRANCH  20  23
ATOM     23  C   UNL     1      44.740   5.080  11.378  0.00  0.00    +0.000 A 
ATOM     24  C   UNL     1      43.989   4.439  12.355  0.00  0.00    +0.000 A 
ATOM     25  S   UNL     1      43.416   2.904  11.883  0.00  0.00    +0.000 S 
ATOM     26  C   UNL     1      44.192   3.019  10.374  0.00  0.00    +0.000 A 
ATOM     27  N   UNL     1      44.125   2.002   9.472  0.00  0.00    +0.000 NA
ATOM     28  C   UNL     1      44.778   2.212   8.381  0.00  0.00    +0.000 A 
ATOM     29  N   UNL     1      45.489   3.353   8.105  0.00  0.00    +0.000 N 
ATOM     30  C   UNL     1      45.564   4.414   8.971  0.00  0.00    +0.000 A 
ATOM     31  O   UNL     1      46.170   5.440   8.678  0.00  0.00    +0.000 OA
ATOM     32  C   UNL     1      44.856   4.222  10.224  0.00  0.00    +0.000 A 
ATOM     33  H   UNL     1      45.968   3.463   7.222  0.00  0.00    +0.000 HD
ENDBRANCH  20  23
ENDBRANCH  18  19
ENDBRANCH   4  18
TORSDOF 7
ENDMDL
MODEL 2
REMARK VINA RESULT:    -6.501      4.100      8.812
REMARK INTER + INTRA:         -10.152
REMARK INTER:                  -9.310
REMARK INTRA:                  -0.842
REMARK UNBOUND:                -1.180
REMARK  Name = 
REMARK  7 active torsions:
REMARK  status: ('A' for Active; 'I' for Inactive)
REMARK    1  A    between atoms: N_1  and  C_2
REMARK    2  A    between atoms: C_2  and  C_3
REMARK    3  A    between atoms: C_6  and  C_7
REMARK    4  A    between atoms: C_7  and  C_8
REMARK    5  A    between atoms: C_11  and  C_12
REMARK    6  A    between atoms: C_12  and  N_13
REMARK    7  A    between atoms: C_14  and  C_16
REMARK                            x       y       z     vdW  Elec       q    Type
REMARK                         _______ _______ _______ _____ _____    ______ ____
ROOT
ATOM      1  C   UNL     1      47.724   6.945  13.725  0.00  0.00    +0.000 A 
ATOM      2  C   UNL     1      47.865   8.266  14.141  0.00  0.00    +0.000 A 
ATOM      3  C   UNL     1      48.575   8.540  15.309  0.00  0.00    +0.000 A 
ATOM      4  C   UNL     1      49.100   7.493  16.067  0.00  0.00    +0.000 A 
ATOM      5  C   UNL     1      48.893   6.205  15.586  0.00  0.00    +0.000 A 
ATOM      6  N   UNL     1      48.231   5.910  14.438  0.00  0.00    +0.000 NA
ENDROOT
BRANCH   1   7
ATOM      7  C   UNL     1      47.078   6.635  12.390  0.00  0.00    +0.000 C 
BRANCH   7  11
ATOM      8  C   UNL     1      44.860   3.744  11.094  0.00  0.00    +0.000 C 
ATOM      9  C   UNL     1      45.235   5.004  10.295  0.00  0.00    +0.000 C 
ATOM     10  C   UNL     1      44.910   6.300  11.042  0.00  0.00    +0.000 C 
ATOM     11  C   UNL     1      45.555   6.373  12.437  0.00  0.00    +0.000 C 
ATOM     12  C   UNL     1      45.244   5.091  13.239  0.00  0.00    +0.000 C 
ATOM     13  C   UNL     1      45.543   3.799  12.472  0.00  0.00    +0.000 C 
BRANCH   8  14
ATOM     14  C   UNL     1      43.338   3.527  11.249  0.00  0.00    +0.000 C 
BRANCH  14  15
ATOM     15  N   UNL     1      42.997   2.174  11.682  0.00  0.00    +0.000 NA
ATOM     16  H   UNL     1      42.311   1.783  11.035  0.00  0.00    +0.000 HD
ATOM     17  H   UNL     1      42.542   2.206  12.591  0.00  0.00    +0.000 HD
ENDBRANCH  14  15
ENDBRANCH   8  14
ENDBRANCH   7  11
ENDBRANCH   1   7
BRANCH   4  18
ATOM     18  C   UNL     1      49.873   7.753  17.328  0.00  0.00    +0.000 C 
BRANCH  18  19
ATOM     19  N   UNL     1      50.826   6.704  17.598  0.00  0.00    +0.000 N 
ATOM     20  C   UNL     1      50.655   5.842  18.656  0.00  0.00    +0.000 C 
ATOM     21  O   UNL     1      49.680   5.907  19.399  0.00  0.00    +0.000 OA
ATOM     22  H   UNL     1      51.749   6.796  17.187  0.00  0.00    +0.000 HD
BRANCH  20  23
ATOM     23  C   UNL     1      51.668   4.792  18.814  0.00  0.00    +0.000 A 
ATOM     24  C   UNL     1      52.805   5.034  19.573  0.00  0.00    +0.000 A 
ATOM     25  S   UNL     1      53.851   3.692  19.687  0.00  0.00    +0.000 S 
ATOM     26  C   UNL     1      52.846   2.755  18.685  0.00  0.00    +0.000 A 
ATOM     27  N   UNL     1      53.183   1.480  18.350  0.00  0.00    +0.000 NA
ATOM     28  C   UNL     1      52.345   0.895  17.565  0.00  0.00    +0.000 A 
ATOM     29  N   UNL     1      51.192   1.467  17.089  0.00  0.00    +0.000 N 
ATOM     30  C   UNL     1      50.798   2.738  17.421  0.00  0.00    +0.000 A 
ATOM     31  O   UNL     1      49.738   3.208  17.016  0.00  0.00    +0.000 OA
ATOM     32  C   UNL     1      51.717   3.449  18.292  0.00  0.00    +0.000 A 
ATOM     33  H   UNL     1      50.567   0.949  16.489  0.00  0.00    +0.000 HD
ENDBRANCH  20  23
ENDBRANCH  18  19
ENDBRANCH   4  18
TORSDOF 7
ENDMDL
MODEL 3
REMARK VINA RESULT:    -6.418      3.113      9.237
REMARK INTER + INTRA:         -10.037
REMARK INTER:                  -9.167
REMARK INTRA:                  -0.870
REMARK UNBOUND:                -1.180
REMARK  Name = 
REMARK  7 active torsions:
REMARK  status: ('A' for Active; 'I' for Inactive)
REMARK    1  A    between atoms: N_1  and  C_2
REMARK    2  A    between atoms: C_2  and  C_3
REMARK    3  A    between atoms: C_6  and  C_7
REMARK    4  A    between atoms: C_7  and  C_8
REMARK    5  A    between atoms: C_11  and  C_12
REMARK    6  A    between atoms: C_12  and  N_13
REMARK    7  A    between atoms: C_14  and  C_16
REMARK                            x       y       z     vdW  Elec       q    Type
REMARK                         _______ _______ _______ _____ _____    ______ ____
ROOT
ATOM      1  C   UNL     1      44.898   4.653  11.423  0.00  0.00    +0.000 A 
ATOM      2  C   UNL     1      43.925   5.647  11.352  0.00  0.00    +0.000 A 
ATOM      3  C   UNL     1      44.244   6.943  11.754  0.00  0.00    +0.000 A 
ATOM      4  C   UNL     1      45.514   7.223  12.259  0.00  0.00    +0.000 A 
ATOM      5  C   UNL     1      46.415   6.165  12.313  0.00  0.00    +0.000 A 
ATOM      6  N   UNL     1      46.141   4.900  11.901  0.00  0.00    +0.000 NA
ENDROOT
BRANCH   1   7
ATOM      7  C   UNL     1      44.616   3.274  10.863  0.00  0.00    +0.000 C 
BRANCH   7  11
ATOM      8  C   UNL     1      46.648   2.752   7.615  0.00  0.00    +0.000 C 
ATOM      9  C   UNL     1      46.371   4.110   8.282  0.00  0.00    +0.000 C 
ATOM     10  C   UNL     1      44.882   4.351   8.540  0.00  0.00    +0.000 C 
ATOM     11  C   UNL     1      44.222   3.235   9.369  0.00  0.00    +0.000 C 
ATOM     12  C   UNL     1      44.537   1.854   8.755  0.00  0.00    +0.000 C 
ATOM     13  C   UNL     1      46.027   1.634   8.471  0.00  0.00    +0.000 C 
BRANCH   8  14
ATOM     14  C   UNL     1      46.158   2.656   6.153  0.00  0.00    +0.000 C 
BRANCH  14  15
ATOM     15  N   UNL     1      47.129   3.173   5.192  0.00  0.00    +0.000 NA
ATOM     16  H   UNL     1      48.064   3.103   5.596  0.00  0.00    +0.000 HD
ATOM     17  H   UNL     1      46.964   4.163   5.033  0.00  0.00    +0.000 HD
ENDBRANCH  14  15
ENDBRANCH   8  14
ENDBRANCH   7  11
ENDBRANCH   1   7
BRANCH   4  18
ATOM     18  C   UNL     1      45.893   8.608  12.697  0.00  0.00    +0.000 C 
BRANCH  18  19
ATOM     19  N   UNL     1      46.607   8.597  13.951  0.00  0.00    +0.000 N 
ATOM     20  C   UNL     1      47.920   8.999  14.026  0.00  0.00    +0.000 C 
ATOM     21  O   UNL     1      48.534   9.406  13.044  0.00  0.00    +0.000 OA
ATOM     22  H   UNL     1      46.227   8.025  14.699  0.00  0.00    +0.000 HD
BRANCH  20  23
ATOM     23  C   UNL     1      48.534   8.980  15.359  0.00  0.00    +0.000 A 
ATOM     24  C   UNL     1      48.854  10.174  15.992  0.00  0.00    +0.000 A 
ATOM     25  S   UNL     1      49.516   9.968  17.549  0.00  0.00    +0.000 S 
ATOM     26  C   UNL     1      49.445   8.274  17.414  0.00  0.00    +0.000 A 
ATOM     27  N   UNL     1      49.896   7.472  18.417  0.00  0.00    +0.000 NA
ATOM     28  C   UNL     1      49.805   6.210  18.171  0.00  0.00    +0.000 A 
ATOM     29  N   UNL     1      49.296   5.674  17.015  0.00  0.00    +0.000 N 
ATOM     30  C   UNL     1      48.807   6.442  15.990  0.00  0.00    +0.000 A 
ATOM     31  O   UNL     1      48.316   5.934  14.986  0.00  0.00    +0.000 OA
ATOM     32  C   UNL     1      48.900   7.874  16.209  0.00  0.00    +0.000 A 
ATOM     33  H   UNL     1      49.238   4.673  16.890  0.00  0.00    +0.000 HD
ENDBRANCH  20  23
ENDBRANCH  18  19
ENDBRANCH   4  18
TORSDOF 7
ENDMDL
MODEL 4
REMARK VINA RESULT:    -6.379      4.999      9.082
REMARK INTER + INTRA:          -9.983
REMARK INTER:                  -9.279
REMARK INTRA:                  -0.704
REMARK UNBOUND:                -1.180
REMARK  Name = 
REMARK  7 active torsions:
REMARK  status: ('A' for Active; 'I' for Inactive)
REMARK    1  A    between atoms: N_1  and  C_2
REMARK    2  A    between atoms: C_2  and  C_3
REMARK    3  A    between atoms: C_6  and  C_7
REMARK    4  A    between atoms: C_7  and  C_8
REMARK    5  A    between atoms: C_11  and  C_12
REMARK    6  A    between atoms: C_12  and  N_13
REMARK    7  A    between atoms: C_14  and  C_16
REMARK                            x       y       z     vdW  Elec       q    Type
REMARK                         _______ _______ _______ _____ _____    ______ ____
ROOT
ATOM      1  C   UNL     1      44.620   3.977  10.836  0.00  0.00    +0.000 A 
ATOM      2  C   UNL     1      43.443   4.717  10.767  0.00  0.00    +0.000 A 
ATOM      3  C   UNL     1      43.445   6.042  11.200  0.00  0.00    +0.000 A 
ATOM      4  C   UNL     1      44.608   6.600  11.732  0.00  0.00    +0.000 A 
ATOM      5  C   UNL     1      45.731   5.781  11.781  0.00  0.00    +0.000 A 
ATOM      6  N   UNL     1      45.765   4.497  11.340  0.00  0.00    +0.000 NA
ENDROOT
BRANCH   1   7
ATOM      7  C   UNL     1      44.675   2.583  10.244  0.00  0.00    +0.000 C 
BRANCH   7  11
ATOM      8  C   UNL     1      47.119   2.911   7.265  0.00  0.00    +0.000 C 
ATOM      9  C   UNL     1      46.350   4.073   7.916  0.00  0.00    +0.000 C 
ATOM     10  C   UNL     1      44.843   3.819   7.992  0.00  0.00    +0.000 C 
ATOM     11  C   UNL     1      44.485   2.507   8.712  0.00  0.00    +0.000 C 
ATOM     12  C   UNL     1      45.290   1.332   8.116  0.00  0.00    +0.000 C 
ATOM     13  C   UNL     1      46.794   1.607   8.016  0.00  0.00    +0.000 C 
BRANCH   8  14
ATOM     14  C   UNL     1      46.852   2.748   5.751  0.00  0.00    +0.000 C 
BRANCH  14  15
ATOM     15  N   UNL     1      48.054   2.410   4.994  0.00  0.00    +0.000 NA
ATOM     16  H   UNL     1      47.783   1.895   4.155  0.00  0.00    +0.000 HD
ATOM     17  H   UNL     1      48.639   1.779   5.536  0.00  0.00    +0.000 HD
ENDBRANCH  14  15
ENDBRANCH   8  14
ENDBRANCH   7  11
ENDBRANCH   1   7
BRANCH   4  18
ATOM     18  C   UNL     1      44.647   8.024  12.204  0.00  0.00    +0.000 C 
BRANCH  18  19
ATOM     19  N   UNL     1      45.847   8.700  11.772  0.00  0.00    +0.000 N 
ATOM     20  C   UNL     1      46.909   8.882  12.627  0.00  0.00    +0.000 C 
ATOM     21  O   UNL     1      46.897   8.459  13.780  0.00  0.00    +0.000 OA
ATOM     22  H   UNL     1      45.781   9.283  10.944  0.00  0.00    +0.000 HD
BRANCH  20  23
ATOM     23  C   UNL     1      48.090   9.550  12.070  0.00  0.00    +0.000 A 
ATOM     24  C   UNL     1      48.024  10.890  11.712  0.00  0.00    +0.000 A 
ATOM     25  S   UNL     1      49.497  11.516  11.125  0.00  0.00    +0.000 S 
ATOM     26  C   UNL     1      50.263  10.005  11.282  0.00  0.00    +0.000 A 
ATOM     27  N   UNL     1      51.563   9.838  10.916  0.00  0.00    +0.000 NA
ATOM     28  C   UNL     1      52.009   8.638  11.065  0.00  0.00    +0.000 A 
ATOM     29  N   UNL     1      51.274   7.587  11.555  0.00  0.00    +0.000 N 
ATOM     30  C   UNL     1      49.970   7.714  11.960  0.00  0.00    +0.000 A 
ATOM     31  O   UNL     1      49.351   6.768  12.437  0.00  0.00    +0.000 OA
ATOM     32  C   UNL     1      49.413   9.046  11.799  0.00  0.00    +0.000 A 
ATOM     33  H   UNL     1      51.687   6.672  11.662  0.00  0.00    +0.000 HD
ENDBRANCH  20  23
ENDBRANCH  18  19
ENDBRANCH   4  18
TORSDOF 7
ENDMDL
MODEL 5
REMARK VINA RESULT:    -6.204      3.122      8.028
REMARK INTER + INTRA:          -9.741
REMARK INTER:                  -8.506
REMARK INTRA:                  -1.236
REMARK UNBOUND:                -1.180
REMARK  Name = 
REMARK  7 active torsions:
REMARK  status: ('A' for Active; 'I' for Inactive)
REMARK    1  A    between atoms: N_1  and  C_2
REMARK    2  A    between atoms: C_2  and  C_3
REMARK    3  A    between atoms: C_6  and  C_7
REMARK    4  A    between atoms: C_7  and  C_8
REMARK    5  A    between atoms: C_11  and  C_12
REMARK    6  A    between atoms: C_12  and  N_13
REMARK    7  A    between atoms: C_14  and  C_16
REMARK                            x       y       z     vdW  Elec       q    Type
REMARK                         _______ _______ _______ _____ _____    ______ ____
ROOT
ATOM      1  C   UNL     1      46.328   7.647  11.917  0.00  0.00    +0.000 A 
ATOM      2  C   UNL     1      47.617   7.141  11.776  0.00  0.00    +0.000 A 
ATOM      3  C   UNL     1      48.605   7.534  12.678  0.00  0.00    +0.000 A 
ATOM      4  C   UNL     1      48.306   8.456  13.683  0.00  0.00    +0.000 A 
ATOM      5  C   UNL     1      46.997   8.923  13.735  0.00  0.00    +0.000 A 
ATOM      6  N   UNL     1      46.008   8.536  12.889  0.00  0.00    +0.000 NA
ENDROOT
BRANCH   1   7
ATOM      7  C   UNL     1      45.209   7.129  11.036  0.00  0.00    +0.000 C 
BRANCH   7  11
ATOM      8  C   UNL     1      44.704   3.332  11.567  0.00  0.00    +0.000 C 
ATOM      9  C   UNL     1      44.157   4.145  10.382  0.00  0.00    +0.000 C 
ATOM     10  C   UNL     1      43.346   5.365  10.823  0.00  0.00    +0.000 C 
ATOM     11  C   UNL     1      44.125   6.302  11.763  0.00  0.00    +0.000 C 
ATOM     12  C   UNL     1      44.737   5.500  12.932  0.00  0.00    +0.000 C 
ATOM     13  C   UNL     1      45.521   4.262  12.482  0.00  0.00    +0.000 C 
BRANCH   8  14
ATOM     14  C   UNL     1      43.618   2.588  12.376  0.00  0.00    +0.000 C 
BRANCH  14  15
ATOM     15  N   UNL     1      42.847   1.650  11.565  0.00  0.00    +0.000 NA
ATOM     16  H   UNL     1      43.116   1.760  10.586  0.00  0.00    +0.000 HD
ATOM     17  H   UNL     1      41.858   1.883  11.613  0.00  0.00    +0.000 HD
ENDBRANCH  14  15
ENDBRANCH   8  14
ENDBRANCH   7  11
ENDBRANCH   1   7
BRANCH   4  18
ATOM     18  C   UNL     1      49.345   8.897  14.672  0.00  0.00    +0.000 C 
BRANCH  18  19
ATOM     19  N   UNL     1      49.407   8.016  15.813  0.00  0.00    +0.000 N 
ATOM     20  C   UNL     1      48.678   8.271  16.951  0.00  0.00    +0.000 C 
ATOM     21  O   UNL     1      47.926   9.238  17.041  0.00  0.00    +0.000 OA
ATOM     22  H   UNL     1      50.201   7.386  15.872  0.00  0.00    +0.000 HD
BRANCH  20  23
ATOM     23  C   UNL     1      48.792   7.288  18.034  0.00  0.00    +0.000 A 
ATOM     24  C   UNL     1      49.090   7.709  19.324  0.00  0.00    +0.000 A 
ATOM     25  S   UNL     1      49.138   6.442  20.464  0.00  0.00    +0.000 S 
ATOM     26  C   UNL     1      48.811   5.279  19.266  0.00  0.00    +0.000 A 
ATOM     27  N   UNL     1      48.743   3.955  19.575  0.00  0.00    +0.000 NA
ATOM     28  C   UNL     1      48.513   3.184  18.568  0.00  0.00    +0.000 A 
ATOM     29  N   UNL     1      48.337   3.617  17.278  0.00  0.00    +0.000 N 
ATOM     30  C   UNL     1      48.370   4.942  16.924  0.00  0.00    +0.000 A 
ATOM     31  O   UNL     1      48.164   5.303  15.769  0.00  0.00    +0.000 OA
ATOM     32  C   UNL     1      48.642   5.854  18.021  0.00  0.00    +0.000 A 
ATOM     33  H   UNL     1      48.144   2.961  16.534  0.00  0.00    +0.000 HD
ENDBRANCH  20  23
ENDBRANCH  18  19
ENDBRANCH   4  18
TORSDOF 7
ENDMDL
MODEL 6
REMARK VINA RESULT:    -6.150      1.706      2.448
REMARK INTER + INTRA:          -9.666
REMARK INTER:                  -9.172
REMARK INTRA:                  -0.495
REMARK UNBOUND:                -1.180
REMARK  Name = 
REMARK  7 active torsions:
REMARK  status: ('A' for Active; 'I' for Inactive)
REMARK    1  A    between atoms: N_1  and  C_2
REMARK    2  A    between atoms: C_2  and  C_3
REMARK    3  A    between atoms: C_6  and  C_7
REMARK    4  A    between atoms: C_7  and  C_8
REMARK    5  A    between atoms: C_11  and  C_12
REMARK    6  A    between atoms: C_12  and  N_13
REMARK    7  A    between atoms: C_14  and  C_16
REMARK                            x       y       z     vdW  Elec       q    Type
REMARK                         _______ _______ _______ _____ _____    ______ ____
ROOT
ATOM      1  C   UNL     1      49.761   7.558  15.848  0.00  0.00    +0.000 A 
ATOM      2  C   UNL     1      48.975   8.707  15.805  0.00  0.00    +0.000 A 
ATOM      3  C   UNL     1      48.290   9.020  14.632  0.00  0.00    +0.000 A 
ATOM      4  C   UNL     1      48.428   8.208  13.506  0.00  0.00    +0.000 A 
ATOM      5  C   UNL     1      49.249   7.093  13.634  0.00  0.00    +0.000 A 
ATOM      6  N   UNL     1      49.905   6.747  14.771  0.00  0.00    +0.000 NA
ENDROOT
BRANCH   1   7
ATOM      7  C   UNL     1      50.401   7.125  17.151  0.00  0.00    +0.000 C 
BRANCH   7  11
ATOM      8  C   UNL     1      48.859   3.578  17.106  0.00  0.00    +0.000 C 
ATOM      9  C   UNL     1      48.213   4.836  16.501  0.00  0.00    +0.000 C 
ATOM     10  C   UNL     1      48.115   5.992  17.500  0.00  0.00    +0.000 C 
ATOM     11  C   UNL     1      49.470   6.368  18.126  0.00  0.00    +0.000 C 
ATOM     12  C   UNL     1      50.168   5.111  18.688  0.00  0.00    +0.000 C 
ATOM     13  C   UNL     1      50.234   3.949  17.691  0.00  0.00    +0.000 C 
BRANCH   8  14
ATOM     14  C   UNL     1      47.988   2.871  18.169  0.00  0.00    +0.000 C 
BRANCH  14  15
ATOM     15  N   UNL     1      46.586   2.759  17.772  0.00  0.00    +0.000 NA
ATOM     16  H   UNL     1      46.502   2.035  17.056  0.00  0.00    +0.000 HD
ATOM     17  H   UNL     1      46.280   3.625  17.336  0.00  0.00    +0.000 HD
ENDBRANCH  14  15
ENDBRANCH   8  14
ENDBRANCH   7  11
ENDBRANCH   1   7
BRANCH   4  18
ATOM     18  C   UNL     1      47.702   8.515  12.228  0.00  0.00    +0.000 C 
BRANCH  18  19
ATOM     19  N   UNL     1      47.189   7.320  11.603  0.00  0.00    +0.000 N 
ATOM     20  C   UNL     1      45.847   7.021  11.631  0.00  0.00    +0.000 C 
ATOM     21  O   UNL     1      45.025   7.763  12.162  0.00  0.00    +0.000 OA
ATOM     22  H   UNL     1      47.851   6.576  11.407  0.00  0.00    +0.000 HD
BRANCH  20  23
ATOM     23  C   UNL     1      45.434   5.799  10.933  0.00  0.00    +0.000 A 
ATOM     24  C   UNL     1      45.753   5.626   9.592  0.00  0.00    +0.000 A 
ATOM     25  S   UNL     1      45.237   4.131   8.953  0.00  0.00    +0.000 S 
ATOM     26  C   UNL     1      44.527   3.682  10.432  0.00  0.00    +0.000 A 
ATOM     27  N   UNL     1      43.873   2.496  10.564  0.00  0.00    +0.000 NA
ATOM     28  C   UNL     1      43.362   2.296  11.730  0.00  0.00    +0.000 A 
ATOM     29  N   UNL     1      43.451   3.171  12.782  0.00  0.00    +0.000 N 
ATOM     30  C   UNL     1      44.121   4.366  12.704  0.00  0.00    +0.000 A 
ATOM     31  O   UNL     1      44.223   5.109  13.675  0.00  0.00    +0.000 OA
ATOM     32  C   UNL     1      44.704   4.648  11.404  0.00  0.00    +0.000 A 
ATOM     33  H   UNL     1      43.041   2.948  13.678  0.00  0.00    +0.000 HD
ENDBRANCH  20  23
ENDBRANCH  18  19
ENDBRANCH   4  18
TORSDOF 7
ENDMDL
MODEL 7
REMARK VINA RESULT:    -6.064      4.297      5.872
REMARK INTER + INTRA:          -9.548
REMARK INTER:                  -8.479
REMARK INTRA:                  -1.068
REMARK UNBOUND:                -1.180
REMARK  Name = 
REMARK  7 active torsions:
REMARK  status: ('A' for Active; 'I' for Inactive)
REMARK    1  A    between atoms: N_1  and  C_2
REMARK    2  A    between atoms: C_2  and  C_3
REMARK    3  A    between atoms: C_6  and  C_7
REMARK    4  A    between atoms: C_7  and  C_8
REMARK    5  A    between atoms: C_11  and  C_12
REMARK    6  A    between atoms: C_12  and  N_13
REMARK    7  A    between atoms: C_14  and  C_16
REMARK                            x       y       z     vdW  Elec       q    Type
REMARK                         _______ _______ _______ _____ _____    ______ ____
ROOT
ATOM      1  C   UNL     1      46.167   7.073  12.936  0.00  0.00    +0.000 A 
ATOM      2  C   UNL     1      46.611   5.855  13.444  0.00  0.00    +0.000 A 
ATOM      3  C   UNL     1      45.940   4.685  13.090  0.00  0.00    +0.000 A 
ATOM      4  C   UNL     1      44.815   4.748  12.268  0.00  0.00    +0.000 A 
ATOM      5  C   UNL     1      44.432   6.009  11.824  0.00  0.00    +0.000 A 
ATOM      6  N   UNL     1      45.082   7.161  12.129  0.00  0.00    +0.000 NA
ENDROOT
BRANCH   1   7
ATOM      7  C   UNL     1      46.962   8.337  13.194  0.00  0.00    +0.000 C 
BRANCH   7  11
ATOM      8  C   UNL     1      50.655   9.271  12.528  0.00  0.00    +0.000 C 
ATOM      9  C   UNL     1      49.588  10.217  13.105  0.00  0.00    +0.000 C 
ATOM     10  C   UNL     1      48.331  10.295  12.236  0.00  0.00    +0.000 C 
ATOM     11  C   UNL     1      47.696   8.920  11.965  0.00  0.00    +0.000 C 
ATOM     12  C   UNL     1      48.760   7.932  11.442  0.00  0.00    +0.000 C 
ATOM     13  C   UNL     1      50.028   7.883  12.301  0.00  0.00    +0.000 C 
BRANCH   8  14
ATOM     14  C   UNL     1      51.320   9.787  11.232  0.00  0.00    +0.000 C 
BRANCH  14  15
ATOM     15  N   UNL     1      52.226   8.811  10.631  0.00  0.00    +0.000 NA
ATOM     16  H   UNL     1      52.370   8.044  11.289  0.00  0.00    +0.000 HD
ATOM     17  H   UNL     1      53.139   9.233  10.483  0.00  0.00    +0.000 HD
ENDBRANCH  14  15
ENDBRANCH   8  14
ENDBRANCH   7  11
ENDBRANCH   1   7
BRANCH   4  18
ATOM     18  C   UNL     1      44.072   3.507  11.864  0.00  0.00    +0.000 C 
BRANCH  18  19
ATOM     19  N   UNL     1      44.813   2.727  10.903  0.00  0.00    +0.000 N 
ATOM     20  C   UNL     1      44.647   2.917   9.551  0.00  0.00    +0.000 C 
ATOM     21  O   UNL     1      43.886   3.770   9.102  0.00  0.00    +0.000 OA
ATOM     22  H   UNL     1      45.226   1.858  11.227  0.00  0.00    +0.000 HD
BRANCH  20  23
ATOM     23  C   UNL     1      45.479   2.093   8.668  0.00  0.00    +0.000 A 
ATOM     24  C   UNL     1      45.383   0.708   8.718  0.00  0.00    +0.000 A 
ATOM     25  S   UNL     1      46.386  -0.090   7.594  0.00  0.00    +0.000 S 
ATOM     26  C   UNL     1      47.022   1.385   7.033  0.00  0.00    +0.000 A 
ATOM     27  N   UNL     1      47.977   1.413   6.064  0.00  0.00    +0.000 NA
ATOM     28  C   UNL     1      48.387   2.595   5.753  0.00  0.00    +0.000 A 
ATOM     29  N   UNL     1      47.923   3.756   6.318  0.00  0.00    +0.000 N 
ATOM     30  C   UNL     1      46.944   3.778   7.279  0.00  0.00    +0.000 A 
ATOM     31  O   UNL     1      46.516   4.835   7.734  0.00  0.00    +0.000 OA
ATOM     32  C   UNL     1      46.458   2.470   7.678  0.00  0.00    +0.000 A 
ATOM     33  H   UNL     1      48.275   4.654   6.019  0.00  0.00    +0.000 HD
ENDBRANCH  20  23
ENDBRANCH  18  19
ENDBRANCH   4  18
TORSDOF 7
ENDMDL
MODEL 8
REMARK VINA RESULT:    -5.626      1.912      2.755
REMARK INTER + INTRA:          -8.944
REMARK INTER:                  -8.076
REMARK INTRA:                  -0.868
REMARK UNBOUND:                -1.180
REMARK  Name = 
REMARK  7 active torsions:
REMARK  status: ('A' for Active; 'I' for Inactive)
REMARK    1  A    between atoms: N_1  and  C_2
REMARK    2  A    between atoms: C_2  and  C_3
REMARK    3  A    between atoms: C_6  and  C_7
REMARK    4  A    between atoms: C_7  and  C_8
REMARK    5  A    between atoms: C_11  and  C_12
REMARK    6  A    between atoms: C_12  and  N_13
REMARK    7  A    between atoms: C_14  and  C_16
REMARK                            x       y       z     vdW  Elec       q    Type
REMARK                         _______ _______ _______ _____ _____    ______ ____
ROOT
ATOM      1  C   UNL     1      49.037   7.582  16.283  0.00  0.00    +0.000 A 
ATOM      2  C   UNL     1      48.493   6.510  15.579  0.00  0.00    +0.000 A 
ATOM      3  C   UNL     1      48.261   6.642  14.210  0.00  0.00    +0.000 A 
ATOM      4  C   UNL     1      48.535   7.851  13.570  0.00  0.00    +0.000 A 
ATOM      5  C   UNL     1      49.057   8.873  14.356  0.00  0.00    +0.000 A 
ATOM      6  N   UNL     1      49.320   8.764  15.683  0.00  0.00    +0.000 NA
ENDROOT
BRANCH   1   7
ATOM      7  C   UNL     1      49.425   7.414  17.737  0.00  0.00    +0.000 C 
BRANCH   7  11
ATOM      8  C   UNL     1      51.235   4.197  18.890  0.00  0.00    +0.000 C 
ATOM      9  C   UNL     1      50.695   5.296  19.821  0.00  0.00    +0.000 C 
ATOM     10  C   UNL     1      51.206   6.691  19.450  0.00  0.00    +0.000 C 
ATOM     11  C   UNL     1      50.912   7.074  17.990  0.00  0.00    +0.000 C 
ATOM     12  C   UNL     1      51.389   5.958  17.036  0.00  0.00    +0.000 C 
ATOM     13  C   UNL     1      50.899   4.561  17.433  0.00  0.00    +0.000 C 
BRANCH   8  14
ATOM     14  C   UNL     1      52.747   3.922  19.049  0.00  0.00    +0.000 C 
BRANCH  14  15
ATOM     15  N   UNL     1      53.119   3.557  20.413  0.00  0.00    +0.000 NA
ATOM     16  H   UNL     1      52.484   4.021  21.065  0.00  0.00    +0.000 HD
ATOM     17  H   UNL     1      54.048   3.910  20.625  0.00  0.00    +0.000 HD
ENDBRANCH  14  15
ENDBRANCH   8  14
ENDBRANCH   7  11
ENDBRANCH   1   7
BRANCH   4  18
ATOM     18  C   UNL     1      48.300   8.026  12.097  0.00  0.00    +0.000 C 
BRANCH  18  19
ATOM     19  N   UNL     1      47.596   6.902  11.530  0.00  0.00    +0.000 N 
ATOM     20  C   UNL     1      46.224   6.902  11.421  0.00  0.00    +0.000 C 
ATOM     21  O   UNL     1      45.543   7.860  11.775  0.00  0.00    +0.000 OA
ATOM     22  H   UNL     1      48.089   6.016  11.487  0.00  0.00    +0.000 HD
BRANCH  20  23
ATOM     23  C   UNL     1      45.618   5.722  10.796  0.00  0.00    +0.000 A 
ATOM     24  C   UNL     1      45.767   5.506   9.432  0.00  0.00    +0.000 A 
ATOM     25  S   UNL     1      45.038   4.066   8.882  0.00  0.00    +0.000 S 
ATOM     26  C   UNL     1      44.456   3.703  10.438  0.00  0.00    +0.000 A 
ATOM     27  N   UNL     1      43.706   2.590  10.664  0.00  0.00    +0.000 NA
ATOM     28  C   UNL     1      43.311   2.451  11.883  0.00  0.00    +0.000 A 
ATOM     29  N   UNL     1      43.602   3.322  12.902  0.00  0.00    +0.000 N 
ATOM     30  C   UNL     1      44.375   4.442  12.728  0.00  0.00    +0.000 A 
ATOM     31  O   UNL     1      44.657   5.180  13.668  0.00  0.00    +0.000 OA
ATOM     32  C   UNL     1      44.834   4.654  11.367  0.00  0.00    +0.000 A 
ATOM     33  H   UNL     1      43.274   3.148  13.841  0.00  0.00    +0.000 HD
ENDBRANCH  20  23
ENDBRANCH  18  19
ENDBRANCH   4  18
TORSDOF 7
ENDMDL
MODEL 9
REMARK VINA RESULT:    -5.591      4.442      7.064
REMARK INTER + INTRA:          -8.896
REMARK INTER:                  -8.580
REMARK INTRA:                  -0.316
REMARK UNBOUND:                -1.180
REMARK  Name = 
REMARK  7 active torsions:
REMARK  status: ('A' for Active; 'I' for Inactive)
REMARK    1  A    between atoms: N_1  and  C_2
REMARK    2  A    between atoms: C_2  and  C_3
REMARK    3  A    between atoms: C_6  and  C_7
REMARK    4  A    between atoms: C_7  and  C_8
REMARK    5  A    between atoms: C_11  and  C_12
REMARK    6  A    between atoms: C_12  and  N_13
REMARK    7  A    between atoms: C_14  and  C_16
REMARK                            x       y       z     vdW  Elec       q    Type
REMARK                         _______ _______ _______ _____ _____    ______ ____
ROOT
ATOM      1  C   UNL     1      51.668   8.882  11.652  0.00  0.00    +0.000 A 
ATOM      2  C   UNL     1      50.367   9.023  11.177  0.00  0.00    +0.000 A 
ATOM      3  C   UNL     1      49.298   8.784  12.040  0.00  0.00    +0.000 A 
ATOM      4  C   UNL     1      49.539   8.368  13.350  0.00  0.00    +0.000 A 
ATOM      5  C   UNL     1      50.869   8.235  13.731  0.00  0.00    +0.000 A 
ATOM      6  N   UNL     1      51.930   8.489  12.922  0.00  0.00    +0.000 NA
ENDROOT
BRANCH   1   7
ATOM      7  C   UNL     1      52.841   9.271  10.776  0.00  0.00    +0.000 C 
BRANCH   7  11
ATOM      8  C   UNL     1      53.263   7.410   7.412  0.00  0.00    +0.000 C 
ATOM      9  C   UNL     1      52.276   7.021   8.525  0.00  0.00    +0.000 C 
ATOM     10  C   UNL     1      52.953   6.856   9.888  0.00  0.00    +0.000 C 
ATOM     11  C   UNL     1      53.746   8.101  10.325  0.00  0.00    +0.000 C 
ATOM     12  C   UNL     1      54.702   8.549   9.199  0.00  0.00    +0.000 C 
ATOM     13  C   UNL     1      54.022   8.681   7.832  0.00  0.00    +0.000 C 
BRANCH   8  14
ATOM     14  C   UNL     1      54.252   6.287   7.026  0.00  0.00    +0.000 C 
BRANCH  14  15
ATOM     15  N   UNL     1      54.076   5.820   5.653  0.00  0.00    +0.000 NA
ATOM     16  H   UNL     1      54.762   5.088   5.463  0.00  0.00    +0.000 HD
ATOM     17  H   UNL     1      54.280   6.575   5.003  0.00  0.00    +0.000 HD
ENDBRANCH  14  15
ENDBRANCH   8  14
ENDBRANCH   7  11
ENDBRANCH   1   7
BRANCH   4  18
ATOM     18  C   UNL     1      48.411   8.106  14.306  0.00  0.00    +0.000 C 
BRANCH  18  19
ATOM     19  N   UNL     1      47.210   7.698  13.618  0.00  0.00    +0.000 N 
ATOM     20  C   UNL     1      47.005   6.386  13.259  0.00  0.00    +0.000 C 
ATOM     21  O   UNL     1      47.816   5.503  13.526  0.00  0.00    +0.000 OA
ATOM     22  H   UNL     1      46.670   8.421  13.155  0.00  0.00    +0.000 HD
BRANCH  20  23
ATOM     23  C   UNL     1      45.733   6.081  12.596  0.00  0.00    +0.000 A 
ATOM     24  C   UNL     1      44.967   7.108  12.059  0.00  0.00    +0.000 A 
ATOM     25  S   UNL     1      43.544   6.570  11.288  0.00  0.00    +0.000 S 
ATOM     26  C   UNL     1      43.875   4.950  11.687  0.00  0.00    +0.000 A 
ATOM     27  N   UNL     1      43.017   3.953  11.339  0.00  0.00    +0.000 NA
ATOM     28  C   UNL     1      43.379   2.778  11.726  0.00  0.00    +0.000 A 
ATOM     29  N   UNL     1      44.528   2.506  12.426  0.00  0.00    +0.000 N 
ATOM     30  C   UNL     1      45.434   3.474  12.776  0.00  0.00    +0.000 A 
ATOM     31  O   UNL     1      46.476   3.195  13.362  0.00  0.00    +0.000 OA
ATOM     32  C   UNL     1      45.067   4.821  12.376  0.00  0.00    +0.000 A 
ATOM     33  H   UNL     1      44.763   1.560  12.687  0.00  0.00    +0.000 HD
ENDBRANCH  20  23
ENDBRANCH  18  19
ENDBRANCH   4  18
TORSDOF 7
ENDMDL
