MODEL 1
REMARK VINA RESULT:    -8.455      0.000      0.000
REMARK INTER + INTRA:         -13.098
REMARK INTER:                 -11.667
REMARK INTRA:                  -1.431
REMARK UNBOUND:                -1.431
REMARK  Name = 
REMARK  7 active torsions:
REMARK  status: ('A' for Active; 'I' for Inactive)
REMARK    1  A    between atoms: C_2  and  C_21
REMARK    2  A    between atoms: N_3  and  C_4
REMARK    3  A    between atoms: C_4  and  C_5
REMARK    4  A    between atoms: C_8  and  C_9
REMARK    5  A    between atoms: C_9  and  O_10
REMARK    6  A    between atoms: C_9  and  C_11
REMARK    7  A    between atoms: C_11  and  N_12
REMARK                            x       y       z     vdW  Elec       q    Type
REMARK                         _______ _______ _______ _____ _____    ______ ____
ROOT
ATOM      1  C   UNL     1      46.053   6.948  12.483  0.00  0.00    +0.000 A 
ATOM      2  C   UNL     1      44.930   6.591  13.233  0.00  0.00    +0.000 A 
ATOM      3  C   UNL     1      44.171   5.479  12.864  0.00  0.00    +0.000 A 
ATOM      4  C   UNL     1      44.554   4.728  11.754  0.00  0.00    +0.000 A 
ATOM      5  N   UNL     1      45.681   5.027  11.055  0.00  0.00    +0.000 NA
ATOM      6  C   UNL     1      46.390   6.120  11.421  0.00  0.00    +0.000 A 
ENDROOT
BRANCH   1   7
ATOM      7  C   UNL     1      46.912   8.127  12.845  0.00  0.00    +0.000 C 
BRANCH   7  10
ATOM      8  O   UNL     1      49.145   6.486  13.534  0.00  0.00    +0.000 OA
ATOM      9  C   UNL     1      48.473   7.023  14.403  0.00  0.00    +0.000 C 
ATOM     10  N   UNL     1      47.470   7.938  14.157  0.00  0.00    +0.000 N 
ATOM     11  H   UNL     1      46.857   8.174  14.922  0.00  0.00    +0.000 HD
BRANCH   9  12
ATOM     12  C   UNL     1      48.480   6.602  15.799  0.00  0.00    +0.000 A 
ATOM     13  C   UNL     1      48.963   7.405  16.816  0.00  0.00    +0.000 A 
ATOM     14  S   UNL     1      49.364   6.490  18.211  0.00  0.00    +0.000 S 
ATOM     15  C   UNL     1      48.768   5.053  17.509  0.00  0.00    +0.000 A 
ATOM     16  N   UNL     1      48.924   3.835  18.091  0.00  0.00    +0.000 NA
ATOM     17  C   UNL     1      48.364   2.866  17.444  0.00  0.00    +0.000 A 
ATOM     18  N   UNL     1      47.626   3.013  16.300  0.00  0.00    +0.000 N 
ATOM     19  C   UNL     1      47.430   4.221  15.679  0.00  0.00    +0.000 A 
ATOM     20  O   UNL     1      46.720   4.336  14.689  0.00  0.00    +0.000 OA
ATOM     21  C   UNL     1      48.149   5.306  16.305  0.00  0.00    +0.000 A 
ATOM     22  H   UNL     1      47.142   2.223  15.890  0.00  0.00    +0.000 HD
ENDBRANCH   9  12
ENDBRANCH   7  10
ENDBRANCH   1   7
BRANCH   4  23
ATOM     23  C   UNL     1      43.788   3.509  11.255  0.00  0.00    +0.000 C 
BRANCH  23  24
ATOM     24  O   UNL     1      42.373   3.767  11.358  0.00  0.00    +0.000 OA
ATOM     25  H   UNL     1      42.218   4.587  10.851  0.00  0.00    +0.000 HD
ENDBRANCH  23  24
BRANCH  23  26
ATOM     26  C   UNL     1      44.097   3.080   9.812  0.00  0.00    +0.000 C 
BRANCH  26  27
ATOM     27  N   UNL     1      45.202   2.124   9.765  0.00  0.00    +0.000 N 
ATOM     28  C   UNL     1      45.916   2.196   8.577  0.00  0.00    +0.000 A 
ATOM     29  N   UNL     1      46.068   3.382   7.961  0.00  0.00    +0.000 NA
ATOM     30  C   UNL     1      46.759   3.387   6.810  0.00  0.00    +0.000 A 
ATOM     31  C   UNL     1      47.296   2.259   6.245  0.00  0.00    +0.000 A 
ATOM     32  C   UNL     1      47.082   1.096   6.945  0.00  0.00    +0.000 A 
ATOM     33  N   UNL     1      46.398   1.047   8.098  0.00  0.00    +0.000 NA
ATOM     34  H   UNL     1      44.912   1.156   9.880  0.00  0.00    +0.000 HD
ENDBRANCH  26  27
ENDBRANCH  23  26
ENDBRANCH   4  23
TORSDOF 7
ENDMDL
MODEL 2
REMARK VINA RESULT:    -8.278      1.115      1.608
REMARK INTER + INTRA:         -12.854
REMARK INTER:                 -11.600
REMARK INTRA:                  -1.253
REMARK UNBOUND:                -1.431
REMARK  Name = 
REMARK  7 active torsions:
REMARK  status: ('A' for Active; 'I' for Inactive)
REMARK    1  A    between atoms: C_2  and  C_21
REMARK    2  A    between atoms: N_3  and  C_4
REMARK    3  A    between atoms: C_4  and  C_5
REMARK    4  A    between atoms: C_8  and  C_9
REMARK    5  A    between atoms: C_9  and  O_10
REMARK    6  A    between atoms: C_9  and  C_11
REMARK    7  A    between atoms: C_11  and  N_12
REMARK                            x       y       z     vdW  Elec       q    Type
REMARK                         _______ _______ _______ _____ _____    ______ ____
ROOT
ATOM      1  C   UNL     1      46.771   7.684  12.639  0.00  0.00    +0.000 A 
ATOM      2  C   UNL     1      47.111   6.686  11.723  0.00  0.00    +0.000 A 
ATOM      3  C   UNL     1      46.122   5.844  11.211  0.00  0.00    +0.000 A 
ATOM      4  C   UNL     1      44.800   6.021  11.612  0.00  0.00    +0.000 A 
ATOM      5  N   UNL     1      44.446   7.029  12.454  0.00  0.00    +0.000 NA
ATOM      6  C   UNL     1      45.425   7.820  12.951  0.00  0.00    +0.000 A 
ENDROOT
BRANCH   1   7
ATOM      7  C   UNL     1      47.794   8.625  13.211  0.00  0.00    +0.000 C 
BRANCH   7  10
ATOM      8  O   UNL     1      49.785   6.827  14.193  0.00  0.00    +0.000 OA
ATOM      9  C   UNL     1      48.952   7.311  14.949  0.00  0.00    +0.000 C 
ATOM     10  N   UNL     1      48.048   8.289  14.586  0.00  0.00    +0.000 N 
ATOM     11  H   UNL     1      47.289   8.479  15.222  0.00  0.00    +0.000 HD
BRANCH   9  12
ATOM     12  C   UNL     1      48.645   6.761  16.263  0.00  0.00    +0.000 A 
ATOM     13  C   UNL     1      49.004   7.396  17.438  0.00  0.00    +0.000 A 
ATOM     14  S   UNL     1      49.029   6.308  18.765  0.00  0.00    +0.000 S 
ATOM     15  C   UNL     1      48.432   5.032  17.804  0.00  0.00    +0.000 A 
ATOM     16  N   UNL     1      48.342   3.754  18.257  0.00  0.00    +0.000 NA
ATOM     17  C   UNL     1      47.819   2.929  17.410  0.00  0.00    +0.000 A 
ATOM     18  N   UNL     1      47.336   3.276  16.178  0.00  0.00    +0.000 N 
ATOM     19  C   UNL     1      47.393   4.553  15.677  0.00  0.00    +0.000 A 
ATOM     20  O   UNL     1      46.903   4.850  14.596  0.00  0.00    +0.000 OA
ATOM     21  C   UNL     1      48.087   5.474  16.545  0.00  0.00    +0.000 A 
ATOM     22  H   UNL     1      46.860   2.596  15.597  0.00  0.00    +0.000 HD
ENDBRANCH   9  12
ENDBRANCH   7  10
ENDBRANCH   1   7
BRANCH   4  23
ATOM     23  C   UNL     1      43.648   5.148  11.129  0.00  0.00    +0.000 C 
BRANCH  23  24
ATOM     24  O   UNL     1      42.759   5.945  10.322  0.00  0.00    +0.000 OA
ATOM     25  H   UNL     1      43.336   6.513   9.776  0.00  0.00    +0.000 HD
ENDBRANCH  23  24
BRANCH  23  26
ATOM     26  C   UNL     1      44.055   3.908  10.317  0.00  0.00    +0.000 C 
BRANCH  26  27
ATOM     27  N   UNL     1      44.228   4.231   8.901  0.00  0.00    +0.000 N 
ATOM     28  C   UNL     1      45.201   3.450   8.293  0.00  0.00    +0.000 A 
ATOM     29  N   UNL     1      45.374   2.175   8.686  0.00  0.00    +0.000 NA
ATOM     30  C   UNL     1      46.336   1.472   8.068  0.00  0.00    +0.000 A 
ATOM     31  C   UNL     1      47.139   1.991   7.085  0.00  0.00    +0.000 A 
ATOM     32  C   UNL     1      46.890   3.302   6.758  0.00  0.00    +0.000 A 
ATOM     33  N   UNL     1      45.938   4.040   7.349  0.00  0.00    +0.000 NA
ATOM     34  H   UNL     1      44.476   5.203   8.730  0.00  0.00    +0.000 HD
ENDBRANCH  26  27
ENDBRANCH  23  26
ENDBRANCH   4  23
TORSDOF 7
ENDMDL
MODEL 3
REMARK VINA RESULT:    -8.227      1.523      1.918
REMARK INTER + INTRA:         -12.784
REMARK INTER:                 -11.542
REMARK INTRA:                  -1.242
REMARK UNBOUND:                -1.431
REMARK  Name = 
REMARK  7 active torsions:
REMARK  status: ('A' for Active; 'I' for Inactive)
REMARK    1  A    between atoms: C_2  and  C_21
REMARK    2  A    between atoms: N_3  and  C_4
REMARK    3  A    between atoms: C_4  and  C_5
REMARK    4  A    between atoms: C_8  and  C_9
REMARK    5  A    between atoms: C_9  and  O_10
REMARK    6  A    between atoms: C_9  and  C_11
REMARK    7  A    between atoms: C_11  and  N_12
REMARK                            x       y       z     vdW  Elec       q    Type
REMARK                         _______ _______ _______ _____ _____    ______ ____
ROOT
ATOM      1  C   UNL     1      47.283   6.275  12.918  0.00  0.00    +0.000 A 
ATOM      2  C   UNL     1      46.570   5.316  13.641  0.00  0.00    +0.000 A 
ATOM      3  C   UNL     1      45.394   4.779  13.114  0.00  0.00    +0.000 A 
ATOM      4  C   UNL     1      44.953   5.200  11.861  0.00  0.00    +0.000 A 
ATOM      5  N   UNL     1      45.671   6.085  11.120  0.00  0.00    +0.000 NA
ATOM      6  C   UNL     1      46.798   6.604  11.660  0.00  0.00    +0.000 A 
ENDROOT
BRANCH   1   7
ATOM      7  C   UNL     1      48.561   6.875  13.433  0.00  0.00    +0.000 C 
BRANCH   7  10
ATOM      8  O   UNL     1      50.498   6.674  15.523  0.00  0.00    +0.000 OA
ATOM      9  C   UNL     1      49.348   7.016  15.767  0.00  0.00    +0.000 C 
ATOM     10  N   UNL     1      48.393   7.272  14.806  0.00  0.00    +0.000 N 
ATOM     11  H   UNL     1      47.436   7.360  15.113  0.00  0.00    +0.000 HD
BRANCH   9  12
ATOM     12  C   UNL     1      48.765   6.976  17.103  0.00  0.00    +0.000 A 
ATOM     13  C   UNL     1      48.479   8.121  17.824  0.00  0.00    +0.000 A 
ATOM     14  S   UNL     1      48.342   7.794  19.504  0.00  0.00    +0.000 S 
ATOM     15  C   UNL     1      48.527   6.118  19.250  0.00  0.00    +0.000 A 
ATOM     16  N   UNL     1      48.656   5.232  20.273  0.00  0.00    +0.000 NA
ATOM     17  C   UNL     1      48.734   3.998  19.897  0.00  0.00    +0.000 A 
ATOM     18  N   UNL     1      48.645   3.569  18.601  0.00  0.00    +0.000 N 
ATOM     19  C   UNL     1      48.504   4.420  17.532  0.00  0.00    +0.000 A 
ATOM     20  O   UNL     1      48.370   4.010  16.387  0.00  0.00    +0.000 OA
ATOM     21  C   UNL     1      48.542   5.814  17.906  0.00  0.00    +0.000 A 
ATOM     22  H   UNL     1      48.628   2.580  18.381  0.00  0.00    +0.000 HD
ENDBRANCH   9  12
ENDBRANCH   7  10
ENDBRANCH   1   7
BRANCH   4  23
ATOM     23  C   UNL     1      43.675   4.692  11.203  0.00  0.00    +0.000 C 
BRANCH  23  24
ATOM     24  O   UNL     1      43.020   5.790  10.536  0.00  0.00    +0.000 OA
ATOM     25  H   UNL     1      43.053   5.576   9.584  0.00  0.00    +0.000 HD
ENDBRANCH  23  24
BRANCH  23  26
ATOM     26  C   UNL     1      43.863   3.554  10.187  0.00  0.00    +0.000 C 
BRANCH  26  27
ATOM     27  N   UNL     1      44.195   4.072   8.861  0.00  0.00    +0.000 N 
ATOM     28  C   UNL     1      45.256   3.394   8.276  0.00  0.00    +0.000 A 
ATOM     29  N   UNL     1      45.417   2.080   8.509  0.00  0.00    +0.000 NA
ATOM     30  C   UNL     1      46.467   1.481   7.925  0.00  0.00    +0.000 A 
ATOM     31  C   UNL     1      47.366   2.141   7.127  0.00  0.00    +0.000 A 
ATOM     32  C   UNL     1      47.121   3.482   6.954  0.00  0.00    +0.000 A 
ATOM     33  N   UNL     1      46.084   4.119   7.519  0.00  0.00    +0.000 NA
ATOM     34  H   UNL     1      44.434   5.061   8.855  0.00  0.00    +0.000 HD
ENDBRANCH  26  27
ENDBRANCH  23  26
ENDBRANCH   4  23
TORSDOF 7
ENDMDL
MODEL 4
REMARK VINA RESULT:    -7.813      2.064      2.775
REMARK INTER + INTRA:         -12.212
REMARK INTER:                 -11.267
REMARK INTRA:                  -0.946
REMARK UNBOUND:                -1.431
REMARK  Name = 
REMARK  7 active torsions:
REMARK  status: ('A' for Active; 'I' for Inactive)
REMARK    1  A    between atoms: C_2  and  C_21
REMARK    2  A    between atoms: N_3  and  C_4
REMARK    3  A    between atoms: C_4  and  C_5
REMARK    4  A    between atoms: C_8  and  C_9
REMARK    5  A    between atoms: C_9  and  O_10
REMARK    6  A    between atoms: C_9  and  C_11
REMARK    7  A    between atoms: C_11  and  N_12
REMARK                            x       y       z     vdW  Elec       q    Type
REMARK                         _______ _______ _______ _____ _____    ______ ____
ROOT
ATOM      1  C   UNL     1      47.102   6.214  13.004  0.00  0.00    +0.000 A 
ATOM      2  C   UNL     1      46.429   5.164  13.634  0.00  0.00    +0.000 A 
ATOM      3  C   UNL     1      45.390   4.506  12.973  0.00  0.00    +0.000 A 
ATOM      4  C   UNL     1      45.045   4.900  11.682  0.00  0.00    +0.000 A 
ATOM      5  N   UNL     1      45.733   5.877  11.034  0.00  0.00    +0.000 NA
ATOM      6  C   UNL     1      46.724   6.511  11.702  0.00  0.00    +0.000 A 
ENDROOT
BRANCH   1   7
ATOM      7  C   UNL     1      48.235   6.947  13.665  0.00  0.00    +0.000 C 
BRANCH   7  10
ATOM      8  O   UNL     1      50.471   6.808  15.437  0.00  0.00    +0.000 OA
ATOM      9  C   UNL     1      49.343   6.545  15.833  0.00  0.00    +0.000 C 
ATOM     10  N   UNL     1      48.197   6.721  15.085  0.00  0.00    +0.000 N 
ATOM     11  H   UNL     1      47.348   6.300  15.430  0.00  0.00    +0.000 HD
BRANCH   9  12
ATOM     12  C   UNL     1      49.075   5.798  17.055  0.00  0.00    +0.000 A 
ATOM     13  C   UNL     1      48.844   4.435  17.059  0.00  0.00    +0.000 A 
ATOM     14  S   UNL     1      48.030   3.933  18.484  0.00  0.00    +0.000 S 
ATOM     15  C   UNL     1      48.107   5.502  19.149  0.00  0.00    +0.000 A 
ATOM     16  N   UNL     1      47.471   5.841  20.301  0.00  0.00    +0.000 NA
ATOM     17  C   UNL     1      47.682   7.058  20.682  0.00  0.00    +0.000 A 
ATOM     18  N   UNL     1      48.508   7.944  20.045  0.00  0.00    +0.000 N 
ATOM     19  C   UNL     1      49.181   7.649  18.886  0.00  0.00    +0.000 A 
ATOM     20  O   UNL     1      49.958   8.438  18.365  0.00  0.00    +0.000 OA
ATOM     21  C   UNL     1      48.866   6.341  18.363  0.00  0.00    +0.000 A 
ATOM     22  H   UNL     1      48.698   8.856  20.444  0.00  0.00    +0.000 HD
ENDBRANCH   9  12
ENDBRANCH   7  10
ENDBRANCH   1   7
BRANCH   4  23
ATOM     23  C   UNL     1      43.918   4.262  10.879  0.00  0.00    +0.000 C 
BRANCH  23  24
ATOM     24  O   UNL     1      43.326   5.259  10.022  0.00  0.00    +0.000 OA
ATOM     25  H   UNL     1      43.459   4.935   9.111  0.00  0.00    +0.000 HD
ENDBRANCH  23  24
BRANCH  23  26
ATOM     26  C   UNL     1      44.323   3.060  10.011  0.00  0.00    +0.000 C 
BRANCH  26  27
ATOM     27  N   UNL     1      44.348   3.411   8.592  0.00  0.00    +0.000 N 
ATOM     28  C   UNL     1      45.446   2.877   7.932  0.00  0.00    +0.000 A 
ATOM     29  N   UNL     1      45.930   1.680   8.304  0.00  0.00    +0.000 NA
ATOM     30  C   UNL     1      47.000   1.220   7.635  0.00  0.00    +0.000 A 
ATOM     31  C   UNL     1      47.611   1.910   6.620  0.00  0.00    +0.000 A 
ATOM     32  C   UNL     1      47.048   3.126   6.318  0.00  0.00    +0.000 A 
ATOM     33  N   UNL     1      45.979   3.622   6.960  0.00  0.00    +0.000 NA
ATOM     34  H   UNL     1      44.353   4.414   8.418  0.00  0.00    +0.000 HD
ENDBRANCH  26  27
ENDBRANCH  23  26
ENDBRANCH   4  23
TORSDOF 7
ENDMDL
MODEL 5
REMARK VINA RESULT:    -7.628      3.163      4.117
REMARK INTER + INTRA:         -11.958
REMARK INTER:                 -10.608
REMARK INTRA:                  -1.350
REMARK UNBOUND:                -1.431
REMARK  Name = 
REMARK  7 active torsions:
REMARK  status: ('A' for Active; 'I' for Inactive)
REMARK    1  A    between atoms: C_2  and  C_21
REMARK    2  A    between atoms: N_3  and  C_4
REMARK    3  A    between atoms: C_4  and  C_5
REMARK    4  A    between atoms: C_8  and  C_9
REMARK    5  A    between atoms: C_9  and  O_10
REMARK    6  A    between atoms: C_9  and  C_11
REMARK    7  A    between atoms: C_11  and  N_12
REMARK                            x       y       z     vdW  Elec       q    Type
REMARK                         _______ _______ _______ _____ _____    ______ ____
ROOT
ATOM      1  C   UNL     1      45.520   7.507  12.516  0.00  0.00    +0.000 A 
ATOM      2  C   UNL     1      46.208   6.543  13.255  0.00  0.00    +0.000 A 
ATOM      3  C   UNL     1      46.122   5.196  12.895  0.00  0.00    +0.000 A 
ATOM      4  C   UNL     1      45.356   4.833  11.789  0.00  0.00    +0.000 A 
ATOM      5  N   UNL     1      44.733   5.768  11.024  0.00  0.00    +0.000 NA
ATOM      6  C   UNL     1      44.818   7.065  11.403  0.00  0.00    +0.000 A 
ENDROOT
BRANCH   1   7
ATOM      7  C   UNL     1      45.590   8.970  12.852  0.00  0.00    +0.000 C 
BRANCH   7  10
ATOM      8  O   UNL     1      47.545  10.805  11.868  0.00  0.00    +0.000 OA
ATOM      9  C   UNL     1      47.793  10.081  12.823  0.00  0.00    +0.000 C 
ATOM     10  N   UNL     1      46.865   9.272  13.446  0.00  0.00    +0.000 N 
ATOM     11  H   UNL     1      47.211   8.581  14.093  0.00  0.00    +0.000 HD
BRANCH   9  12
ATOM     12  C   UNL     1      49.145   9.799  13.287  0.00  0.00    +0.000 A 
ATOM     13  C   UNL     1      49.723  10.470  14.348  0.00  0.00    +0.000 A 
ATOM     14  S   UNL     1      51.435  10.350  14.318  0.00  0.00    +0.000 S 
ATOM     15  C   UNL     1      51.394   9.296  12.978  0.00  0.00    +0.000 A 
ATOM     16  N   UNL     1      52.518   8.902  12.321  0.00  0.00    +0.000 NA
ATOM     17  C   UNL     1      52.302   8.062  11.363  0.00  0.00    +0.000 A 
ATOM     18  N   UNL     1      51.077   7.546  11.036  0.00  0.00    +0.000 N 
ATOM     19  C   UNL     1      49.914   7.903  11.673  0.00  0.00    +0.000 A 
ATOM     20  O   UNL     1      48.838   7.386  11.402  0.00  0.00    +0.000 OA
ATOM     21  C   UNL     1      50.102   8.936  12.664  0.00  0.00    +0.000 A 
ATOM     22  H   UNL     1      50.988   6.826  10.330  0.00  0.00    +0.000 HD
ENDBRANCH   9  12
ENDBRANCH   7  10
ENDBRANCH   1   7
BRANCH   4  23
ATOM     23  C   UNL     1      45.180   3.393  11.322  0.00  0.00    +0.000 C 
BRANCH  23  24
ATOM     24  O   UNL     1      45.061   2.535  12.474  0.00  0.00    +0.000 OA
ATOM     25  H   UNL     1      44.106   2.491  12.672  0.00  0.00    +0.000 HD
ENDBRANCH  23  24
BRANCH  23  26
ATOM     26  C   UNL     1      43.972   3.140  10.405  0.00  0.00    +0.000 C 
BRANCH  26  27
ATOM     27  N   UNL     1      44.196   3.683   9.066  0.00  0.00    +0.000 N 
ATOM     28  C   UNL     1      45.244   3.055   8.407  0.00  0.00    +0.000 A 
ATOM     29  N   UNL     1      45.474   1.747   8.614  0.00  0.00    +0.000 NA
ATOM     30  C   UNL     1      46.507   1.197   7.957  0.00  0.00    +0.000 A 
ATOM     31  C   UNL     1      47.325   1.900   7.110  0.00  0.00    +0.000 A 
ATOM     32  C   UNL     1      47.014   3.231   6.969  0.00  0.00    +0.000 A 
ATOM     33  N   UNL     1      45.990   3.820   7.606  0.00  0.00    +0.000 NA
ATOM     34  H   UNL     1      44.393   4.681   9.056  0.00  0.00    +0.000 HD
ENDBRANCH  26  27
ENDBRANCH  23  26
ENDBRANCH   4  23
TORSDOF 7
ENDMDL
MODEL 6
REMARK VINA RESULT:    -7.627      3.139      8.226
REMARK INTER + INTRA:         -11.956
REMARK INTER:                 -11.161
REMARK INTRA:                  -0.794
REMARK UNBOUND:                -1.431
REMARK  Name = 
REMARK  7 active torsions:
REMARK  status: ('A' for Active; 'I' for Inactive)
REMARK    1  A    between atoms: C_2  and  C_21
REMARK    2  A    between atoms: N_3  and  C_4
REMARK    3  A    between atoms: C_4  and  C_5
REMARK    4  A    between atoms: C_8  and  C_9
REMARK    5  A    between atoms: C_9  and  O_10
REMARK    6  A    between atoms: C_9  and  C_11
REMARK    7  A    between atoms: C_11  and  N_12
REMARK                            x       y       z     vdW  Elec       q    Type
REMARK                         _______ _______ _______ _____ _____    ______ ____
ROOT
ATOM      1  C   UNL     1      47.601   5.991  13.895  0.00  0.00    +0.000 A 
ATOM      2  C   UNL     1      48.335   6.548  14.945  0.00  0.00    +0.000 A 
ATOM      3  C   UNL     1      48.449   5.863  16.156  0.00  0.00    +0.000 A 
ATOM      4  C   UNL     1      47.837   4.619  16.297  0.00  0.00    +0.000 A 
ATOM      5  N   UNL     1      47.175   4.037  15.263  0.00  0.00    +0.000 NA
ATOM      6  C   UNL     1      47.063   4.728  14.105  0.00  0.00    +0.000 A 
ENDROOT
BRANCH   1   7
ATOM      7  C   UNL     1      47.458   6.679  12.567  0.00  0.00    +0.000 C 
BRANCH   7  10
ATOM      8  O   UNL     1      44.780   7.249  11.753  0.00  0.00    +0.000 OA
ATOM      9  C   UNL     1      45.308   6.183  11.464  0.00  0.00    +0.000 C 
ATOM     10  N   UNL     1      46.635   5.885  11.695  0.00  0.00    +0.000 N 
ATOM     11  H   UNL     1      46.920   4.923  11.594  0.00  0.00    +0.000 HD
BRANCH   9  12
ATOM     12  C   UNL     1      44.560   5.003  11.048  0.00  0.00    +0.000 A 
ATOM     13  C   UNL     1      43.522   4.478  11.796  0.00  0.00    +0.000 A 
ATOM     14  S   UNL     1      43.211   2.841  11.387  0.00  0.00    +0.000 S 
ATOM     15  C   UNL     1      44.361   2.877  10.128  0.00  0.00    +0.000 A 
ATOM     16  N   UNL     1      44.727   1.765   9.438  0.00  0.00    +0.000 NA
ATOM     17  C   UNL     1      45.571   1.988   8.485  0.00  0.00    +0.000 A 
ATOM     18  N   UNL     1      46.041   3.224   8.131  0.00  0.00    +0.000 N 
ATOM     19  C   UNL     1      45.696   4.379   8.787  0.00  0.00    +0.000 A 
ATOM     20  O   UNL     1      46.084   5.479   8.418  0.00  0.00    +0.000 OA
ATOM     21  C   UNL     1      44.854   4.150   9.938  0.00  0.00    +0.000 A 
ATOM     22  H   UNL     1      46.635   3.340   7.319  0.00  0.00    +0.000 HD
ENDBRANCH   9  12
ENDBRANCH   7  10
ENDBRANCH   1   7
BRANCH   4  23
ATOM     23  C   UNL     1      47.884   3.797  17.580  0.00  0.00    +0.000 C 
BRANCH  23  24
ATOM     24  O   UNL     1      46.665   3.037  17.697  0.00  0.00    +0.000 OA
ATOM     25  H   UNL     1      46.861   2.163  17.308  0.00  0.00    +0.000 HD
ENDBRANCH  23  24
BRANCH  23  26
ATOM     26  C   UNL     1      49.071   2.828  17.699  0.00  0.00    +0.000 C 
BRANCH  26  27
ATOM     27  N   UNL     1      50.347   3.524  17.540  0.00  0.00    +0.000 N 
ATOM     28  C   UNL     1      51.436   2.681  17.709  0.00  0.00    +0.000 A 
ATOM     29  N   UNL     1      51.354   1.398  17.317  0.00  0.00    +0.000 NA
ATOM     30  C   UNL     1      52.436   0.629  17.515  0.00  0.00    +0.000 A 
ATOM     31  C   UNL     1      53.591   1.084  18.098  0.00  0.00    +0.000 A 
ATOM     32  C   UNL     1      53.576   2.407  18.471  0.00  0.00    +0.000 A 
ATOM     33  N   UNL     1      52.517   3.210  18.289  0.00  0.00    +0.000 NA
ATOM     34  H   UNL     1      50.470   4.304  18.182  0.00  0.00    +0.000 HD
ENDBRANCH  26  27
ENDBRANCH  23  26
ENDBRANCH   4  23
TORSDOF 7
ENDMDL
MODEL 7
REMARK VINA RESULT:    -7.424      1.958      2.301
REMARK INTER + INTRA:         -11.676
REMARK INTER:                 -10.392
REMARK INTRA:                  -1.283
REMARK UNBOUND:                -1.431
REMARK  Name = 
REMARK  7 active torsions:
REMARK  status: ('A' for Active; 'I' for Inactive)
REMARK    1  A    between atoms: C_2  and  C_21
REMARK    2  A    between atoms: N_3  and  C_4
REMARK    3  A    between atoms: C_4  and  C_5
REMARK    4  A    between atoms: C_8  and  C_9
REMARK    5  A    between atoms: C_9  and  O_10
REMARK    6  A    between atoms: C_9  and  C_11
REMARK    7  A    between atoms: C_11  and  N_12
REMARK                            x       y       z     vdW  Elec       q    Type
REMARK                         _______ _______ _______ _____ _____    ______ ____
ROOT
ATOM      1  C   UNL     1      47.200   6.475  13.104  0.00  0.00    +0.000 A 
ATOM      2  C   UNL     1      46.117   7.237  12.659  0.00  0.00    +0.000 A 
ATOM      3  C   UNL     1      44.859   6.647  12.522  0.00  0.00    +0.000 A 
ATOM      4  C   UNL     1      44.697   5.301  12.846  0.00  0.00    +0.000 A 
ATOM      5  N   UNL     1      45.727   4.565  13.341  0.00  0.00    +0.000 NA
ATOM      6  C   UNL     1      46.941   5.155  13.448  0.00  0.00    +0.000 A 
ENDROOT
BRANCH   1   7
ATOM      7  C   UNL     1      48.571   7.063  13.282  0.00  0.00    +0.000 C 
BRANCH   7  10
ATOM      8  O   UNL     1      49.006   8.647  15.619  0.00  0.00    +0.000 OA
ATOM      9  C   UNL     1      49.417   7.495  15.558  0.00  0.00    +0.000 C 
ATOM     10  N   UNL     1      49.131   6.621  14.530  0.00  0.00    +0.000 N 
ATOM     11  H   UNL     1      49.668   5.769  14.482  0.00  0.00    +0.000 HD
BRANCH   9  12
ATOM     12  C   UNL     1      50.448   6.963  16.441  0.00  0.00    +0.000 A 
ATOM     13  C   UNL     1      51.642   7.622  16.673  0.00  0.00    +0.000 A 
ATOM     14  S   UNL     1      52.849   6.556  17.266  0.00  0.00    +0.000 S 
ATOM     15  C   UNL     1      51.746   5.257  17.342  0.00  0.00    +0.000 A 
ATOM     16  N   UNL     1      52.130   3.985  17.628  0.00  0.00    +0.000 NA
ATOM     17  C   UNL     1      51.154   3.141  17.694  0.00  0.00    +0.000 A 
ATOM     18  N   UNL     1      49.831   3.462  17.549  0.00  0.00    +0.000 N 
ATOM     19  C   UNL     1      49.389   4.731  17.269  0.00  0.00    +0.000 A 
ATOM     20  O   UNL     1      48.199   5.006  17.199  0.00  0.00    +0.000 OA
ATOM     21  C   UNL     1      50.463   5.674  17.062  0.00  0.00    +0.000 A 
ATOM     22  H   UNL     1      49.109   2.767  17.697  0.00  0.00    +0.000 HD
ENDBRANCH   9  12
ENDBRANCH   7  10
ENDBRANCH   1   7
BRANCH   4  23
ATOM     23  C   UNL     1      43.374   4.556  12.716  0.00  0.00    +0.000 C 
BRANCH  23  24
ATOM     24  O   UNL     1      42.288   5.488  12.895  0.00  0.00    +0.000 OA
ATOM     25  H   UNL     1      42.421   5.879  13.780  0.00  0.00    +0.000 HD
ENDBRANCH  23  24
BRANCH  23  26
ATOM     26  C   UNL     1      43.161   3.818  11.385  0.00  0.00    +0.000 C 
BRANCH  26  27
ATOM     27  N   UNL     1      44.216   2.834  11.145  0.00  0.00    +0.000 N 
ATOM     28  C   UNL     1      44.870   3.040   9.939  0.00  0.00    +0.000 A 
ATOM     29  N   UNL     1      45.045   4.291   9.480  0.00  0.00    +0.000 NA
ATOM     30  C   UNL     1      45.676   4.427   8.303  0.00  0.00    +0.000 A 
ATOM     31  C   UNL     1      46.128   3.367   7.561  0.00  0.00    +0.000 A 
ATOM     32  C   UNL     1      45.897   2.128   8.109  0.00  0.00    +0.000 A 
ATOM     33  N   UNL     1      45.272   1.948   9.283  0.00  0.00    +0.000 NA
ATOM     34  H   UNL     1      43.887   1.872  11.146  0.00  0.00    +0.000 HD
ENDBRANCH  26  27
ENDBRANCH  23  26
ENDBRANCH   4  23
TORSDOF 7
ENDMDL
MODEL 8
REMARK VINA RESULT:    -7.354      2.022      2.817
REMARK INTER + INTRA:         -11.580
REMARK INTER:                 -10.971
REMARK INTRA:                  -0.609
REMARK UNBOUND:                -1.431
REMARK  Name = 
REMARK  7 active torsions:
REMARK  status: ('A' for Active; 'I' for Inactive)
REMARK    1  A    between atoms: C_2  and  C_21
REMARK    2  A    between atoms: N_3  and  C_4
REMARK    3  A    between atoms: C_4  and  C_5
REMARK    4  A    between atoms: C_8  and  C_9
REMARK    5  A    between atoms: C_9  and  O_10
REMARK    6  A    between atoms: C_9  and  C_11
REMARK    7  A    between atoms: C_11  and  N_12
REMARK                            x       y       z     vdW  Elec       q    Type
REMARK                         _______ _______ _______ _____ _____    ______ ____
ROOT
ATOM      1  C   UNL     1      47.002   6.311  12.968  0.00  0.00    +0.000 A 
ATOM      2  C   UNL     1      46.903   6.591  11.603  0.00  0.00    +0.000 A 
ATOM      3  C   UNL     1      45.909   5.980  10.837  0.00  0.00    +0.000 A 
ATOM      4  C   UNL     1      45.016   5.104  11.450  0.00  0.00    +0.000 A 
ATOM      5  N   UNL     1      45.061   4.872  12.789  0.00  0.00    +0.000 NA
ATOM      6  C   UNL     1      46.044   5.463  13.507  0.00  0.00    +0.000 A 
ENDROOT
BRANCH   1   7
ATOM      7  C   UNL     1      48.044   6.951  13.841  0.00  0.00    +0.000 C 
BRANCH   7  10
ATOM      8  O   UNL     1      49.395   7.844  16.194  0.00  0.00    +0.000 OA
ATOM      9  C   UNL     1      48.873   6.737  16.155  0.00  0.00    +0.000 C 
ATOM     10  N   UNL     1      48.086   6.286  15.115  0.00  0.00    +0.000 N 
ATOM     11  H   UNL     1      47.864   5.302  15.093  0.00  0.00    +0.000 HD
BRANCH   9  12
ATOM     12  C   UNL     1      49.196   5.663  17.086  0.00  0.00    +0.000 A 
ATOM     13  C   UNL     1      48.230   4.847  17.644  0.00  0.00    +0.000 A 
ATOM     14  S   UNL     1      48.796   4.080  19.072  0.00  0.00    +0.000 S 
ATOM     15  C   UNL     1      50.361   4.727  18.867  0.00  0.00    +0.000 A 
ATOM     16  N   UNL     1      51.334   4.600  19.807  0.00  0.00    +0.000 NA
ATOM     17  C   UNL     1      52.472   5.107  19.461  0.00  0.00    +0.000 A 
ATOM     18  N   UNL     1      52.734   5.682  18.247  0.00  0.00    +0.000 N 
ATOM     19  C   UNL     1      51.791   5.825  17.260  0.00  0.00    +0.000 A 
ATOM     20  O   UNL     1      52.063   6.291  16.161  0.00  0.00    +0.000 OA
ATOM     21  C   UNL     1      50.476   5.385  17.662  0.00  0.00    +0.000 A 
ATOM     22  H   UNL     1      53.671   5.983  18.007  0.00  0.00    +0.000 HD
ENDBRANCH   9  12
ENDBRANCH   7  10
ENDBRANCH   1   7
BRANCH   4  23
ATOM     23  C   UNL     1      43.907   4.371  10.704  0.00  0.00    +0.000 C 
BRANCH  23  24
ATOM     24  O   UNL     1      43.237   5.298   9.825  0.00  0.00    +0.000 OA
ATOM     25  H   UNL     1      43.922   5.935   9.545  0.00  0.00    +0.000 HD
ENDBRANCH  23  24
BRANCH  23  26
ATOM     26  C   UNL     1      44.360   3.160   9.873  0.00  0.00    +0.000 C 
BRANCH  26  27
ATOM     27  N   UNL     1      44.429   3.486   8.449  0.00  0.00    +0.000 N 
ATOM     28  C   UNL     1      45.521   2.901   7.823  0.00  0.00    +0.000 A 
ATOM     29  N   UNL     1      45.952   1.693   8.226  0.00  0.00    +0.000 NA
ATOM     30  C   UNL     1      47.018   1.183   7.589  0.00  0.00    +0.000 A 
ATOM     31  C   UNL     1      47.677   1.832   6.577  0.00  0.00    +0.000 A 
ATOM     32  C   UNL     1      47.167   3.063   6.242  0.00  0.00    +0.000 A 
ATOM     33  N   UNL     1      46.103   3.609   6.852  0.00  0.00    +0.000 NA
ATOM     34  H   UNL     1      44.476   4.484   8.260  0.00  0.00    +0.000 HD
ENDBRANCH  26  27
ENDBRANCH  23  26
ENDBRANCH   4  23
TORSDOF 7
ENDMDL
MODEL 9
REMARK VINA RESULT:    -7.306      2.396      3.630
REMARK INTER + INTRA:         -11.513
REMARK INTER:                 -10.645
REMARK INTRA:                  -0.868
REMARK UNBOUND:                -1.431
REMARK  Name = 
REMARK  7 active torsions:
REMARK  status: ('A' for Active; 'I' for Inactive)
REMARK    1  A    between atoms: C_2  and  C_21
REMARK    2  A    between atoms: N_3  and  C_4
REMARK    3  A    between atoms: C_4  and  C_5
REMARK    4  A    between atoms: C_8  and  C_9
REMARK    5  A    between atoms: C_9  and  O_10
REMARK    6  A    between atoms: C_9  and  C_11
REMARK    7  A    between atoms: C_11  and  N_12
REMARK                            x       y       z     vdW  Elec       q    Type
REMARK                         _______ _______ _______ _____ _____    ______ ____
ROOT
ATOM      1  C   UNL     1      46.829   4.571  14.255  0.00  0.00    +0.000 A 
ATOM      2  C   UNL     1      46.834   5.873  13.748  0.00  0.00    +0.000 A 
ATOM      3  C   UNL     1      46.177   6.157  12.550  0.00  0.00    +0.000 A 
ATOM      4  C   UNL     1      45.510   5.135  11.878  0.00  0.00    +0.000 A 
ATOM      5  N   UNL     1      45.443   3.878  12.392  0.00  0.00    +0.000 NA
ATOM      6  C   UNL     1      46.103   3.623  13.546  0.00  0.00    +0.000 A 
ENDROOT
BRANCH   1   7
ATOM      7  C   UNL     1      47.509   4.215  15.546  0.00  0.00    +0.000 C 
BRANCH   7  10
ATOM      8  O   UNL     1      49.873   5.636  16.289  0.00  0.00    +0.000 OA
ATOM      9  C   UNL     1      48.792   5.914  16.792  0.00  0.00    +0.000 C 
ATOM     10  N   UNL     1      47.587   5.376  16.391  0.00  0.00    +0.000 N 
ATOM     11  H   UNL     1      46.789   5.526  16.989  0.00  0.00    +0.000 HD
BRANCH   9  12
ATOM     12  C   UNL     1      48.654   6.672  18.029  0.00  0.00    +0.000 A 
ATOM     13  C   UNL     1      48.612   6.067  19.272  0.00  0.00    +0.000 A 
ATOM     14  S   UNL     1      47.903   7.092  20.453  0.00  0.00    +0.000 S 
ATOM     15  C   UNL     1      47.780   8.381  19.342  0.00  0.00    +0.000 A 
ATOM     16  N   UNL     1      47.128   9.538  19.632  0.00  0.00    +0.000 NA
ATOM     17  C   UNL     1      47.180  10.423  18.691  0.00  0.00    +0.000 A 
ATOM     18  N   UNL     1      47.864  10.275  17.515  0.00  0.00    +0.000 N 
ATOM     19  C   UNL     1      48.546   9.132  17.178  0.00  0.00    +0.000 A 
ATOM     20  O   UNL     1      49.197   9.043  16.146  0.00  0.00    +0.000 OA
ATOM     21  C   UNL     1      48.401   8.075  18.151  0.00  0.00    +0.000 A 
ATOM     22  H   UNL     1      47.936  11.041  16.857  0.00  0.00    +0.000 HD
ENDBRANCH   9  12
ENDBRANCH   7  10
ENDBRANCH   1   7
BRANCH   4  23
ATOM     23  C   UNL     1      44.778   5.332  10.556  0.00  0.00    +0.000 C 
BRANCH  23  24
ATOM     24  O   UNL     1      45.650   6.012   9.631  0.00  0.00    +0.000 OA
ATOM     25  H   UNL     1      46.238   6.564  10.181  0.00  0.00    +0.000 HD
ENDBRANCH  23  24
BRANCH  23  26
ATOM     26  C   UNL     1      44.271   4.046   9.884  0.00  0.00    +0.000 C 
BRANCH  26  27
ATOM     27  N   UNL     1      44.386   4.123   8.428  0.00  0.00    +0.000 N 
ATOM     28  C   UNL     1      45.341   3.252   7.924  0.00  0.00    +0.000 A 
ATOM     29  N   UNL     1      45.539   2.063   8.519  0.00  0.00    +0.000 NA
ATOM     30  C   UNL     1      46.483   1.267   7.992  0.00  0.00    +0.000 A 
ATOM     31  C   UNL     1      47.243   1.612   6.904  0.00  0.00    +0.000 A 
ATOM     32  C   UNL     1      46.971   2.849   6.370  0.00  0.00    +0.000 A 
ATOM     33  N   UNL     1      46.036   3.674   6.864  0.00  0.00    +0.000 NA
ATOM     34  H   UNL     1      44.618   5.053   8.085  0.00  0.00    +0.000 HD
ENDBRANCH  26  27
ENDBRANCH  23  26
ENDBRANCH   4  23
TORSDOF 7
ENDMDL
