MODEL 1
REMARK VINA RESULT:    -7.123      0.000      0.000
REMARK INTER + INTRA:          -9.969
REMARK INTER:                  -9.413
REMARK INTRA:                  -0.555
REMARK UNBOUND:                -0.555
REMARK  Name = 
REMARK  6 active torsions:
REMARK  status: ('A' for Active; 'I' for Inactive)
REMARK    1  A    between atoms: N_1  and  C_2
REMARK    2  A    between atoms: C_2  and  C_3
REMARK    3  A    between atoms: C_6  and  O_7
REMARK    4  A    between atoms: O_7  and  C_8
REMARK    5  A    between atoms: C_8  and  C_9
REMARK    6  A    between atoms: C_9  and  C_10
REMARK                            x       y       z     vdW  Elec       q    Type
REMARK                         _______ _______ _______ _____ _____    ______ ____
ROOT
ATOM      1  C   UNL     1      46.503   2.396   7.687  0.00  0.00    +0.000 A 
ATOM      2  C   UNL     1      45.689   1.757   8.627  0.00  0.00    +0.000 A 
ATOM      3  C   UNL     1      44.759   2.497   9.364  0.00  0.00    +0.000 A 
ATOM      4  C   UNL     1      44.665   3.855   9.118  0.00  0.00    +0.000 A 
ATOM      5  N   UNL     1      45.458   4.508   8.242  0.00  0.00    +0.000 NA
ATOM      6  C   UNL     1      46.353   3.770   7.555  0.00  0.00    +0.000 A 
ENDROOT
BRANCH   1   7
ATOM      7  C   UNL     1      47.504   1.655   6.850  0.00  0.00    +0.000 C 
BRANCH   7   8
ATOM      8  N   UNL     1      48.575   2.530   6.388  0.00  0.00    +0.000 NA
ATOM      9  H   UNL     1      48.724   3.266   7.075  0.00  0.00    +0.000 HD
ATOM     10  H   UNL     1      48.278   2.997   5.531  0.00  0.00    +0.000 HD
ENDBRANCH   7   8
ENDBRANCH   1   7
BRANCH   4  11
ATOM     11  O   UNL     1      43.712   4.581   9.813  0.00  0.00    +0.000 OA
BRANCH  11  12
ATOM     12  C   UNL     1      43.437   3.956  11.077  0.00  0.00    +0.000 C 
BRANCH  12  13
ATOM     13  C   UNL     1      43.095   5.003  12.137  0.00  0.00    +0.000 C 
BRANCH  13  14
ATOM     14  C   UNL     1      44.342   5.528  12.887  0.00  0.00    +0.000 C 
ATOM     15  C   UNL     1      44.851   6.821  12.225  0.00  0.00    +0.000 C 
ATOM     16  C   UNL     1      46.133   7.346  12.869  0.00  0.00    +0.000 C 
ATOM     17  C   UNL     1      47.224   6.283  12.901  0.00  0.00    +0.000 C 
ATOM     18  C   UNL     1      46.737   5.028  13.610  0.00  0.00    +0.000 C 
ATOM     19  C   UNL     1      45.467   4.479  12.966  0.00  0.00    +0.000 C 
ENDBRANCH  13  14
ENDBRANCH  12  13
ENDBRANCH  11  12
ENDBRANCH   4  11
TORSDOF 6
ENDMDL
MODEL 2
REMARK VINA RESULT:    -6.963      2.574      5.876
REMARK INTER + INTRA:          -9.758
REMARK INTER:                  -9.214
REMARK INTRA:                  -0.544
REMARK UNBOUND:                -0.555
REMARK  Name = 
REMARK  6 active torsions:
REMARK  status: ('A' for Active; 'I' for Inactive)
REMARK    1  A    between atoms: N_1  and  C_2
REMARK    2  A    between atoms: C_2  and  C_3
REMARK    3  A    between atoms: C_6  and  O_7
REMARK    4  A    between atoms: O_7  and  C_8
REMARK    5  A    between atoms: C_8  and  C_9
REMARK    6  A    between atoms: C_9  and  C_10
REMARK                            x       y       z     vdW  Elec       q    Type
REMARK                         _______ _______ _______ _____ _____    ______ ____
ROOT
ATOM      1  C   UNL     1      47.196   5.854  13.256  0.00  0.00    +0.000 A 
ATOM      2  C   UNL     1      46.640   6.178  12.014  0.00  0.00    +0.000 A 
ATOM      3  C   UNL     1      45.597   5.405  11.493  0.00  0.00    +0.000 A 
ATOM      4  C   UNL     1      45.134   4.342  12.246  0.00  0.00    +0.000 A 
ATOM      5  N   UNL     1      45.670   3.983  13.432  0.00  0.00    +0.000 NA
ATOM      6  C   UNL     1      46.681   4.739  13.904  0.00  0.00    +0.000 A 
ENDROOT
BRANCH   1   7
ATOM      7  C   UNL     1      48.300   6.656  13.880  0.00  0.00    +0.000 C 
BRANCH   7   8
ATOM      8  N   UNL     1      49.452   6.769  12.992  0.00  0.00    +0.000 NA
ATOM      9  H   UNL     1      49.451   7.691  12.561  0.00  0.00    +0.000 HD
ATOM     10  H   UNL     1      49.353   6.098  12.231  0.00  0.00    +0.000 HD
ENDBRANCH   7   8
ENDBRANCH   1   7
BRANCH   4  11
ATOM     11  O   UNL     1      44.070   3.605  11.753  0.00  0.00    +0.000 OA
BRANCH  11  12
ATOM     12  C   UNL     1      44.003   3.727  10.323  0.00  0.00    +0.000 C 
BRANCH  12  13
ATOM     13  C   UNL     1      44.374   2.407   9.648  0.00  0.00    +0.000 C 
BRANCH  13  14
ATOM     14  C   UNL     1      45.655   2.511   8.787  0.00  0.00    +0.000 C 
ATOM     15  C   UNL     1      45.464   3.566   7.682  0.00  0.00    +0.000 C 
ATOM     16  C   UNL     1      46.667   3.658   6.743  0.00  0.00    +0.000 C 
ATOM     17  C   UNL     1      47.021   2.301   6.149  0.00  0.00    +0.000 C 
ATOM     18  C   UNL     1      47.268   1.275   7.245  0.00  0.00    +0.000 C 
ATOM     19  C   UNL     1      46.068   1.157   8.181  0.00  0.00    +0.000 C 
ENDBRANCH  13  14
ENDBRANCH  12  13
ENDBRANCH  11  12
ENDBRANCH   4  11
TORSDOF 6
ENDMDL
MODEL 3
REMARK VINA RESULT:    -6.624      2.247      5.957
REMARK INTER + INTRA:          -9.309
REMARK INTER:                  -8.846
REMARK INTRA:                  -0.464
REMARK UNBOUND:                -0.555
REMARK  Name = 
REMARK  6 active torsions:
REMARK  status: ('A' for Active; 'I' for Inactive)
REMARK    1  A    between atoms: N_1  and  C_2
REMARK    2  A    between atoms: C_2  and  C_3
REMARK    3  A    between atoms: C_6  and  O_7
REMARK    4  A    between atoms: O_7  and  C_8
REMARK    5  A    between atoms: C_8  and  C_9
REMARK    6  A    between atoms: C_9  and  C_10
REMARK                            x       y       z     vdW  Elec       q    Type
REMARK                         _______ _______ _______ _____ _____    ______ ____
ROOT
ATOM      1  C   UNL     1      46.463   6.162  13.070  0.00  0.00    +0.000 A 
ATOM      2  C   UNL     1      46.399   4.775  13.241  0.00  0.00    +0.000 A 
ATOM      3  C   UNL     1      45.395   4.039  12.604  0.00  0.00    +0.000 A 
ATOM      4  C   UNL     1      44.499   4.719  11.799  0.00  0.00    +0.000 A 
ATOM      5  N   UNL     1      44.513   6.059  11.640  0.00  0.00    +0.000 NA
ATOM      6  C   UNL     1      45.484   6.744  12.275  0.00  0.00    +0.000 A 
ENDROOT
BRANCH   1   7
ATOM      7  C   UNL     1      47.528   7.005  13.708  0.00  0.00    +0.000 C 
BRANCH   7   8
ATOM      8  N   UNL     1      48.754   6.248  13.931  0.00  0.00    +0.000 NA
ATOM      9  H   UNL     1      49.412   6.450  13.181  0.00  0.00    +0.000 HD
ATOM     10  H   UNL     1      48.547   5.252  13.867  0.00  0.00    +0.000 HD
ENDBRANCH   7   8
ENDBRANCH   1   7
BRANCH   4  11
ATOM     11  O   UNL     1      43.534   3.985  11.130  0.00  0.00    +0.000 OA
BRANCH  11  12
ATOM     12  C   UNL     1      44.152   3.100  10.181  0.00  0.00    +0.000 C 
BRANCH  12  13
ATOM     13  C   UNL     1      44.514   3.847   8.899  0.00  0.00    +0.000 C 
BRANCH  13  14
ATOM     14  C   UNL     1      45.251   2.956   7.871  0.00  0.00    +0.000 C 
ATOM     15  C   UNL     1      45.877   1.741   8.580  0.00  0.00    +0.000 C 
ATOM     16  C   UNL     1      46.693   0.863   7.632  0.00  0.00    +0.000 C 
ATOM     17  C   UNL     1      47.752   1.669   6.890  0.00  0.00    +0.000 C 
ATOM     18  C   UNL     1      47.122   2.834   6.141  0.00  0.00    +0.000 C 
ATOM     19  C   UNL     1      46.319   3.732   7.078  0.00  0.00    +0.000 C 
ENDBRANCH  13  14
ENDBRANCH  12  13
ENDBRANCH  11  12
ENDBRANCH   4  11
TORSDOF 6
ENDMDL
MODEL 4
REMARK VINA RESULT:    -5.392      3.559      6.924
REMARK INTER + INTRA:          -7.681
REMARK INTER:                  -7.354
REMARK INTRA:                  -0.328
REMARK UNBOUND:                -0.555
REMARK  Name = 
REMARK  6 active torsions:
REMARK  status: ('A' for Active; 'I' for Inactive)
REMARK    1  A    between atoms: N_1  and  C_2
REMARK    2  A    between atoms: C_2  and  C_3
REMARK    3  A    between atoms: C_6  and  O_7
REMARK    4  A    between atoms: O_7  and  C_8
REMARK    5  A    between atoms: C_8  and  C_9
REMARK    6  A    between atoms: C_9  and  C_10
REMARK                            x       y       z     vdW  Elec       q    Type
REMARK                         _______ _______ _______ _____ _____    ______ ____
ROOT
ATOM      1  C   UNL     1      48.035   4.943  16.257  0.00  0.00    +0.000 A 
ATOM      2  C   UNL     1      48.472   6.039  15.507  0.00  0.00    +0.000 A 
ATOM      3  C   UNL     1      47.908   6.298  14.254  0.00  0.00    +0.000 A 
ATOM      4  C   UNL     1      46.907   5.456  13.803  0.00  0.00    +0.000 A 
ATOM      5  N   UNL     1      46.485   4.372  14.487  0.00  0.00    +0.000 NA
ATOM      6  C   UNL     1      47.055   4.141  15.686  0.00  0.00    +0.000 A 
ENDROOT
BRANCH   1   7
ATOM      7  C   UNL     1      48.584   4.625  17.616  0.00  0.00    +0.000 C 
BRANCH   7   8
ATOM      8  N   UNL     1      47.642   3.845  18.410  0.00  0.00    +0.000 NA
ATOM      9  H   UNL     1      47.996   3.759  19.360  0.00  0.00    +0.000 HD
ATOM     10  H   UNL     1      47.596   2.897  18.037  0.00  0.00    +0.000 HD
ENDBRANCH   7   8
ENDBRANCH   1   7
BRANCH   4  11
ATOM     11  O   UNL     1      46.314   5.739  12.584  0.00  0.00    +0.000 OA
BRANCH  11  12
ATOM     12  C   UNL     1      45.531   4.618  12.141  0.00  0.00    +0.000 C 
BRANCH  12  13
ATOM     13  C   UNL     1      44.527   5.046  11.072  0.00  0.00    +0.000 C 
BRANCH  13  14
ATOM     14  C   UNL     1      44.600   4.175   9.795  0.00  0.00    +0.000 C 
ATOM     15  C   UNL     1      44.846   2.703  10.174  0.00  0.00    +0.000 C 
ATOM     16  C   UNL     1      45.012   1.801   8.952  0.00  0.00    +0.000 C 
ATOM     17  C   UNL     1      46.100   2.314   8.018  0.00  0.00    +0.000 C 
ATOM     18  C   UNL     1      45.822   3.749   7.597  0.00  0.00    +0.000 C 
ATOM     19  C   UNL     1      45.673   4.668   8.807  0.00  0.00    +0.000 C 
ENDBRANCH  13  14
ENDBRANCH  12  13
ENDBRANCH  11  12
ENDBRANCH   4  11
TORSDOF 6
ENDMDL
MODEL 5
REMARK VINA RESULT:    -5.120      4.780      7.713
REMARK INTER + INTRA:          -7.321
REMARK INTER:                  -6.946
REMARK INTRA:                  -0.376
REMARK UNBOUND:                -0.555
REMARK  Name = 
REMARK  6 active torsions:
REMARK  status: ('A' for Active; 'I' for Inactive)
REMARK    1  A    between atoms: N_1  and  C_2
REMARK    2  A    between atoms: C_2  and  C_3
REMARK    3  A    between atoms: C_6  and  O_7
REMARK    4  A    between atoms: O_7  and  C_8
REMARK    5  A    between atoms: C_8  and  C_9
REMARK    6  A    between atoms: C_9  and  C_10
REMARK                            x       y       z     vdW  Elec       q    Type
REMARK                         _______ _______ _______ _____ _____    ______ ____
ROOT
ATOM      1  C   UNL     1      48.571   4.746  18.122  0.00  0.00    +0.000 A 
ATOM      2  C   UNL     1      47.617   3.899  17.549  0.00  0.00    +0.000 A 
ATOM      3  C   UNL     1      47.268   4.051  16.203  0.00  0.00    +0.000 A 
ATOM      4  C   UNL     1      47.905   5.037  15.472  0.00  0.00    +0.000 A 
ATOM      5  N   UNL     1      48.805   5.891  16.003  0.00  0.00    +0.000 NA
ATOM      6  C   UNL     1      49.112   5.729  17.305  0.00  0.00    +0.000 A 
ENDROOT
BRANCH   1   7
ATOM      7  C   UNL     1      49.005   4.620  19.553  0.00  0.00    +0.000 C 
BRANCH   7   8
ATOM      8  N   UNL     1      48.333   3.515  20.226  0.00  0.00    +0.000 NA
ATOM      9  H   UNL     1      48.958   3.120  20.925  0.00  0.00    +0.000 HD
ATOM     10  H   UNL     1      48.156   2.772  19.550  0.00  0.00    +0.000 HD
ENDBRANCH   7   8
ENDBRANCH   1   7
BRANCH   4  11
ATOM     11  O   UNL     1      47.595   5.157  14.127  0.00  0.00    +0.000 OA
BRANCH  11  12
ATOM     12  C   UNL     1      46.379   4.451  13.833  0.00  0.00    +0.000 C 
BRANCH  12  13
ATOM     13  C   UNL     1      45.321   5.401  13.274  0.00  0.00    +0.000 C 
BRANCH  13  14
ATOM     14  C   UNL     1      44.744   4.929  11.918  0.00  0.00    +0.000 C 
ATOM     15  C   UNL     1      44.518   3.407  11.942  0.00  0.00    +0.000 C 
ATOM     16  C   UNL     1      44.027   2.864  10.600  0.00  0.00    +0.000 C 
ATOM     17  C   UNL     1      44.956   3.261   9.459  0.00  0.00    +0.000 C 
ATOM     18  C   UNL     1      45.130   4.771   9.401  0.00  0.00    +0.000 C 
ATOM     19  C   UNL     1      45.638   5.327  10.729  0.00  0.00    +0.000 C 
ENDBRANCH  13  14
ENDBRANCH  12  13
ENDBRANCH  11  12
ENDBRANCH   4  11
TORSDOF 6
ENDMDL
MODEL 6
REMARK VINA RESULT:    -5.118      5.339      7.814
REMARK INTER + INTRA:          -7.319
REMARK INTER:                  -7.019
REMARK INTRA:                  -0.299
REMARK UNBOUND:                -0.555
REMARK  Name = 
REMARK  6 active torsions:
REMARK  status: ('A' for Active; 'I' for Inactive)
REMARK    1  A    between atoms: N_1  and  C_2
REMARK    2  A    between atoms: C_2  and  C_3
REMARK    3  A    between atoms: C_6  and  O_7
REMARK    4  A    between atoms: O_7  and  C_8
REMARK    5  A    between atoms: C_8  and  C_9
REMARK    6  A    between atoms: C_9  and  C_10
REMARK                            x       y       z     vdW  Elec       q    Type
REMARK                         _______ _______ _______ _____ _____    ______ ____
ROOT
ATOM      1  C   UNL     1      50.725   3.547  17.707  0.00  0.00    +0.000 A 
ATOM      2  C   UNL     1      49.960   2.395  17.493  0.00  0.00    +0.000 A 
ATOM      3  C   UNL     1      48.690   2.498  16.918  0.00  0.00    +0.000 A 
ATOM      4  C   UNL     1      48.237   3.754  16.558  0.00  0.00    +0.000 A 
ATOM      5  N   UNL     1      48.936   4.887  16.780  0.00  0.00    +0.000 NA
ATOM      6  C   UNL     1      50.152   4.759  17.346  0.00  0.00    +0.000 A 
ENDROOT
BRANCH   1   7
ATOM      7  C   UNL     1      52.103   3.501  18.299  0.00  0.00    +0.000 C 
BRANCH   7   8
ATOM      8  N   UNL     1      52.574   2.132  18.465  0.00  0.00    +0.000 NA
ATOM      9  H   UNL     1      53.406   2.133  19.052  0.00  0.00    +0.000 HD
ATOM     10  H   UNL     1      52.866   1.767  17.559  0.00  0.00    +0.000 HD
ENDBRANCH   7   8
ENDBRANCH   1   7
BRANCH   4  11
ATOM     11  O   UNL     1      46.999   3.852  15.944  0.00  0.00    +0.000 OA
BRANCH  11  12
ATOM     12  C   UNL     1      47.068   4.753  14.827  0.00  0.00    +0.000 C 
BRANCH  12  13
ATOM     13  C   UNL     1      46.720   4.031  13.526  0.00  0.00    +0.000 C 
BRANCH  13  14
ATOM     14  C   UNL     1      45.337   4.437  12.965  0.00  0.00    +0.000 C 
ATOM     15  C   UNL     1      44.729   3.271  12.164  0.00  0.00    +0.000 C 
ATOM     16  C   UNL     1      43.397   3.637  11.512  0.00  0.00    +0.000 C 
ATOM     17  C   UNL     1      43.517   4.887  10.650  0.00  0.00    +0.000 C 
ATOM     18  C   UNL     1      44.061   6.055  11.460  0.00  0.00    +0.000 C 
ATOM     19  C   UNL     1      45.402   5.712  12.103  0.00  0.00    +0.000 C 
ENDBRANCH  13  14
ENDBRANCH  12  13
ENDBRANCH  11  12
ENDBRANCH   4  11
TORSDOF 6
ENDMDL
MODEL 7
REMARK VINA RESULT:    -4.980      2.342      3.579
REMARK INTER + INTRA:          -7.137
REMARK INTER:                  -6.683
REMARK INTRA:                  -0.454
REMARK UNBOUND:                -0.555
REMARK  Name = 
REMARK  6 active torsions:
REMARK  status: ('A' for Active; 'I' for Inactive)
REMARK    1  A    between atoms: N_1  and  C_2
REMARK    2  A    between atoms: C_2  and  C_3
REMARK    3  A    between atoms: C_6  and  O_7
REMARK    4  A    between atoms: O_7  and  C_8
REMARK    5  A    between atoms: C_8  and  C_9
REMARK    6  A    between atoms: C_9  and  C_10
REMARK                            x       y       z     vdW  Elec       q    Type
REMARK                         _______ _______ _______ _____ _____    ______ ____
ROOT
ATOM      1  C   UNL     1      44.510   2.904   9.750  0.00  0.00    +0.000 A 
ATOM      2  C   UNL     1      45.072   4.149   9.451  0.00  0.00    +0.000 A 
ATOM      3  C   UNL     1      44.920   5.216  10.342  0.00  0.00    +0.000 A 
ATOM      4  C   UNL     1      44.224   4.991  11.515  0.00  0.00    +0.000 A 
ATOM      5  N   UNL     1      43.642   3.812  11.819  0.00  0.00    +0.000 NA
ATOM      6  C   UNL     1      43.794   2.806  10.936  0.00  0.00    +0.000 A 
ENDROOT
BRANCH   1   7
ATOM      7  C   UNL     1      44.656   1.715   8.846  0.00  0.00    +0.000 C 
BRANCH   7   8
ATOM      8  N   UNL     1      46.054   1.448   8.527  0.00  0.00    +0.000 NA
ATOM      9  H   UNL     1      46.647   2.025   9.119  0.00  0.00    +0.000 HD
ATOM     10  H   UNL     1      46.238   1.741   7.568  0.00  0.00    +0.000 HD
ENDBRANCH   7   8
ENDBRANCH   1   7
BRANCH   4  11
ATOM     11  O   UNL     1      44.114   6.034  12.421  0.00  0.00    +0.000 OA
BRANCH  11  12
ATOM     12  C   UNL     1      45.405   6.363  12.958  0.00  0.00    +0.000 C 
BRANCH  12  13
ATOM     13  C   UNL     1      45.689   7.857  12.813  0.00  0.00    +0.000 C 
BRANCH  13  14
ATOM     14  C   UNL     1      47.199   8.189  12.847  0.00  0.00    +0.000 C 
ATOM     15  C   UNL     1      47.454   9.556  12.187  0.00  0.00    +0.000 C 
ATOM     16  C   UNL     1      48.940   9.906  12.113  0.00  0.00    +0.000 C 
ATOM     17  C   UNL     1      49.742   8.809  11.425  0.00  0.00    +0.000 C 
ATOM     18  C   UNL     1      49.536   7.470  12.116  0.00  0.00    +0.000 C 
ATOM     19  C   UNL     1      48.057   7.097  12.181  0.00  0.00    +0.000 C 
ENDBRANCH  13  14
ENDBRANCH  12  13
ENDBRANCH  11  12
ENDBRANCH   4  11
TORSDOF 6
ENDMDL
MODEL 8
REMARK VINA RESULT:    -4.910      4.316      6.479
REMARK INTER + INTRA:          -7.044
REMARK INTER:                  -6.715
REMARK INTRA:                  -0.329
REMARK UNBOUND:                -0.555
REMARK  Name = 
REMARK  6 active torsions:
REMARK  status: ('A' for Active; 'I' for Inactive)
REMARK    1  A    between atoms: N_1  and  C_2
REMARK    2  A    between atoms: C_2  and  C_3
REMARK    3  A    between atoms: C_6  and  O_7
REMARK    4  A    between atoms: O_7  and  C_8
REMARK    5  A    between atoms: C_8  and  C_9
REMARK    6  A    between atoms: C_9  and  C_10
REMARK                            x       y       z     vdW  Elec       q    Type
REMARK                         _______ _______ _______ _____ _____    ______ ____
ROOT
ATOM      1  C   UNL     1      44.746   4.901  11.874  0.00  0.00    +0.000 A 
ATOM      2  C   UNL     1      45.685   5.918  11.673  0.00  0.00    +0.000 A 
ATOM      3  C   UNL     1      46.742   6.081  12.574  0.00  0.00    +0.000 A 
ATOM      4  C   UNL     1      46.832   5.202  13.638  0.00  0.00    +0.000 A 
ATOM      5  N   UNL     1      45.925   4.232  13.879  0.00  0.00    +0.000 NA
ATOM      6  C   UNL     1      44.911   4.107  13.001  0.00  0.00    +0.000 A 
ENDROOT
BRANCH   1   7
ATOM      7  C   UNL     1      43.602   4.661  10.932  0.00  0.00    +0.000 C 
BRANCH   7   8
ATOM      8  N   UNL     1      42.864   3.453  11.278  0.00  0.00    +0.000 NA
ATOM      9  H   UNL     1      42.354   3.127  10.459  0.00  0.00    +0.000 HD
ATOM     10  H   UNL     1      42.160   3.681  11.979  0.00  0.00    +0.000 HD
ENDBRANCH   7   8
ENDBRANCH   1   7
BRANCH   4  11
ATOM     11  O   UNL     1      47.905   5.332  14.504  0.00  0.00    +0.000 OA
BRANCH  11  12
ATOM     12  C   UNL     1      47.550   4.848  15.810  0.00  0.00    +0.000 C 
BRANCH  12  13
ATOM     13  C   UNL     1      48.530   5.362  16.864  0.00  0.00    +0.000 C 
BRANCH  13  14
ATOM     14  C   UNL     1      49.363   4.230  17.512  0.00  0.00    +0.000 C 
ATOM     15  C   UNL     1      50.859   4.591  17.477  0.00  0.00    +0.000 C 
ATOM     16  C   UNL     1      51.746   3.476  18.027  0.00  0.00    +0.000 C 
ATOM     17  C   UNL     1      51.487   2.151  17.322  0.00  0.00    +0.000 C 
ATOM     18  C   UNL     1      50.018   1.767  17.410  0.00  0.00    +0.000 C 
ATOM     19  C   UNL     1      49.118   2.864  16.846  0.00  0.00    +0.000 C 
ENDBRANCH  13  14
ENDBRANCH  12  13
ENDBRANCH  11  12
ENDBRANCH   4  11
TORSDOF 6
ENDMDL
MODEL 9
REMARK VINA RESULT:    -4.683      4.043      6.289
REMARK INTER + INTRA:          -6.745
REMARK INTER:                  -6.339
REMARK INTRA:                  -0.405
REMARK UNBOUND:                -0.555
REMARK  Name = 
REMARK  6 active torsions:
REMARK  status: ('A' for Active; 'I' for Inactive)
REMARK    1  A    between atoms: N_1  and  C_2
REMARK    2  A    between atoms: C_2  and  C_3
REMARK    3  A    between atoms: C_6  and  O_7
REMARK    4  A    between atoms: O_7  and  C_8
REMARK    5  A    between atoms: C_8  and  C_9
REMARK    6  A    between atoms: C_9  and  C_10
REMARK                            x       y       z     vdW  Elec       q    Type
REMARK                         _______ _______ _______ _____ _____    ______ ____
ROOT
ATOM      1  C   UNL     1      44.732   5.594  11.928  0.00  0.00    +0.000 A 
ATOM      2  C   UNL     1      45.661   6.356  11.211  0.00  0.00    +0.000 A 
ATOM      3  C   UNL     1      46.937   6.575  11.737  0.00  0.00    +0.000 A 
ATOM      4  C   UNL     1      47.247   6.005  12.958  0.00  0.00    +0.000 A 
ATOM      5  N   UNL     1      46.364   5.293  13.690  0.00  0.00    +0.000 NA
ATOM      6  C   UNL     1      45.137   5.108  13.164  0.00  0.00    +0.000 A 
ENDROOT
BRANCH   1   7
ATOM      7  C   UNL     1      43.354   5.304  11.409  0.00  0.00    +0.000 C 
BRANCH   7   8
ATOM      8  N   UNL     1      42.619   6.529  11.116  0.00  0.00    +0.000 NA
ATOM      9  H   UNL     1      42.894   6.872  10.198  0.00  0.00    +0.000 HD
ATOM     10  H   UNL     1      42.894   7.250  11.783  0.00  0.00    +0.000 HD
ENDBRANCH   7   8
ENDBRANCH   1   7
BRANCH   4  11
ATOM     11  O   UNL     1      48.526   6.182  13.458  0.00  0.00    +0.000 OA
BRANCH  11  12
ATOM     12  C   UNL     1      48.491   7.012  14.631  0.00  0.00    +0.000 C 
BRANCH  12  13
ATOM     13  C   UNL     1      49.631   6.655  15.582  0.00  0.00    +0.000 C 
BRANCH  13  14
ATOM     14  C   UNL     1      49.133   6.210  16.978  0.00  0.00    +0.000 C 
ATOM     15  C   UNL     1      48.141   5.041  16.836  0.00  0.00    +0.000 C 
ATOM     16  C   UNL     1      47.546   4.609  18.176  0.00  0.00    +0.000 C 
ATOM     17  C   UNL     1      46.909   5.780  18.913  0.00  0.00    +0.000 C 
ATOM     18  C   UNL     1      47.910   6.910  19.105  0.00  0.00    +0.000 C 
ATOM     19  C   UNL     1      48.500   7.367  17.773  0.00  0.00    +0.000 C 
ENDBRANCH  13  14
ENDBRANCH  12  13
ENDBRANCH  11  12
ENDBRANCH   4  11
TORSDOF 6
ENDMDL
