MODEL 1
REMARK VINA RESULT:    -9.839      0.000      0.000
REMARK INTER + INTRA:         -14.123
REMARK INTER:                 -13.290
REMARK INTRA:                  -0.833
REMARK UNBOUND:                -0.833
REMARK  Name = 
REMARK  6 active torsions:
REMARK  status: ('A' for Active; 'I' for Inactive)
REMARK    1  A    between atoms: C_2  and  C_4
REMARK    2  A    between atoms: N_8  and  C_9
REMARK    3  A    between atoms: C_9  and  C_10
REMARK    4  A    between atoms: C_10  and  C_13
REMARK    5  A    between atoms: C_17  and  O_18
REMARK    6  A    between atoms: O_18  and  C_19
REMARK                            x       y       z     vdW  Elec       q    Type
REMARK                         _______ _______ _______ _____ _____    ______ ____
ROOT
ATOM      1  C   UNL     1      43.218   4.416  11.095  0.00  0.00    +0.000 C 
ENDROOT
BRANCH   1   6
ATOM      2  C   UNL     1      46.502   2.520   7.685  0.00  0.00    +0.000 A 
ATOM      3  C   UNL     1      45.632   1.859   8.544  0.00  0.00    +0.000 A 
ATOM      4  C   UNL     1      44.698   2.599   9.268  0.00  0.00    +0.000 A 
ATOM      5  C   UNL     1      44.656   3.984   9.138  0.00  0.00    +0.000 A 
ATOM      6  N   UNL     1      43.701   4.771   9.755  0.00  0.00    +0.000 N 
ATOM      7  N   UNL     1      45.518   4.637   8.333  0.00  0.00    +0.000 NA
ATOM      8  C   UNL     1      46.420   3.902   7.630  0.00  0.00    +0.000 A 
ATOM      9  H   UNL     1      43.949   5.750   9.614  0.00  0.00    +0.000 HD
BRANCH   2  11
ATOM     10  N   UNL     1      48.555   2.536   6.385  0.00  0.00    +0.000 N 
ATOM     11  C   UNL     1      47.489   1.810   6.845  0.00  0.00    +0.000 C 
ATOM     12  O   UNL     1      47.379   0.616   6.600  0.00  0.00    +0.000 OA
ATOM     13  H   UNL     1      49.279   2.015   5.905  0.00  0.00    +0.000 HD
ATOM     14  H   UNL     1      48.809   3.434   6.770  0.00  0.00    +0.000 HD
ENDBRANCH   2  11
ENDBRANCH   1   6
BRANCH   1  15
ATOM     15  C   UNL     1      43.419   5.544  12.144  0.00  0.00    +0.000 C 
ATOM     16  F   UNL     1      43.073   6.732  11.565  0.00  0.00    +0.000 F 
ATOM     17  F   UNL     1      42.530   5.369  13.166  0.00  0.00    +0.000 F 
BRANCH  15  18
ATOM     18  C   UNL     1      44.843   5.550  12.647  0.00  0.00    +0.000 A 
ATOM     19  C   UNL     1      45.707   6.587  12.315  0.00  0.00    +0.000 A 
ATOM     20  N   UNL     1      47.008   6.625  12.678  0.00  0.00    +0.000 NA
ATOM     21  C   UNL     1      47.467   5.587  13.418  0.00  0.00    +0.000 A 
ATOM     22  C   UNL     1      46.685   4.515  13.823  0.00  0.00    +0.000 A 
ATOM     23  C   UNL     1      45.354   4.497  13.422  0.00  0.00    +0.000 A 
BRANCH  22  24
ATOM     24  O   UNL     1      47.299   3.524  14.541  0.00  0.00    +0.000 OA
BRANCH  24  25
ATOM     25  C   UNL     1      47.618   3.791  15.922  0.00  0.00    +0.000 C 
ATOM     26  C   UNL     1      48.417   2.690  16.636  0.00  0.00    +0.000 C 
ATOM     27  C   UNL     1      47.394   2.876  17.749  0.00  0.00    +0.000 C 
ATOM     28  O   UNL     1      46.512   3.598  16.853  0.00  0.00    +0.000 OA
ENDBRANCH  24  25
ENDBRANCH  22  24
ENDBRANCH  15  18
ENDBRANCH   1  15
TORSDOF 6
ENDMDL
MODEL 2
REMARK VINA RESULT:    -8.925      1.785      2.618
REMARK INTER + INTRA:         -12.889
REMARK INTER:                 -11.984
REMARK INTRA:                  -0.905
REMARK UNBOUND:                -0.833
REMARK  Name = 
REMARK  6 active torsions:
REMARK  status: ('A' for Active; 'I' for Inactive)
REMARK    1  A    between atoms: C_2  and  C_4
REMARK    2  A    between atoms: N_8  and  C_9
REMARK    3  A    between atoms: C_9  and  C_10
REMARK    4  A    between atoms: C_10  and  C_13
REMARK    5  A    between atoms: C_17  and  O_18
REMARK    6  A    between atoms: O_18  and  C_19
REMARK                            x       y       z     vdW  Elec       q    Type
REMARK                         _______ _______ _______ _____ _____    ______ ____
ROOT
ATOM      1  C   UNL     1      43.174   4.539  11.008  0.00  0.00    +0.000 C 
ENDROOT
BRANCH   1   6
ATOM      2  C   UNL     1      46.465   2.510   7.683  0.00  0.00    +0.000 A 
ATOM      3  C   UNL     1      45.553   1.885   8.524  0.00  0.00    +0.000 A 
ATOM      4  C   UNL     1      44.629   2.661   9.223  0.00  0.00    +0.000 A 
ATOM      5  C   UNL     1      44.640   4.046   9.086  0.00  0.00    +0.000 A 
ATOM      6  N   UNL     1      43.700   4.870   9.678  0.00  0.00    +0.000 N 
ATOM      7  N   UNL     1      45.543   4.665   8.299  0.00  0.00    +0.000 NA
ATOM      8  C   UNL     1      46.435   3.894   7.620  0.00  0.00    +0.000 A 
ATOM      9  H   UNL     1      43.986   5.839   9.539  0.00  0.00    +0.000 HD
BRANCH   2  11
ATOM     10  N   UNL     1      48.534   2.454   6.408  0.00  0.00    +0.000 N 
ATOM     11  C   UNL     1      47.446   1.761   6.869  0.00  0.00    +0.000 C 
ATOM     12  O   UNL     1      47.311   0.566   6.645  0.00  0.00    +0.000 OA
ATOM     13  H   UNL     1      49.251   1.907   5.947  0.00  0.00    +0.000 HD
ATOM     14  H   UNL     1      48.804   3.353   6.778  0.00  0.00    +0.000 HD
ENDBRANCH   2  11
ENDBRANCH   1   6
BRANCH   1  15
ATOM     15  C   UNL     1      43.688   5.484  12.129  0.00  0.00    +0.000 C 
ATOM     16  F   UNL     1      43.848   6.732  11.596  0.00  0.00    +0.000 F 
ATOM     17  F   UNL     1      42.717   5.620  13.080  0.00  0.00    +0.000 F 
BRANCH  15  18
ATOM     18  C   UNL     1      44.970   4.950  12.722  0.00  0.00    +0.000 A 
ATOM     19  C   UNL     1      45.225   3.584  12.747  0.00  0.00    +0.000 A 
ATOM     20  N   UNL     1      46.320   3.035  13.317  0.00  0.00    +0.000 NA
ATOM     21  C   UNL     1      47.210   3.888  13.879  0.00  0.00    +0.000 A 
ATOM     22  C   UNL     1      47.065   5.268  13.889  0.00  0.00    +0.000 A 
ATOM     23  C   UNL     1      45.920   5.803  13.307  0.00  0.00    +0.000 A 
BRANCH  22  24
ATOM     24  O   UNL     1      48.034   5.998  14.523  0.00  0.00    +0.000 OA
BRANCH  24  25
ATOM     25  C   UNL     1      48.320   7.319  14.019  0.00  0.00    +0.000 C 
ATOM     26  C   UNL     1      49.722   7.501  13.417  0.00  0.00    +0.000 C 
ATOM     27  C   UNL     1      49.757   8.770  14.260  0.00  0.00    +0.000 C 
ATOM     28  O   UNL     1      48.627   8.311  15.044  0.00  0.00    +0.000 OA
ENDBRANCH  24  25
ENDBRANCH  22  24
ENDBRANCH  15  18
ENDBRANCH   1  15
TORSDOF 6
ENDMDL
MODEL 3
REMARK VINA RESULT:    -8.260      1.792      2.000
REMARK INTER + INTRA:         -11.990
REMARK INTER:                 -11.213
REMARK INTRA:                  -0.777
REMARK UNBOUND:                -0.833
REMARK  Name = 
REMARK  6 active torsions:
REMARK  status: ('A' for Active; 'I' for Inactive)
REMARK    1  A    between atoms: C_2  and  C_4
REMARK    2  A    between atoms: N_8  and  C_9
REMARK    3  A    between atoms: C_9  and  C_10
REMARK    4  A    between atoms: C_10  and  C_13
REMARK    5  A    between atoms: C_17  and  O_18
REMARK    6  A    between atoms: O_18  and  C_19
REMARK                            x       y       z     vdW  Elec       q    Type
REMARK                         _______ _______ _______ _____ _____    ______ ____
ROOT
ATOM      1  C   UNL     1      43.857   5.212  10.867  0.00  0.00    +0.000 C 
ENDROOT
BRANCH   1   6
ATOM      2  C   UNL     1      46.344   1.946   7.842  0.00  0.00    +0.000 A 
ATOM      3  C   UNL     1      45.479   1.694   8.899  0.00  0.00    +0.000 A 
ATOM      4  C   UNL     1      44.777   2.755   9.471  0.00  0.00    +0.000 A 
ATOM      5  C   UNL     1      44.962   4.049   8.992  0.00  0.00    +0.000 A 
ATOM      6  N   UNL     1      44.235   5.133   9.450  0.00  0.00    +0.000 N 
ATOM      7  N   UNL     1      45.824   4.308   7.990  0.00  0.00    +0.000 NA
ATOM      8  C   UNL     1      46.498   3.262   7.439  0.00  0.00    +0.000 A 
ATOM      9  H   UNL     1      44.631   5.982   9.046  0.00  0.00    +0.000 HD
BRANCH   2  11
ATOM     10  N   UNL     1      46.839  -0.414   7.536  0.00  0.00    +0.000 N 
ATOM     11  C   UNL     1      47.089   0.875   7.146  0.00  0.00    +0.000 C 
ATOM     12  O   UNL     1      47.869   1.125   6.238  0.00  0.00    +0.000 OA
ATOM     13  H   UNL     1      47.271  -1.142   6.980  0.00  0.00    +0.000 HD
ATOM     14  H   UNL     1      46.034  -0.669   8.089  0.00  0.00    +0.000 HD
ENDBRANCH   2  11
ENDBRANCH   1   6
BRANCH   1  15
ATOM     15  C   UNL     1      44.787   6.131  11.705  0.00  0.00    +0.000 C 
ATOM     16  F   UNL     1      45.506   6.911  10.845  0.00  0.00    +0.000 F 
ATOM     17  F   UNL     1      44.023   7.002  12.428  0.00  0.00    +0.000 F 
BRANCH  15  18
ATOM     18  C   UNL     1      45.677   5.304  12.603  0.00  0.00    +0.000 A 
ATOM     19  C   UNL     1      45.585   3.918  12.609  0.00  0.00    +0.000 A 
ATOM     20  N   UNL     1      46.305   3.121  13.429  0.00  0.00    +0.000 NA
ATOM     21  C   UNL     1      47.167   3.734  14.275  0.00  0.00    +0.000 A 
ATOM     22  C   UNL     1      47.354   5.108  14.335  0.00  0.00    +0.000 A 
ATOM     23  C   UNL     1      46.588   5.902  13.488  0.00  0.00    +0.000 A 
BRANCH  22  24
ATOM     24  O   UNL     1      48.239   5.583  15.265  0.00  0.00    +0.000 OA
BRANCH  24  25
ATOM     25  C   UNL     1      48.457   4.793  16.452  0.00  0.00    +0.000 C 
ATOM     26  C   UNL     1      47.963   5.427  17.762  0.00  0.00    +0.000 C 
ATOM     27  C   UNL     1      49.328   5.017  18.301  0.00  0.00    +0.000 C 
ATOM     28  O   UNL     1      49.826   4.811  16.955  0.00  0.00    +0.000 OA
ENDBRANCH  24  25
ENDBRANCH  22  24
ENDBRANCH  15  18
ENDBRANCH   1  15
TORSDOF 6
ENDMDL
MODEL 4
REMARK VINA RESULT:    -8.191      3.037      4.663
REMARK INTER + INTRA:         -11.897
REMARK INTER:                 -11.149
REMARK INTRA:                  -0.748
REMARK UNBOUND:                -0.833
REMARK  Name = 
REMARK  6 active torsions:
REMARK  status: ('A' for Active; 'I' for Inactive)
REMARK    1  A    between atoms: C_2  and  C_4
REMARK    2  A    between atoms: N_8  and  C_9
REMARK    3  A    between atoms: C_9  and  C_10
REMARK    4  A    between atoms: C_10  and  C_13
REMARK    5  A    between atoms: C_17  and  O_18
REMARK    6  A    between atoms: O_18  and  C_19
REMARK                            x       y       z     vdW  Elec       q    Type
REMARK                         _______ _______ _______ _____ _____    ______ ____
ROOT
ATOM      1  C   UNL     1      43.338   4.533  11.160  0.00  0.00    +0.000 C 
ENDROOT
BRANCH   1   6
ATOM      2  C   UNL     1      46.487   2.513   7.695  0.00  0.00    +0.000 A 
ATOM      3  C   UNL     1      45.571   1.889   8.533  0.00  0.00    +0.000 A 
ATOM      4  C   UNL     1      44.690   2.672   9.279  0.00  0.00    +0.000 A 
ATOM      5  C   UNL     1      44.746   4.060   9.191  0.00  0.00    +0.000 A 
ATOM      6  N   UNL     1      43.848   4.893   9.831  0.00  0.00    +0.000 N 
ATOM      7  N   UNL     1      45.654   4.674   8.407  0.00  0.00    +0.000 NA
ATOM      8  C   UNL     1      46.504   3.898   7.682  0.00  0.00    +0.000 A 
ATOM      9  H   UNL     1      44.165   5.856   9.721  0.00  0.00    +0.000 HD
BRANCH   2  11
ATOM     10  N   UNL     1      48.526   2.432   6.374  0.00  0.00    +0.000 N 
ATOM     11  C   UNL     1      47.424   1.761   6.834  0.00  0.00    +0.000 C 
ATOM     12  O   UNL     1      47.243   0.580   6.571  0.00  0.00    +0.000 OA
ATOM     13  H   UNL     1      49.214   1.877   5.879  0.00  0.00    +0.000 HD
ATOM     14  H   UNL     1      48.835   3.307   6.770  0.00  0.00    +0.000 HD
ENDBRANCH   2  11
ENDBRANCH   1   6
BRANCH   1  15
ATOM     15  C   UNL     1      44.412   4.615  12.278  0.00  0.00    +0.000 C 
ATOM     16  F   UNL     1      43.788   4.460  13.484  0.00  0.00    +0.000 F 
ATOM     17  F   UNL     1      45.256   3.547  12.170  0.00  0.00    +0.000 F 
BRANCH  15  18
ATOM     18  C   UNL     1      45.165   5.922  12.192  0.00  0.00    +0.000 A 
ATOM     19  C   UNL     1      46.538   5.936  11.975  0.00  0.00    +0.000 A 
ATOM     20  N   UNL     1      47.282   7.063  11.949  0.00  0.00    +0.000 NA
ATOM     21  C   UNL     1      46.626   8.234  12.135  0.00  0.00    +0.000 A 
ATOM     22  C   UNL     1      45.257   8.335  12.336  0.00  0.00    +0.000 A 
ATOM     23  C   UNL     1      44.519   7.156  12.372  0.00  0.00    +0.000 A 
BRANCH  22  24
ATOM     24  O   UNL     1      44.741   9.586  12.541  0.00  0.00    +0.000 OA
BRANCH  24  25
ATOM     25  C   UNL     1      44.580  10.445  11.394  0.00  0.00    +0.000 C 
ATOM     26  C   UNL     1      43.387  11.411  11.459  0.00  0.00    +0.000 C 
ATOM     27  C   UNL     1      43.110  10.931  10.040  0.00  0.00    +0.000 C 
ATOM     28  O   UNL     1      43.997   9.798  10.223  0.00  0.00    +0.000 OA
ENDBRANCH  24  25
ENDBRANCH  22  24
ENDBRANCH  15  18
ENDBRANCH   1  15
TORSDOF 6
ENDMDL
MODEL 5
REMARK VINA RESULT:    -8.020      2.528      3.996
REMARK INTER + INTRA:         -11.667
REMARK INTER:                 -11.034
REMARK INTRA:                  -0.632
REMARK UNBOUND:                -0.833
REMARK  Name = 
REMARK  6 active torsions:
REMARK  status: ('A' for Active; 'I' for Inactive)
REMARK    1  A    between atoms: C_2  and  C_4
REMARK    2  A    between atoms: N_8  and  C_9
REMARK    3  A    between atoms: C_9  and  C_10
REMARK    4  A    between atoms: C_10  and  C_13
REMARK    5  A    between atoms: C_17  and  O_18
REMARK    6  A    between atoms: O_18  and  C_19
REMARK                            x       y       z     vdW  Elec       q    Type
REMARK                         _______ _______ _______ _____ _____    ______ ____
ROOT
ATOM      1  C   UNL     1      43.321   3.960  11.188  0.00  0.00    +0.000 C 
ENDROOT
BRANCH   1   6
ATOM      2  C   UNL     1      46.526   2.898   7.366  0.00  0.00    +0.000 A 
ATOM      3  C   UNL     1      46.205   4.121   7.943  0.00  0.00    +0.000 A 
ATOM      4  C   UNL     1      45.428   4.144   9.100  0.00  0.00    +0.000 A 
ATOM      5  C   UNL     1      44.969   2.952   9.654  0.00  0.00    +0.000 A 
ATOM      6  N   UNL     1      44.271   2.894  10.846  0.00  0.00    +0.000 N 
ATOM      7  N   UNL     1      45.246   1.763   9.083  0.00  0.00    +0.000 NA
ATOM      8  C   UNL     1      46.009   1.756   7.957  0.00  0.00    +0.000 A 
ATOM      9  H   UNL     1      43.937   1.940  10.979  0.00  0.00    +0.000 HD
BRANCH   2  11
ATOM     10  N   UNL     1      48.689   2.417   6.369  0.00  0.00    +0.000 N 
ATOM     11  C   UNL     1      47.384   2.780   6.168  0.00  0.00    +0.000 C 
ATOM     12  O   UNL     1      46.940   2.963   5.043  0.00  0.00    +0.000 OA
ATOM     13  H   UNL     1      49.236   2.232   5.536  0.00  0.00    +0.000 HD
ATOM     14  H   UNL     1      49.017   2.017   7.236  0.00  0.00    +0.000 HD
ENDBRANCH   2  11
ENDBRANCH   1   6
BRANCH   1  15
ATOM     15  C   UNL     1      43.453   4.459  12.653  0.00  0.00    +0.000 C 
ATOM     16  F   UNL     1      42.442   5.345  12.895  0.00  0.00    +0.000 F 
ATOM     17  F   UNL     1      43.229   3.415  13.504  0.00  0.00    +0.000 F 
BRANCH  15  18
ATOM     18  C   UNL     1      44.814   5.073  12.881  0.00  0.00    +0.000 A 
ATOM     19  C   UNL     1      45.910   4.275  13.186  0.00  0.00    +0.000 A 
ATOM     20  N   UNL     1      47.139   4.761  13.463  0.00  0.00    +0.000 NA
ATOM     21  C   UNL     1      47.288   6.107  13.422  0.00  0.00    +0.000 A 
ATOM     22  C   UNL     1      46.268   6.993  13.106  0.00  0.00    +0.000 A 
ATOM     23  C   UNL     1      45.010   6.463  12.840  0.00  0.00    +0.000 A 
BRANCH  22  24
ATOM     24  O   UNL     1      46.563   8.330  13.137  0.00  0.00    +0.000 OA
BRANCH  24  25
ATOM     25  C   UNL     1      46.145   9.138  12.018  0.00  0.00    +0.000 C 
ATOM     26  C   UNL     1      46.928  10.445  11.824  0.00  0.00    +0.000 C 
ATOM     27  C   UNL     1      45.549  11.074  11.667  0.00  0.00    +0.000 C 
ATOM     28  O   UNL     1      44.920   9.899  12.238  0.00  0.00    +0.000 OA
ENDBRANCH  24  25
ENDBRANCH  22  24
ENDBRANCH  15  18
ENDBRANCH   1  15
TORSDOF 6
ENDMDL
MODEL 6
REMARK VINA RESULT:    -7.769      2.818      8.209
REMARK INTER + INTRA:         -11.327
REMARK INTER:                 -10.749
REMARK INTRA:                  -0.578
REMARK UNBOUND:                -0.833
REMARK  Name = 
REMARK  6 active torsions:
REMARK  status: ('A' for Active; 'I' for Inactive)
REMARK    1  A    between atoms: C_2  and  C_4
REMARK    2  A    between atoms: N_8  and  C_9
REMARK    3  A    between atoms: C_9  and  C_10
REMARK    4  A    between atoms: C_10  and  C_13
REMARK    5  A    between atoms: C_17  and  O_18
REMARK    6  A    between atoms: O_18  and  C_19
REMARK                            x       y       z     vdW  Elec       q    Type
REMARK                         _______ _______ _______ _____ _____    ______ ____
ROOT
ATOM      1  C   UNL     1      46.858   5.001  13.179  0.00  0.00    +0.000 C 
ENDROOT
BRANCH   1   6
ATOM      2  C   UNL     1      48.510   4.399  17.965  0.00  0.00    +0.000 A 
ATOM      3  C   UNL     1      48.668   5.474  17.100  0.00  0.00    +0.000 A 
ATOM      4  C   UNL     1      47.972   5.482  15.891  0.00  0.00    +0.000 A 
ATOM      5  C   UNL     1      47.146   4.413  15.557  0.00  0.00    +0.000 A 
ATOM      6  N   UNL     1      46.360   4.394  14.420  0.00  0.00    +0.000 N 
ATOM      7  N   UNL     1      47.013   3.350  16.375  0.00  0.00    +0.000 NA
ATOM      8  C   UNL     1      47.694   3.358  17.552  0.00  0.00    +0.000 A 
ATOM      9  H   UNL     1      45.947   3.466  14.328  0.00  0.00    +0.000 HD
BRANCH   2  11
ATOM     10  N   UNL     1      48.516   3.650  20.278  0.00  0.00    +0.000 N 
ATOM     11  C   UNL     1      49.170   4.332  19.287  0.00  0.00    +0.000 C 
ATOM     12  O   UNL     1      50.269   4.834  19.478  0.00  0.00    +0.000 OA
ATOM     13  H   UNL     1      49.027   3.517  21.143  0.00  0.00    +0.000 HD
ATOM     14  H   UNL     1      47.750   3.019  20.091  0.00  0.00    +0.000 HD
ENDBRANCH   2  11
ENDBRANCH   1   6
BRANCH   1  15
ATOM     15  C   UNL     1      45.762   5.754  12.376  0.00  0.00    +0.000 C 
ATOM     16  F   UNL     1      44.814   6.196  13.256  0.00  0.00    +0.000 F 
ATOM     17  F   UNL     1      46.301   6.884  11.832  0.00  0.00    +0.000 F 
BRANCH  15  18
ATOM     18  C   UNL     1      45.175   4.856  11.313  0.00  0.00    +0.000 A 
ATOM     19  C   UNL     1      44.257   3.868  11.647  0.00  0.00    +0.000 A 
ATOM     20  N   UNL     1      43.740   2.992  10.759  0.00  0.00    +0.000 NA
ATOM     21  C   UNL     1      44.149   3.112   9.472  0.00  0.00    +0.000 A 
ATOM     22  C   UNL     1      45.043   4.076   9.027  0.00  0.00    +0.000 A 
ATOM     23  C   UNL     1      45.568   4.955   9.968  0.00  0.00    +0.000 A 
BRANCH  22  24
ATOM     24  O   UNL     1      45.386   4.052   7.702  0.00  0.00    +0.000 OA
BRANCH  24  25
ATOM     25  C   UNL     1      46.675   3.510   7.350  0.00  0.00    +0.000 C 
ATOM     26  C   UNL     1      46.846   3.131   5.871  0.00  0.00    +0.000 C 
ATOM     27  C   UNL     1      47.430   1.837   6.423  0.00  0.00    +0.000 C 
ATOM     28  O   UNL     1      46.878   2.117   7.734  0.00  0.00    +0.000 OA
ENDBRANCH  24  25
ENDBRANCH  22  24
ENDBRANCH  15  18
ENDBRANCH   1  15
TORSDOF 6
ENDMDL
MODEL 7
REMARK VINA RESULT:    -7.067      3.172      7.315
REMARK INTER + INTRA:         -10.379
REMARK INTER:                 -10.046
REMARK INTRA:                  -0.333
REMARK UNBOUND:                -0.833
REMARK  Name = 
REMARK  6 active torsions:
REMARK  status: ('A' for Active; 'I' for Inactive)
REMARK    1  A    between atoms: C_2  and  C_4
REMARK    2  A    between atoms: N_8  and  C_9
REMARK    3  A    between atoms: C_9  and  C_10
REMARK    4  A    between atoms: C_10  and  C_13
REMARK    5  A    between atoms: C_17  and  O_18
REMARK    6  A    between atoms: O_18  and  C_19
REMARK                            x       y       z     vdW  Elec       q    Type
REMARK                         _______ _______ _______ _____ _____    ______ ____
ROOT
ATOM      1  C   UNL     1      46.147   4.640  13.258  0.00  0.00    +0.000 C 
ENDROOT
BRANCH   1   6
ATOM      2  C   UNL     1      50.190   7.731  13.577  0.00  0.00    +0.000 A 
ATOM      3  C   UNL     1      49.416   7.393  12.474  0.00  0.00    +0.000 A 
ATOM      4  C   UNL     1      48.245   6.659  12.665  0.00  0.00    +0.000 A 
ATOM      5  C   UNL     1      47.875   6.261  13.946  0.00  0.00    +0.000 A 
ATOM      6  N   UNL     1      46.685   5.611  14.219  0.00  0.00    +0.000 N 
ATOM      7  N   UNL     1      48.636   6.556  15.018  0.00  0.00    +0.000 NA
ATOM      8  C   UNL     1      49.773   7.276  14.817  0.00  0.00    +0.000 A 
ATOM      9  H   UNL     1      46.696   5.315  15.195  0.00  0.00    +0.000 HD
BRANCH   2  11
ATOM     10  N   UNL     1      52.405   8.086  12.641  0.00  0.00    +0.000 N 
ATOM     11  C   UNL     1      51.419   8.547  13.471  0.00  0.00    +0.000 C 
ATOM     12  O   UNL     1      51.536   9.607  14.071  0.00  0.00    +0.000 OA
ATOM     13  H   UNL     1      53.192   8.706  12.492  0.00  0.00    +0.000 HD
ATOM     14  H   UNL     1      52.243   7.368  11.949  0.00  0.00    +0.000 HD
ENDBRANCH   2  11
ENDBRANCH   1   6
BRANCH   1  15
ATOM     15  C   UNL     1      44.905   5.160  12.484  0.00  0.00    +0.000 C 
ATOM     16  F   UNL     1      43.814   5.043  13.298  0.00  0.00    +0.000 F 
ATOM     17  F   UNL     1      45.045   6.500  12.258  0.00  0.00    +0.000 F 
BRANCH  15  18
ATOM     18  C   UNL     1      44.733   4.399  11.190  0.00  0.00    +0.000 A 
ATOM     19  C   UNL     1      44.001   3.219  11.154  0.00  0.00    +0.000 A 
ATOM     20  N   UNL     1      43.858   2.457  10.048  0.00  0.00    +0.000 NA
ATOM     21  C   UNL     1      44.465   2.897   8.919  0.00  0.00    +0.000 A 
ATOM     22  C   UNL     1      45.200   4.072   8.840  0.00  0.00    +0.000 A 
ATOM     23  C   UNL     1      45.340   4.828   9.999  0.00  0.00    +0.000 A 
BRANCH  22  24
ATOM     24  O   UNL     1      45.782   4.370   7.636  0.00  0.00    +0.000 OA
BRANCH  24  25
ATOM     25  C   UNL     1      46.915   3.579   7.222  0.00  0.00    +0.000 C 
ATOM     26  C   UNL     1      46.801   2.953   5.824  0.00  0.00    +0.000 C 
ATOM     27  C   UNL     1      47.282   1.683   6.516  0.00  0.00    +0.000 C 
ATOM     28  O   UNL     1      46.982   2.249   7.817  0.00  0.00    +0.000 OA
ENDBRANCH  24  25
ENDBRANCH  22  24
ENDBRANCH  15  18
ENDBRANCH   1  15
TORSDOF 6
ENDMDL
