MODEL 1
REMARK VINA RESULT:    -8.066      0.000      0.000
REMARK INTER + INTRA:         -11.047
REMARK INTER:                 -10.424
REMARK INTRA:                  -0.623
REMARK UNBOUND:                -0.623
REMARK  Name = 
REMARK  5 active torsions:
REMARK  status: ('A' for Active; 'I' for Inactive)
REMARK    1  A    between atoms: C_2  and  C_5
REMARK    2  A    between atoms: C_8  and  C_9
REMARK    3  A    between atoms: C_13  and  N_14
REMARK    4  A    between atoms: N_14  and  C_15
REMARK    5  A    between atoms: C_15  and  C_16
REMARK                            x       y       z     vdW  Elec       q    Type
REMARK                         _______ _______ _______ _____ _____    ______ ____
ROOT
ATOM      1  C   UNL     1      45.399   4.869  12.850  0.00  0.00    +0.000 A 
ATOM      2  C   UNL     1      44.149   4.330  13.157  0.00  0.00    +0.000 A 
ATOM      3  N   UNL     1      43.226   4.008  12.222  0.00  0.00    +0.000 NA
ATOM      4  C   UNL     1      43.611   4.243  10.949  0.00  0.00    +0.000 A 
ATOM      5  C   UNL     1      44.828   4.836  10.593  0.00  0.00    +0.000 A 
ATOM      6  N   UNL     1      45.735   5.145  11.551  0.00  0.00    +0.000 NA
ENDROOT
BRANCH   1  10
ATOM      7  C   UNL     1      48.330   5.387  15.896  0.00  0.00    +0.000 A 
ATOM      8  C   UNL     1      48.298   6.292  14.835  0.00  0.00    +0.000 A 
ATOM      9  C   UNL     1      47.337   6.153  13.830  0.00  0.00    +0.000 A 
ATOM     10  C   UNL     1      46.414   5.110  13.900  0.00  0.00    +0.000 A 
ATOM     11  N   UNL     1      46.434   4.229  14.940  0.00  0.00    +0.000 NA
ATOM     12  C   UNL     1      47.378   4.381  15.899  0.00  0.00    +0.000 A 
BRANCH   7  14
ATOM     13  F   UNL     1      50.575   5.844  16.585  0.00  0.00    +0.000 F 
ATOM     14  C   UNL     1      49.337   5.457  17.001  0.00  0.00    +0.000 C 
ATOM     15  F   UNL     1      49.513   4.260  17.625  0.00  0.00    +0.000 F 
ATOM     16  F   UNL     1      48.980   6.337  17.977  0.00  0.00    +0.000 F 
ENDBRANCH   7  14
ENDBRANCH   1  10
BRANCH   5  17
ATOM     17  N   UNL     1      45.137   4.990   9.230  0.00  0.00    +0.000 N 
ATOM     18  H   UNL     1      46.143   5.020   9.093  0.00  0.00    +0.000 HD
BRANCH  17  19
ATOM     19  C   UNL     1      44.527   4.002   8.350  0.00  0.00    +0.000 C 
BRANCH  19  20
ATOM     20  C   UNL     1      45.596   3.046   7.884  0.00  0.00    +0.000 A 
ATOM     21  C   UNL     1      46.536   3.421   6.919  0.00  0.00    +0.000 A 
ATOM     22  C   UNL     1      47.522   2.520   6.521  0.00  0.00    +0.000 A 
ATOM     23  C   UNL     1      47.533   1.265   7.105  0.00  0.00    +0.000 A 
ATOM     24  N   UNL     1      46.642   0.865   8.036  0.00  0.00    +0.000 NA
ATOM     25  C   UNL     1      45.698   1.759   8.404  0.00  0.00    +0.000 A 
ENDBRANCH  19  20
ENDBRANCH  17  19
ENDBRANCH   5  17
TORSDOF 5
ENDMDL
MODEL 2
REMARK VINA RESULT:    -8.038      3.128      3.667
REMARK INTER + INTRA:         -11.011
REMARK INTER:                 -10.384
REMARK INTRA:                  -0.626
REMARK UNBOUND:                -0.623
REMARK  Name = 
REMARK  5 active torsions:
REMARK  status: ('A' for Active; 'I' for Inactive)
REMARK    1  A    between atoms: C_2  and  C_5
REMARK    2  A    between atoms: C_8  and  C_9
REMARK    3  A    between atoms: C_13  and  N_14
REMARK    4  A    between atoms: N_14  and  C_15
REMARK    5  A    between atoms: C_15  and  C_16
REMARK                            x       y       z     vdW  Elec       q    Type
REMARK                         _______ _______ _______ _____ _____    ______ ____
ROOT
ATOM      1  C   UNL     1      44.970   5.276  11.858  0.00  0.00    +0.000 A 
ATOM      2  C   UNL     1      44.306   4.671  12.925  0.00  0.00    +0.000 A 
ATOM      3  N   UNL     1      43.596   3.526  12.810  0.00  0.00    +0.000 NA
ATOM      4  C   UNL     1      43.583   2.997  11.567  0.00  0.00    +0.000 A 
ATOM      5  C   UNL     1      44.183   3.595  10.452  0.00  0.00    +0.000 A 
ATOM      6  N   UNL     1      44.890   4.741  10.599  0.00  0.00    +0.000 NA
ENDROOT
BRANCH   1  10
ATOM      7  C   UNL     1      47.511   8.666  12.289  0.00  0.00    +0.000 A 
ATOM      8  C   UNL     1      46.156   8.799  12.597  0.00  0.00    +0.000 A 
ATOM      9  C   UNL     1      45.304   7.698  12.478  0.00  0.00    +0.000 A 
ATOM     10  C   UNL     1      45.818   6.473  12.055  0.00  0.00    +0.000 A 
ATOM     11  N   UNL     1      47.142   6.335  11.762  0.00  0.00    +0.000 NA
ATOM     12  C   UNL     1      47.947   7.417  11.880  0.00  0.00    +0.000 A 
BRANCH   7  14
ATOM     13  F   UNL     1      49.660   9.465  12.974  0.00  0.00    +0.000 F 
ATOM     14  C   UNL     1      48.484   9.800  12.374  0.00  0.00    +0.000 C 
ATOM     15  F   UNL     1      47.996  10.857  13.079  0.00  0.00    +0.000 F 
ATOM     16  F   UNL     1      48.819  10.292  11.149  0.00  0.00    +0.000 F 
ENDBRANCH   7  14
ENDBRANCH   1  10
BRANCH   5  17
ATOM     17  N   UNL     1      44.140   2.926   9.216  0.00  0.00    +0.000 N 
ATOM     18  H   UNL     1      44.301   3.577   8.453  0.00  0.00    +0.000 HD
BRANCH  17  19
ATOM     19  C   UNL     1      45.032   1.779   9.111  0.00  0.00    +0.000 C 
BRANCH  19  20
ATOM     20  C   UNL     1      45.988   2.014   7.969  0.00  0.00    +0.000 A 
ATOM     21  C   UNL     1      45.975   3.210   7.244  0.00  0.00    +0.000 A 
ATOM     22  C   UNL     1      46.883   3.403   6.204  0.00  0.00    +0.000 A 
ATOM     23  C   UNL     1      47.779   2.387   5.923  0.00  0.00    +0.000 A 
ATOM     24  N   UNL     1      47.821   1.218   6.597  0.00  0.00    +0.000 NA
ATOM     25  C   UNL     1      46.930   1.058   7.600  0.00  0.00    +0.000 A 
ENDBRANCH  19  20
ENDBRANCH  17  19
ENDBRANCH   5  17
TORSDOF 5
ENDMDL
MODEL 3
REMARK VINA RESULT:    -7.999      4.470      7.823
REMARK INTER + INTRA:         -10.960
REMARK INTER:                 -10.343
REMARK INTRA:                  -0.617
REMARK UNBOUND:                -0.623
REMARK  Name = 
REMARK  5 active torsions:
REMARK  status: ('A' for Active; 'I' for Inactive)
REMARK    1  A    between atoms: C_2  and  C_5
REMARK    2  A    between atoms: C_8  and  C_9
REMARK    3  A    between atoms: C_13  and  N_14
REMARK    4  A    between atoms: N_14  and  C_15
REMARK    5  A    between atoms: C_15  and  C_16
REMARK                            x       y       z     vdW  Elec       q    Type
REMARK                         _______ _______ _______ _____ _____    ______ ____
ROOT
ATOM      1  C   UNL     1      44.421   4.498  10.835  0.00  0.00    +0.000 A 
ATOM      2  C   UNL     1      43.219   4.039  11.374  0.00  0.00    +0.000 A 
ATOM      3  N   UNL     1      42.564   4.668  12.377  0.00  0.00    +0.000 NA
ATOM      4  C   UNL     1      43.166   5.793  12.822  0.00  0.00    +0.000 A 
ATOM      5  C   UNL     1      44.400   6.261  12.355  0.00  0.00    +0.000 A 
ATOM      6  N   UNL     1      45.031   5.613  11.347  0.00  0.00    +0.000 NA
ENDROOT
BRANCH   1  10
ATOM      7  C   UNL     1      46.339   2.720   7.473  0.00  0.00    +0.000 A 
ATOM      8  C   UNL     1      45.778   1.888   8.443  0.00  0.00    +0.000 A 
ATOM      9  C   UNL     1      45.130   2.446   9.548  0.00  0.00    +0.000 A 
ATOM     10  C   UNL     1      45.048   3.833   9.670  0.00  0.00    +0.000 A 
ATOM     11  N   UNL     1      45.585   4.650   8.721  0.00  0.00    +0.000 NA
ATOM     12  C   UNL     1      46.212   4.086   7.661  0.00  0.00    +0.000 A 
BRANCH   7  14
ATOM     13  F   UNL     1      46.629   2.742   5.098  0.00  0.00    +0.000 F 
ATOM     14  C   UNL     1      47.064   2.201   6.271  0.00  0.00    +0.000 C 
ATOM     15  F   UNL     1      46.940   0.853   6.127  0.00  0.00    +0.000 F 
ATOM     16  F   UNL     1      48.402   2.449   6.321  0.00  0.00    +0.000 F 
ENDBRANCH   7  14
ENDBRANCH   1  10
BRANCH   5  17
ATOM     17  N   UNL     1      44.905   7.470  12.864  0.00  0.00    +0.000 N 
ATOM     18  H   UNL     1      44.891   7.462  13.880  0.00  0.00    +0.000 HD
BRANCH  17  19
ATOM     19  C   UNL     1      46.226   7.837  12.371  0.00  0.00    +0.000 C 
BRANCH  19  20
ATOM     20  C   UNL     1      47.231   7.617  13.472  0.00  0.00    +0.000 A 
ATOM     21  C   UNL     1      47.709   8.681  14.245  0.00  0.00    +0.000 A 
ATOM     22  C   UNL     1      48.626   8.442  15.267  0.00  0.00    +0.000 A 
ATOM     23  C   UNL     1      49.036   7.138  15.483  0.00  0.00    +0.000 A 
ATOM     24  N   UNL     1      48.602   6.086  14.759  0.00  0.00    +0.000 NA
ATOM     25  C   UNL     1      47.712   6.347  13.775  0.00  0.00    +0.000 A 
ENDBRANCH  19  20
ENDBRANCH  17  19
ENDBRANCH   5  17
TORSDOF 5
ENDMDL
MODEL 4
REMARK VINA RESULT:    -7.902      1.529      2.137
REMARK INTER + INTRA:         -10.834
REMARK INTER:                 -10.246
REMARK INTRA:                  -0.589
REMARK UNBOUND:                -0.623
REMARK  Name = 
REMARK  5 active torsions:
REMARK  status: ('A' for Active; 'I' for Inactive)
REMARK    1  A    between atoms: C_2  and  C_5
REMARK    2  A    between atoms: C_8  and  C_9
REMARK    3  A    between atoms: C_13  and  N_14
REMARK    4  A    between atoms: N_14  and  C_15
REMARK    5  A    between atoms: C_15  and  C_16
REMARK                            x       y       z     vdW  Elec       q    Type
REMARK                         _______ _______ _______ _____ _____    ______ ____
ROOT
ATOM      1  C   UNL     1      46.223   4.725  13.606  0.00  0.00    +0.000 A 
ATOM      2  C   UNL     1      45.619   5.928  13.239  0.00  0.00    +0.000 A 
ATOM      3  N   UNL     1      44.772   6.048  12.191  0.00  0.00    +0.000 NA
ATOM      4  C   UNL     1      44.544   4.898  11.519  0.00  0.00    +0.000 A 
ATOM      5  C   UNL     1      45.170   3.680  11.812  0.00  0.00    +0.000 A 
ATOM      6  N   UNL     1      46.012   3.589  12.870  0.00  0.00    +0.000 NA
ENDROOT
BRANCH   1  10
ATOM      7  C   UNL     1      48.668   4.259  17.062  0.00  0.00    +0.000 A 
ATOM      8  C   UNL     1      48.635   5.500  16.425  0.00  0.00    +0.000 A 
ATOM      9  C   UNL     1      47.830   5.683  15.298  0.00  0.00    +0.000 A 
ATOM     10  C   UNL     1      47.062   4.622  14.821  0.00  0.00    +0.000 A 
ATOM     11  N   UNL     1      47.082   3.410  15.445  0.00  0.00    +0.000 NA
ATOM     12  C   UNL     1      47.874   3.255  16.533  0.00  0.00    +0.000 A 
BRANCH   7  14
ATOM     13  F   UNL     1      48.798   3.653  19.373  0.00  0.00    +0.000 F 
ATOM     14  C   UNL     1      49.517   3.977  18.262  0.00  0.00    +0.000 C 
ATOM     15  F   UNL     1      50.290   5.040  18.616  0.00  0.00    +0.000 F 
ATOM     16  F   UNL     1      50.377   2.941  18.060  0.00  0.00    +0.000 F 
ENDBRANCH   7  14
ENDBRANCH   1  10
BRANCH   5  17
ATOM     17  N   UNL     1      44.818   2.539  11.069  0.00  0.00    +0.000 N 
ATOM     18  H   UNL     1      44.222   1.926  11.618  0.00  0.00    +0.000 HD
BRANCH  17  19
ATOM     19  C   UNL     1      44.215   2.817   9.772  0.00  0.00    +0.000 C 
BRANCH  19  20
ATOM     20  C   UNL     1      45.296   2.787   8.721  0.00  0.00    +0.000 A 
ATOM     21  C   UNL     1      45.975   1.605   8.409  0.00  0.00    +0.000 A 
ATOM     22  C   UNL     1      46.958   1.608   7.421  0.00  0.00    +0.000 A 
ATOM     23  C   UNL     1      47.230   2.800   6.774  0.00  0.00    +0.000 A 
ATOM     24  N   UNL     1      46.599   3.962   7.048  0.00  0.00    +0.000 NA
ATOM     25  C   UNL     1      45.650   3.930   8.010  0.00  0.00    +0.000 A 
ENDBRANCH  19  20
ENDBRANCH  17  19
ENDBRANCH   5  17
TORSDOF 5
ENDMDL
MODEL 5
REMARK VINA RESULT:    -7.560      1.968      2.506
REMARK INTER + INTRA:         -10.392
REMARK INTER:                  -9.744
REMARK INTRA:                  -0.648
REMARK UNBOUND:                -0.623
REMARK  Name = 
REMARK  5 active torsions:
REMARK  status: ('A' for Active; 'I' for Inactive)
REMARK    1  A    between atoms: C_2  and  C_5
REMARK    2  A    between atoms: C_8  and  C_9
REMARK    3  A    between atoms: C_13  and  N_14
REMARK    4  A    between atoms: N_14  and  C_15
REMARK    5  A    between atoms: C_15  and  C_16
REMARK                            x       y       z     vdW  Elec       q    Type
REMARK                         _______ _______ _______ _____ _____    ______ ____
ROOT
ATOM      1  C   UNL     1      46.750   5.693  12.775  0.00  0.00    +0.000 A 
ATOM      2  C   UNL     1      46.053   4.815  13.606  0.00  0.00    +0.000 A 
ATOM      3  N   UNL     1      45.013   4.059  13.188  0.00  0.00    +0.000 NA
ATOM      4  C   UNL     1      44.695   4.214  11.883  0.00  0.00    +0.000 A 
ATOM      5  C   UNL     1      45.325   5.123  11.024  0.00  0.00    +0.000 A 
ATOM      6  N   UNL     1      46.366   5.865  11.471  0.00  0.00    +0.000 NA
ENDROOT
BRANCH   1  10
ATOM      7  C   UNL     1      50.224   7.658  14.260  0.00  0.00    +0.000 A 
ATOM      8  C   UNL     1      49.863   7.850  12.926  0.00  0.00    +0.000 A 
ATOM      9  C   UNL     1      48.719   7.228  12.418  0.00  0.00    +0.000 A 
ATOM     10  C   UNL     1      47.946   6.422  13.252  0.00  0.00    +0.000 A 
ATOM     11  N   UNL     1      48.288   6.239  14.559  0.00  0.00    +0.000 NA
ATOM     12  C   UNL     1      49.404   6.848  15.028  0.00  0.00    +0.000 A 
BRANCH   7  14
ATOM     13  F   UNL     1      51.236   9.535  15.345  0.00  0.00    +0.000 F 
ATOM     14  C   UNL     1      51.442   8.273  14.875  0.00  0.00    +0.000 C 
ATOM     15  F   UNL     1      52.479   8.368  13.998  0.00  0.00    +0.000 F 
ATOM     16  F   UNL     1      51.913   7.555  15.932  0.00  0.00    +0.000 F 
ENDBRANCH   7  14
ENDBRANCH   1  10
BRANCH   5  17
ATOM     17  N   UNL     1      44.936   5.163   9.674  0.00  0.00    +0.000 N 
ATOM     18  H   UNL     1      45.722   5.420   9.084  0.00  0.00    +0.000 HD
BRANCH  17  19
ATOM     19  C   UNL     1      44.303   3.945   9.184  0.00  0.00    +0.000 C 
BRANCH  19  20
ATOM     20  C   UNL     1      45.339   3.115   8.470  0.00  0.00    +0.000 A 
ATOM     21  C   UNL     1      46.214   3.687   7.541  0.00  0.00    +0.000 A 
ATOM     22  C   UNL     1      47.172   2.896   6.909  0.00  0.00    +0.000 A 
ATOM     23  C   UNL     1      47.223   1.551   7.230  0.00  0.00    +0.000 A 
ATOM     24  N   UNL     1      46.394   0.962   8.118  0.00  0.00    +0.000 NA
ATOM     25  C   UNL     1      45.476   1.753   8.716  0.00  0.00    +0.000 A 
ENDBRANCH  19  20
ENDBRANCH  17  19
ENDBRANCH   5  17
TORSDOF 5
ENDMDL
MODEL 6
REMARK VINA RESULT:    -7.530      5.221      8.061
REMARK INTER + INTRA:         -10.353
REMARK INTER:                  -9.718
REMARK INTRA:                  -0.635
REMARK UNBOUND:                -0.623
REMARK  Name = 
REMARK  5 active torsions:
REMARK  status: ('A' for Active; 'I' for Inactive)
REMARK    1  A    between atoms: C_2  and  C_5
REMARK    2  A    between atoms: C_8  and  C_9
REMARK    3  A    between atoms: C_13  and  N_14
REMARK    4  A    between atoms: N_14  and  C_15
REMARK    5  A    between atoms: C_15  and  C_16
REMARK                            x       y       z     vdW  Elec       q    Type
REMARK                         _______ _______ _______ _____ _____    ______ ____
ROOT
ATOM      1  C   UNL     1      44.491   4.185  10.890  0.00  0.00    +0.000 A 
ATOM      2  C   UNL     1      43.414   3.567  11.526  0.00  0.00    +0.000 A 
ATOM      3  N   UNL     1      42.771   4.099  12.590  0.00  0.00    +0.000 NA
ATOM      4  C   UNL     1      43.251   5.295  12.996  0.00  0.00    +0.000 A 
ATOM      5  C   UNL     1      44.365   5.927  12.429  0.00  0.00    +0.000 A 
ATOM      6  N   UNL     1      44.987   5.372  11.362  0.00  0.00    +0.000 NA
ENDROOT
BRANCH   1  10
ATOM      7  C   UNL     1      46.356   2.670   7.374  0.00  0.00    +0.000 A 
ATOM      8  C   UNL     1      45.741   1.772   8.248  0.00  0.00    +0.000 A 
ATOM      9  C   UNL     1      45.110   2.245   9.401  0.00  0.00    +0.000 A 
ATOM     10  C   UNL     1      45.097   3.614   9.666  0.00  0.00    +0.000 A 
ATOM     11  N   UNL     1      45.687   4.496   8.811  0.00  0.00    +0.000 NA
ATOM     12  C   UNL     1      46.297   4.013   7.702  0.00  0.00    +0.000 A 
BRANCH   7  14
ATOM     13  F   UNL     1      46.981   0.904   5.884  0.00  0.00    +0.000 F 
ATOM     14  C   UNL     1      47.068   2.242   6.128  0.00  0.00    +0.000 C 
ATOM     15  F   UNL     1      48.398   2.528   6.162  0.00  0.00    +0.000 F 
ATOM     16  F   UNL     1      46.583   2.855   5.014  0.00  0.00    +0.000 F 
ENDBRANCH   7  14
ENDBRANCH   1  10
BRANCH   5  17
ATOM     17  N   UNL     1      44.744   7.193  12.909  0.00  0.00    +0.000 N 
ATOM     18  H   UNL     1      45.276   7.103  13.770  0.00  0.00    +0.000 HD
BRANCH  17  19
ATOM     19  C   UNL     1      45.459   8.022  11.947  0.00  0.00    +0.000 C 
BRANCH  19  20
ATOM     20  C   UNL     1      44.572   9.174  11.549  0.00  0.00    +0.000 A 
ATOM     21  C   UNL     1      43.520   9.004  10.643  0.00  0.00    +0.000 A 
ATOM     22  C   UNL     1      42.708  10.085  10.308  0.00  0.00    +0.000 A 
ATOM     23  C   UNL     1      42.978  11.310  10.894  0.00  0.00    +0.000 A 
ATOM     24  N   UNL     1      43.984  11.516  11.769  0.00  0.00    +0.000 NA
ATOM     25  C   UNL     1      44.755  10.449  12.077  0.00  0.00    +0.000 A 
ENDBRANCH  19  20
ENDBRANCH  17  19
ENDBRANCH   5  17
TORSDOF 5
ENDMDL
MODEL 7
REMARK VINA RESULT:    -7.513      4.698      7.696
REMARK INTER + INTRA:         -10.332
REMARK INTER:                  -9.730
REMARK INTRA:                  -0.602
REMARK UNBOUND:                -0.623
REMARK  Name = 
REMARK  5 active torsions:
REMARK  status: ('A' for Active; 'I' for Inactive)
REMARK    1  A    between atoms: C_2  and  C_5
REMARK    2  A    between atoms: C_8  and  C_9
REMARK    3  A    between atoms: C_13  and  N_14
REMARK    4  A    between atoms: N_14  and  C_15
REMARK    5  A    between atoms: C_15  and  C_16
REMARK                            x       y       z     vdW  Elec       q    Type
REMARK                         _______ _______ _______ _____ _____    ______ ____
ROOT
ATOM      1  C   UNL     1      44.687   4.311  10.807  0.00  0.00    +0.000 A 
ATOM      2  C   UNL     1      43.300   4.423  10.904  0.00  0.00    +0.000 A 
ATOM      3  N   UNL     1      42.669   4.978  11.964  0.00  0.00    +0.000 NA
ATOM      4  C   UNL     1      43.493   5.430  12.934  0.00  0.00    +0.000 A 
ATOM      5  C   UNL     1      44.886   5.289  12.910  0.00  0.00    +0.000 A 
ATOM      6  N   UNL     1      45.491   4.731  11.834  0.00  0.00    +0.000 NA
ENDROOT
BRANCH   1  10
ATOM      7  C   UNL     1      46.444   2.668   7.292  0.00  0.00    +0.000 A 
ATOM      8  C   UNL     1      46.384   4.056   7.427  0.00  0.00    +0.000 A 
ATOM      9  C   UNL     1      45.826   4.620   8.577  0.00  0.00    +0.000 A 
ATOM     10  C   UNL     1      45.336   3.789   9.583  0.00  0.00    +0.000 A 
ATOM     11  N   UNL     1      45.402   2.433   9.461  0.00  0.00    +0.000 NA
ATOM     12  C   UNL     1      45.942   1.909   8.336  0.00  0.00    +0.000 A 
BRANCH   7  14
ATOM     13  F   UNL     1      46.854   0.634   6.101  0.00  0.00    +0.000 F 
ATOM     14  C   UNL     1      47.010   1.987   6.085  0.00  0.00    +0.000 C 
ATOM     15  F   UNL     1      48.345   2.206   5.940  0.00  0.00    +0.000 F 
ATOM     16  F   UNL     1      46.434   2.414   4.928  0.00  0.00    +0.000 F 
ENDBRANCH   7  14
ENDBRANCH   1  10
BRANCH   5  17
ATOM     17  N   UNL     1      45.643   5.840  13.959  0.00  0.00    +0.000 N 
ATOM     18  H   UNL     1      45.369   5.433  14.849  0.00  0.00    +0.000 HD
BRANCH  17  19
ATOM     19  C   UNL     1      47.087   5.759  13.779  0.00  0.00    +0.000 C 
BRANCH  19  20
ATOM     20  C   UNL     1      47.567   7.038  13.143  0.00  0.00    +0.000 A 
ATOM     21  C   UNL     1      48.589   7.037  12.188  0.00  0.00    +0.000 A 
ATOM     22  C   UNL     1      48.999   8.235  11.606  0.00  0.00    +0.000 A 
ATOM     23  C   UNL     1      48.369   9.401  12.001  0.00  0.00    +0.000 A 
ATOM     24  N   UNL     1      47.382   9.445  12.921  0.00  0.00    +0.000 NA
ATOM     25  C   UNL     1      47.004   8.268  13.468  0.00  0.00    +0.000 A 
ENDBRANCH  19  20
ENDBRANCH  17  19
ENDBRANCH   5  17
TORSDOF 5
ENDMDL
MODEL 8
REMARK VINA RESULT:    -7.398      2.205      2.712
REMARK INTER + INTRA:         -10.183
REMARK INTER:                  -9.557
REMARK INTRA:                  -0.626
REMARK UNBOUND:                -0.623
REMARK  Name = 
REMARK  5 active torsions:
REMARK  status: ('A' for Active; 'I' for Inactive)
REMARK    1  A    between atoms: C_2  and  C_5
REMARK    2  A    between atoms: C_8  and  C_9
REMARK    3  A    between atoms: C_13  and  N_14
REMARK    4  A    between atoms: N_14  and  C_15
REMARK    5  A    between atoms: C_15  and  C_16
REMARK                            x       y       z     vdW  Elec       q    Type
REMARK                         _______ _______ _______ _____ _____    ______ ____
ROOT
ATOM      1  C   UNL     1      44.974   5.682  12.328  0.00  0.00    +0.000 A 
ATOM      2  C   UNL     1      43.604   5.925  12.429  0.00  0.00    +0.000 A 
ATOM      3  N   UNL     1      42.660   5.070  11.975  0.00  0.00    +0.000 NA
ATOM      4  C   UNL     1      43.148   3.942  11.412  0.00  0.00    +0.000 A 
ATOM      5  C   UNL     1      44.512   3.680  11.234  0.00  0.00    +0.000 A 
ATOM      6  N   UNL     1      45.435   4.554  11.702  0.00  0.00    +0.000 NA
ENDROOT
BRANCH   1  10
ATOM      7  C   UNL     1      47.959   8.208  14.016  0.00  0.00    +0.000 A 
ATOM      8  C   UNL     1      46.820   8.793  13.461  0.00  0.00    +0.000 A 
ATOM      9  C   UNL     1      45.819   7.986  12.914  0.00  0.00    +0.000 A 
ATOM     10  C   UNL     1      45.967   6.600  12.931  0.00  0.00    +0.000 A 
ATOM     11  N   UNL     1      47.073   6.023  13.480  0.00  0.00    +0.000 NA
ATOM     12  C   UNL     1      48.032   6.825  14.000  0.00  0.00    +0.000 A 
BRANCH   7  14
ATOM     13  F   UNL     1      49.812   9.684  13.678  0.00  0.00    +0.000 F 
ATOM     14  C   UNL     1      49.083   9.003  14.605  0.00  0.00    +0.000 C 
ATOM     15  F   UNL     1      49.973   8.227  15.282  0.00  0.00    +0.000 F 
ATOM     16  F   UNL     1      48.649   9.936  15.497  0.00  0.00    +0.000 F 
ENDBRANCH   7  14
ENDBRANCH   1  10
BRANCH   5  17
ATOM     17  N   UNL     1      44.900   2.450  10.674  0.00  0.00    +0.000 N 
ATOM     18  H   UNL     1      44.655   1.683  11.294  0.00  0.00    +0.000 HD
BRANCH  17  19
ATOM     19  C   UNL     1      44.396   2.205   9.329  0.00  0.00    +0.000 C 
BRANCH  19  20
ATOM     20  C   UNL     1      45.524   2.401   8.348  0.00  0.00    +0.000 A 
ATOM     21  C   UNL     1      46.406   1.361   8.036  0.00  0.00    +0.000 A 
ATOM     22  C   UNL     1      47.429   1.570   7.112  0.00  0.00    +0.000 A 
ATOM     23  C   UNL     1      47.536   2.821   6.529  0.00  0.00    +0.000 A 
ATOM     24  N   UNL     1      46.708   3.850   6.807  0.00  0.00    +0.000 NA
ATOM     25  C   UNL     1      45.725   3.619   7.705  0.00  0.00    +0.000 A 
ENDBRANCH  19  20
ENDBRANCH  17  19
ENDBRANCH   5  17
TORSDOF 5
ENDMDL
MODEL 9
REMARK VINA RESULT:    -6.922      4.435      7.908
REMARK INTER + INTRA:          -9.568
REMARK INTER:                  -8.876
REMARK INTRA:                  -0.692
REMARK UNBOUND:                -0.623
REMARK  Name = 
REMARK  5 active torsions:
REMARK  status: ('A' for Active; 'I' for Inactive)
REMARK    1  A    between atoms: C_2  and  C_5
REMARK    2  A    between atoms: C_8  and  C_9
REMARK    3  A    between atoms: C_13  and  N_14
REMARK    4  A    between atoms: N_14  and  C_15
REMARK    5  A    between atoms: C_15  and  C_16
REMARK                            x       y       z     vdW  Elec       q    Type
REMARK                         _______ _______ _______ _____ _____    ______ ____
ROOT
ATOM      1  C   UNL     1      48.102   6.425  13.664  0.00  0.00    +0.000 A 
ATOM      2  C   UNL     1      49.138   7.199  13.141  0.00  0.00    +0.000 A 
ATOM      3  N   UNL     1      50.162   7.676  13.886  0.00  0.00    +0.000 NA
ATOM      4  C   UNL     1      50.110   7.337  15.193  0.00  0.00    +0.000 A 
ATOM      5  C   UNL     1      49.063   6.613  15.776  0.00  0.00    +0.000 A 
ATOM      6  N   UNL     1      48.053   6.145  15.004  0.00  0.00    +0.000 NA
ENDROOT
BRANCH   1  10
ATOM      7  C   UNL     1      45.018   4.684  11.298  0.00  0.00    +0.000 A 
ATOM      8  C   UNL     1      45.641   5.846  10.839  0.00  0.00    +0.000 A 
ATOM      9  C   UNL     1      46.666   6.428  11.590  0.00  0.00    +0.000 A 
ATOM     10  C   UNL     1      47.059   5.840  12.791  0.00  0.00    +0.000 A 
ATOM     11  N   UNL     1      46.461   4.700  13.238  0.00  0.00    +0.000 NA
ATOM     12  C   UNL     1      45.467   4.156  12.496  0.00  0.00    +0.000 A 
BRANCH   7  14
ATOM     13  F   UNL     1      44.009   2.652  10.538  0.00  0.00    +0.000 F 
ATOM     14  C   UNL     1      43.903   4.010  10.562  0.00  0.00    +0.000 C 
ATOM     15  F   UNL     1      43.824   4.400   9.260  0.00  0.00    +0.000 F 
ATOM     16  F   UNL     1      42.683   4.278  11.105  0.00  0.00    +0.000 F 
ENDBRANCH   7  14
ENDBRANCH   1  10
BRANCH   5  17
ATOM     17  N   UNL     1      49.143   6.282  17.140  0.00  0.00    +0.000 N 
ATOM     18  H   UNL     1      48.888   7.080  17.716  0.00  0.00    +0.000 HD
BRANCH  17  19
ATOM     19  C   UNL     1      48.380   5.103  17.529  0.00  0.00    +0.000 C 
BRANCH  19  20
ATOM     20  C   UNL     1      49.236   3.881  17.311  0.00  0.00    +0.000 A 
ATOM     21  C   UNL     1      50.521   3.787  17.854  0.00  0.00    +0.000 A 
ATOM     22  C   UNL     1      51.282   2.637  17.648  0.00  0.00    +0.000 A 
ATOM     23  C   UNL     1      50.726   1.613  16.901  0.00  0.00    +0.000 A 
ATOM     24  N   UNL     1      49.492   1.667  16.358  0.00  0.00    +0.000 NA
ATOM     25  C   UNL     1      48.777   2.793  16.574  0.00  0.00    +0.000 A 
ENDBRANCH  19  20
ENDBRANCH  17  19
ENDBRANCH   5  17
TORSDOF 5
ENDMDL
