MODEL 1
REMARK VINA RESULT:    -7.687      0.000      0.000
REMARK INTER + INTRA:         -11.114
REMARK INTER:                 -10.383
REMARK INTRA:                  -0.731
REMARK UNBOUND:                -0.731
REMARK  Name = 
REMARK  7 active torsions:
REMARK  status: ('A' for Active; 'I' for Inactive)
REMARK    1  A    between atoms: N_1  and  C_2
REMARK    2  A    between atoms: C_2  and  C_3
REMARK    3  A    between atoms: C_3  and  O_4
REMARK    4  A    between atoms: O_4  and  C_5
REMARK    5  A    between atoms: N_10  and  C_11
REMARK    6  A    between atoms: C_11  and  C_12
REMARK    7  A    between atoms: C_21  and  N_22
REMARK                            x       y       z     vdW  Elec       q    Type
REMARK                         _______ _______ _______ _____ _____    ______ ____
ROOT
ATOM      1  C   UNL     1      46.486   5.030  13.686  0.00  0.00    +0.000 A 
ATOM      2  C   UNL     1      45.471   4.061  13.674  0.00  0.00    +0.000 A 
ATOM      3  C   UNL     1      44.766   3.800  12.491  0.00  0.00    +0.000 A 
ATOM      4  C   UNL     1      43.735   2.918  12.117  0.00  0.00    +0.000 A 
ATOM      5  N   UNL     1      43.384   3.047  10.840  0.00  0.00    +0.000 NA
ATOM      6  N   UNL     1      44.232   3.994  10.375  0.00  0.00    +0.000 N 
ATOM      7  C   UNL     1      45.064   4.518  11.340  0.00  0.00    +0.000 A 
ATOM      8  C   UNL     1      46.055   5.514  11.325  0.00  0.00    +0.000 A 
ATOM      9  C   UNL     1      46.806   5.726  12.498  0.00  0.00    +0.000 A 
ENDROOT
BRANCH   9  10
ATOM     10  N   UNL     1      47.748   6.779  12.511  0.00  0.00    +0.000 N 
ATOM     11  H   UNL     1      47.649   7.417  11.728  0.00  0.00    +0.000 HD
ATOM     12  H   UNL     1      48.693   6.412  12.601  0.00  0.00    +0.000 HD
ENDBRANCH   9  10
BRANCH   1  13
ATOM     13  O   UNL     1      47.223   5.337  14.821  0.00  0.00    +0.000 OA
BRANCH  13  14
ATOM     14  C   UNL     1      47.600   4.200  15.618  0.00  0.00    +0.000 C 
BRANCH  14  15
ATOM     15  C   UNL     1      47.113   4.329  17.064  0.00  0.00    +0.000 C 
BRANCH  15  16
ATOM     16  N   UNL     1      46.664   3.052  17.618  0.00  0.00    +0.000 NA
ATOM     17  H   UNL     1      46.642   2.354  16.876  0.00  0.00    +0.000 HD
ATOM     18  H   UNL     1      45.702   3.164  17.941  0.00  0.00    +0.000 HD
ENDBRANCH  15  16
ENDBRANCH  14  15
ENDBRANCH  13  14
ENDBRANCH   1  13
BRANCH   6  19
ATOM     19  C   UNL     1      44.269   4.257   8.940  0.00  0.00    +0.000 C 
BRANCH  19  20
ATOM     20  C   UNL     1      45.428   3.535   8.292  0.00  0.00    +0.000 A 
ATOM     21  C   UNL     1      46.397   4.245   7.566  0.00  0.00    +0.000 A 
ATOM     22  C   UNL     1      47.418   3.573   6.895  0.00  0.00    +0.000 A 
ATOM     23  C   UNL     1      47.491   2.183   6.953  0.00  0.00    +0.000 A 
ATOM     24  C   UNL     1      46.554   1.475   7.703  0.00  0.00    +0.000 A 
ATOM     25 CL   UNL     1      46.647  -0.242   7.785  0.00  0.00    +0.000 Cl
ATOM     26  C   UNL     1      45.530   2.141   8.376  0.00  0.00    +0.000 A 
ENDBRANCH  19  20
ENDBRANCH   6  19
TORSDOF 7
ENDMDL
MODEL 2
REMARK VINA RESULT:    -7.353      2.398      3.599
REMARK INTER + INTRA:         -10.664
REMARK INTER:                  -9.648
REMARK INTRA:                  -1.016
REMARK UNBOUND:                -0.731
REMARK  Name = 
REMARK  7 active torsions:
REMARK  status: ('A' for Active; 'I' for Inactive)
REMARK    1  A    between atoms: N_1  and  C_2
REMARK    2  A    between atoms: C_2  and  C_3
REMARK    3  A    between atoms: C_3  and  O_4
REMARK    4  A    between atoms: O_4  and  C_5
REMARK    5  A    between atoms: N_10  and  C_11
REMARK    6  A    between atoms: C_11  and  C_12
REMARK    7  A    between atoms: C_21  and  N_22
REMARK                            x       y       z     vdW  Elec       q    Type
REMARK                         _______ _______ _______ _____ _____    ______ ____
ROOT
ATOM      1  C   UNL     1      45.819   7.637  12.868  0.00  0.00    +0.000 A 
ATOM      2  C   UNL     1      46.295   6.437  13.420  0.00  0.00    +0.000 A 
ATOM      3  C   UNL     1      45.857   5.208  12.906  0.00  0.00    +0.000 A 
ATOM      4  C   UNL     1      46.127   3.856  13.189  0.00  0.00    +0.000 A 
ATOM      5  N   UNL     1      45.442   3.021  12.411  0.00  0.00    +0.000 NA
ATOM      6  N   UNL     1      44.759   3.849  11.586  0.00  0.00    +0.000 N 
ATOM      7  C   UNL     1      44.937   5.186  11.867  0.00  0.00    +0.000 A 
ATOM      8  C   UNL     1      44.419   6.368  11.311  0.00  0.00    +0.000 A 
ATOM      9  C   UNL     1      44.912   7.600  11.784  0.00  0.00    +0.000 A 
ENDROOT
BRANCH   9  10
ATOM     10  N   UNL     1      44.336   8.789  11.285  0.00  0.00    +0.000 N 
ATOM     11  H   UNL     1      43.383   8.938  11.598  0.00  0.00    +0.000 HD
ATOM     12  H   UNL     1      44.427   8.831  10.271  0.00  0.00    +0.000 HD
ENDBRANCH   9  10
BRANCH   1  13
ATOM     13  O   UNL     1      46.211   8.886  13.326  0.00  0.00    +0.000 OA
BRANCH  13  14
ATOM     14  C   UNL     1      47.510   9.311  12.875  0.00  0.00    +0.000 C 
BRANCH  14  15
ATOM     15  C   UNL     1      47.429  10.562  11.996  0.00  0.00    +0.000 C 
BRANCH  15  16
ATOM     16  N   UNL     1      46.137  11.238  12.106  0.00  0.00    +0.000 NA
ATOM     17  H   UNL     1      45.777  11.124  13.052  0.00  0.00    +0.000 HD
ATOM     18  H   UNL     1      45.476  10.769  11.484  0.00  0.00    +0.000 HD
ENDBRANCH  15  16
ENDBRANCH  14  15
ENDBRANCH  13  14
ENDBRANCH   1  13
BRANCH   6  19
ATOM     19  C   UNL     1      44.041   3.272  10.454  0.00  0.00    +0.000 C 
BRANCH  19  20
ATOM     20  C   UNL     1      44.976   3.038   9.290  0.00  0.00    +0.000 A 
ATOM     21  C   UNL     1      45.360   4.101   8.456  0.00  0.00    +0.000 A 
ATOM     22  C   UNL     1      46.152   3.873   7.331  0.00  0.00    +0.000 A 
ATOM     23  C   UNL     1      46.581   2.582   7.033  0.00  0.00    +0.000 A 
ATOM     24  C   UNL     1      46.234   1.528   7.877  0.00  0.00    +0.000 A 
ATOM     25 CL   UNL     1      46.772  -0.067   7.517  0.00  0.00    +0.000 Cl
ATOM     26  C   UNL     1      45.442   1.749   9.004  0.00  0.00    +0.000 A 
ENDBRANCH  19  20
ENDBRANCH   6  19
TORSDOF 7
ENDMDL
MODEL 3
REMARK VINA RESULT:    -7.097      1.285      1.324
REMARK INTER + INTRA:         -10.317
REMARK INTER:                  -9.613
REMARK INTRA:                  -0.705
REMARK UNBOUND:                -0.731
REMARK  Name = 
REMARK  7 active torsions:
REMARK  status: ('A' for Active; 'I' for Inactive)
REMARK    1  A    between atoms: N_1  and  C_2
REMARK    2  A    between atoms: C_2  and  C_3
REMARK    3  A    between atoms: C_3  and  O_4
REMARK    4  A    between atoms: O_4  and  C_5
REMARK    5  A    between atoms: N_10  and  C_11
REMARK    6  A    between atoms: C_11  and  C_12
REMARK    7  A    between atoms: C_21  and  N_22
REMARK                            x       y       z     vdW  Elec       q    Type
REMARK                         _______ _______ _______ _____ _____    ______ ____
ROOT
ATOM      1  C   UNL     1      46.946   5.930  13.306  0.00  0.00    +0.000 A 
ATOM      2  C   UNL     1      46.098   4.845  13.576  0.00  0.00    +0.000 A 
ATOM      3  C   UNL     1      45.291   4.317  12.558  0.00  0.00    +0.000 A 
ATOM      4  C   UNL     1      44.368   3.259  12.465  0.00  0.00    +0.000 A 
ATOM      5  N   UNL     1      43.835   3.146  11.250  0.00  0.00    +0.000 NA
ATOM      6  N   UNL     1      44.460   4.116  10.541  0.00  0.00    +0.000 N 
ATOM      7  C   UNL     1      45.321   4.885  11.291  0.00  0.00    +0.000 A 
ATOM      8  C   UNL     1      46.138   5.990  10.995  0.00  0.00    +0.000 A 
ATOM      9  C   UNL     1      46.996   6.475  12.002  0.00  0.00    +0.000 A 
ENDROOT
BRANCH   9  10
ATOM     10  N   UNL     1      47.759   7.633  11.733  0.00  0.00    +0.000 N 
ATOM     11  H   UNL     1      48.423   7.856  12.465  0.00  0.00    +0.000 HD
ATOM     12  H   UNL     1      47.150   8.416  11.504  0.00  0.00    +0.000 HD
ENDBRANCH   9  10
BRANCH   1  13
ATOM     13  O   UNL     1      47.771   6.500  14.265  0.00  0.00    +0.000 OA
BRANCH  13  14
ATOM     14  C   UNL     1      47.999   5.681  15.425  0.00  0.00    +0.000 C 
BRANCH  14  15
ATOM     15  C   UNL     1      48.946   6.354  16.423  0.00  0.00    +0.000 C 
BRANCH  15  16
ATOM     16  N   UNL     1      48.235   7.193  17.387  0.00  0.00    +0.000 NA
ATOM     17  H   UNL     1      47.591   7.805  16.889  0.00  0.00    +0.000 HD
ATOM     18  H   UNL     1      48.916   7.799  17.847  0.00  0.00    +0.000 HD
ENDBRANCH  15  16
ENDBRANCH  14  15
ENDBRANCH  13  14
ENDBRANCH   1  13
BRANCH   6  19
ATOM     19  C   UNL     1      44.266   4.161   9.096  0.00  0.00    +0.000 C 
BRANCH  19  20
ATOM     20  C   UNL     1      45.401   3.464   8.381  0.00  0.00    +0.000 A 
ATOM     21  C   UNL     1      46.324   4.198   7.619  0.00  0.00    +0.000 A 
ATOM     22  C   UNL     1      47.320   3.550   6.888  0.00  0.00    +0.000 A 
ATOM     23  C   UNL     1      47.413   2.161   6.921  0.00  0.00    +0.000 A 
ATOM     24  C   UNL     1      46.523   1.428   7.704  0.00  0.00    +0.000 A 
ATOM     25 CL   UNL     1      46.642  -0.288   7.755  0.00  0.00    +0.000 Cl
ATOM     26  C   UNL     1      45.525   2.070   8.438  0.00  0.00    +0.000 A 
ENDBRANCH  19  20
ENDBRANCH   6  19
TORSDOF 7
ENDMDL
MODEL 4
REMARK VINA RESULT:    -7.087      1.877      2.896
REMARK INTER + INTRA:         -10.304
REMARK INTER:                  -9.337
REMARK INTRA:                  -0.967
REMARK UNBOUND:                -0.731
REMARK  Name = 
REMARK  7 active torsions:
REMARK  status: ('A' for Active; 'I' for Inactive)
REMARK    1  A    between atoms: N_1  and  C_2
REMARK    2  A    between atoms: C_2  and  C_3
REMARK    3  A    between atoms: C_3  and  O_4
REMARK    4  A    between atoms: O_4  and  C_5
REMARK    5  A    between atoms: N_10  and  C_11
REMARK    6  A    between atoms: C_11  and  C_12
REMARK    7  A    between atoms: C_21  and  N_22
REMARK                            x       y       z     vdW  Elec       q    Type
REMARK                         _______ _______ _______ _____ _____    ______ ____
ROOT
ATOM      1  C   UNL     1      47.517   5.346  14.426  0.00  0.00    +0.000 A 
ATOM      2  C   UNL     1      47.201   6.596  13.872  0.00  0.00    +0.000 A 
ATOM      3  C   UNL     1      46.246   6.687  12.849  0.00  0.00    +0.000 A 
ATOM      4  C   UNL     1      45.685   7.737  12.099  0.00  0.00    +0.000 A 
ATOM      5  N   UNL     1      44.790   7.314  11.209  0.00  0.00    +0.000 NA
ATOM      6  N   UNL     1      44.742   5.978  11.424  0.00  0.00    +0.000 N 
ATOM      7  C   UNL     1      45.634   5.534  12.375  0.00  0.00    +0.000 A 
ATOM      8  C   UNL     1      45.948   4.265  12.889  0.00  0.00    +0.000 A 
ATOM      9  C   UNL     1      46.858   4.185  13.961  0.00  0.00    +0.000 A 
ENDROOT
BRANCH   9  10
ATOM     10  N   UNL     1      47.236   2.906  14.426  0.00  0.00    +0.000 N 
ATOM     11  H   UNL     1      46.733   2.615  15.257  0.00  0.00    +0.000 HD
ATOM     12  H   UNL     1      48.247   2.852  14.541  0.00  0.00    +0.000 HD
ENDBRANCH   9  10
BRANCH   1  13
ATOM     13  O   UNL     1      48.450   5.185  15.440  0.00  0.00    +0.000 OA
BRANCH  13  14
ATOM     14  C   UNL     1      47.958   5.475  16.761  0.00  0.00    +0.000 C 
BRANCH  14  15
ATOM     15  C   UNL     1      47.963   4.234  17.658  0.00  0.00    +0.000 C 
BRANCH  15  16
ATOM     16  N   UNL     1      46.751   3.431  17.506  0.00  0.00    +0.000 NA
ATOM     17  H   UNL     1      46.939   2.477  17.810  0.00  0.00    +0.000 HD
ATOM     18  H   UNL     1      46.523   3.381  16.512  0.00  0.00    +0.000 HD
ENDBRANCH  15  16
ENDBRANCH  14  15
ENDBRANCH  13  14
ENDBRANCH   1  13
BRANCH   6  19
ATOM     19  C   UNL     1      43.708   5.198  10.751  0.00  0.00    +0.000 C 
BRANCH  19  20
ATOM     20  C   UNL     1      44.325   4.129   9.879  0.00  0.00    +0.000 A 
ATOM     21  C   UNL     1      44.104   2.769  10.150  0.00  0.00    +0.000 A 
ATOM     22  C   UNL     1      44.742   1.781   9.400  0.00  0.00    +0.000 A 
ATOM     23  C   UNL     1      45.596   2.140   8.361  0.00  0.00    +0.000 A 
ATOM     24  C   UNL     1      45.791   3.488   8.063  0.00  0.00    +0.000 A 
ATOM     25 CL   UNL     1      46.839   3.934   6.772  0.00  0.00    +0.000 Cl
ATOM     26  C   UNL     1      45.156   4.481   8.809  0.00  0.00    +0.000 A 
ENDBRANCH  19  20
ENDBRANCH   6  19
TORSDOF 7
ENDMDL
MODEL 5
REMARK VINA RESULT:    -6.634      1.709      2.260
REMARK INTER + INTRA:          -9.692
REMARK INTER:                  -9.077
REMARK INTRA:                  -0.614
REMARK UNBOUND:                -0.731
REMARK  Name = 
REMARK  7 active torsions:
REMARK  status: ('A' for Active; 'I' for Inactive)
REMARK    1  A    between atoms: N_1  and  C_2
REMARK    2  A    between atoms: C_2  and  C_3
REMARK    3  A    between atoms: C_3  and  O_4
REMARK    4  A    between atoms: O_4  and  C_5
REMARK    5  A    between atoms: N_10  and  C_11
REMARK    6  A    between atoms: C_11  and  C_12
REMARK    7  A    between atoms: C_21  and  N_22
REMARK                            x       y       z     vdW  Elec       q    Type
REMARK                         _______ _______ _______ _____ _____    ______ ____
ROOT
ATOM      1  C   UNL     1      47.007   5.284  14.305  0.00  0.00    +0.000 A 
ATOM      2  C   UNL     1      46.442   6.334  13.565  0.00  0.00    +0.000 A 
ATOM      3  C   UNL     1      45.729   6.056  12.389  0.00  0.00    +0.000 A 
ATOM      4  C   UNL     1      45.036   6.827  11.437  0.00  0.00    +0.000 A 
ATOM      5  N   UNL     1      44.509   6.090  10.462  0.00  0.00    +0.000 NA
ATOM      6  N   UNL     1      44.829   4.824  10.818  0.00  0.00    +0.000 N 
ATOM      7  C   UNL     1      45.605   4.744  11.954  0.00  0.00    +0.000 A 
ATOM      8  C   UNL     1      46.182   3.673  12.657  0.00  0.00    +0.000 A 
ATOM      9  C   UNL     1      46.840   3.949  13.872  0.00  0.00    +0.000 A 
ENDROOT
BRANCH   9  10
ATOM     10  N   UNL     1      47.489   2.887  14.540  0.00  0.00    +0.000 N 
ATOM     11  H   UNL     1      47.325   2.881  15.540  0.00  0.00    +0.000 HD
ATOM     12  H   UNL     1      48.479   2.870  14.304  0.00  0.00    +0.000 HD
ENDBRANCH   9  10
BRANCH   1  13
ATOM     13  O   UNL     1      47.722   5.487  15.476  0.00  0.00    +0.000 OA
BRANCH  13  14
ATOM     14  C   UNL     1      48.693   6.548  15.412  0.00  0.00    +0.000 C 
BRANCH  14  15
ATOM     15  C   UNL     1      49.763   6.410  16.498  0.00  0.00    +0.000 C 
BRANCH  15  16
ATOM     16  N   UNL     1      50.068   5.014  16.807  0.00  0.00    +0.000 NA
ATOM     17  H   UNL     1      51.072   4.861  16.719  0.00  0.00    +0.000 HD
ATOM     18  H   UNL     1      49.621   4.425  16.102  0.00  0.00    +0.000 HD
ENDBRANCH  15  16
ENDBRANCH  14  15
ENDBRANCH  13  14
ENDBRANCH   1  13
BRANCH   6  19
ATOM     19  C   UNL     1      44.238   3.717  10.073  0.00  0.00    +0.000 C 
BRANCH  19  20
ATOM     20  C   UNL     1      45.188   3.220   9.008  0.00  0.00    +0.000 A 
ATOM     21  C   UNL     1      45.751   4.111   8.080  0.00  0.00    +0.000 A 
ATOM     22  C   UNL     1      46.558   3.644   7.043  0.00  0.00    +0.000 A 
ATOM     23  C   UNL     1      46.825   2.281   6.930  0.00  0.00    +0.000 A 
ATOM     24  C   UNL     1      46.299   1.396   7.869  0.00  0.00    +0.000 A 
ATOM     25 CL   UNL     1      46.635  -0.288   7.738  0.00  0.00    +0.000 Cl
ATOM     26  C   UNL     1      45.490   1.857   8.908  0.00  0.00    +0.000 A 
ENDBRANCH  19  20
ENDBRANCH   6  19
TORSDOF 7
ENDMDL
MODEL 6
REMARK VINA RESULT:    -5.930      3.458      7.692
REMARK INTER + INTRA:          -8.741
REMARK INTER:                  -7.703
REMARK INTRA:                  -1.037
REMARK UNBOUND:                -0.731
REMARK  Name = 
REMARK  7 active torsions:
REMARK  status: ('A' for Active; 'I' for Inactive)
REMARK    1  A    between atoms: N_1  and  C_2
REMARK    2  A    between atoms: C_2  and  C_3
REMARK    3  A    between atoms: C_3  and  O_4
REMARK    4  A    between atoms: O_4  and  C_5
REMARK    5  A    between atoms: N_10  and  C_11
REMARK    6  A    between atoms: C_11  and  C_12
REMARK    7  A    between atoms: C_21  and  N_22
REMARK                            x       y       z     vdW  Elec       q    Type
REMARK                         _______ _______ _______ _____ _____    ______ ____
ROOT
ATOM      1  C   UNL     1      44.774   5.043  12.000  0.00  0.00    +0.000 A 
ATOM      2  C   UNL     1      44.851   6.444  11.998  0.00  0.00    +0.000 A 
ATOM      3  C   UNL     1      45.885   7.089  12.691  0.00  0.00    +0.000 A 
ATOM      4  C   UNL     1      46.272   8.428  12.884  0.00  0.00    +0.000 A 
ATOM      5  N   UNL     1      47.356   8.546  13.649  0.00  0.00    +0.000 NA
ATOM      6  N   UNL     1      47.696   7.262  13.910  0.00  0.00    +0.000 N 
ATOM      7  C   UNL     1      46.817   6.336  13.392  0.00  0.00    +0.000 A 
ATOM      8  C   UNL     1      46.752   4.934  13.438  0.00  0.00    +0.000 A 
ATOM      9  C   UNL     1      45.751   4.287  12.686  0.00  0.00    +0.000 A 
ENDROOT
BRANCH   9  10
ATOM     10  N   UNL     1      45.634   2.883  12.792  0.00  0.00    +0.000 N 
ATOM     11  H   UNL     1      46.080   2.504  13.620  0.00  0.00    +0.000 HD
ATOM     12  H   UNL     1      45.949   2.433  11.935  0.00  0.00    +0.000 HD
ENDBRANCH   9  10
BRANCH   1  13
ATOM     13  O   UNL     1      43.779   4.341  11.335  0.00  0.00    +0.000 OA
BRANCH  13  14
ATOM     14  C   UNL     1      43.796   4.484   9.904  0.00  0.00    +0.000 C 
BRANCH  14  15
ATOM     15  C   UNL     1      44.627   3.389   9.229  0.00  0.00    +0.000 C 
BRANCH  15  16
ATOM     16  N   UNL     1      44.487   2.094   9.893  0.00  0.00    +0.000 NA
ATOM     17  H   UNL     1      43.503   1.928  10.101  0.00  0.00    +0.000 HD
ATOM     18  H   UNL     1      44.971   2.141  10.791  0.00  0.00    +0.000 HD
ENDBRANCH  15  16
ENDBRANCH  14  15
ENDBRANCH  13  14
ENDBRANCH   1  13
BRANCH   6  19
ATOM     19  C   UNL     1      48.970   6.996  14.571  0.00  0.00    +0.000 C 
BRANCH  19  20
ATOM     20  C   UNL     1      48.769   6.773  16.052  0.00  0.00    +0.000 A 
ATOM     21  C   UNL     1      48.726   7.860  16.940  0.00  0.00    +0.000 A 
ATOM     22  C   UNL     1      48.629   7.653  18.316  0.00  0.00    +0.000 A 
ATOM     23  C   UNL     1      48.558   6.357  18.820  0.00  0.00    +0.000 A 
ATOM     24  C   UNL     1      48.563   5.275  17.942  0.00  0.00    +0.000 A 
ATOM     25 CL   UNL     1      48.466   3.671  18.562  0.00  0.00    +0.000 Cl
ATOM     26  C   UNL     1      48.661   5.475  16.565  0.00  0.00    +0.000 A 
ENDBRANCH  19  20
ENDBRANCH   6  19
TORSDOF 7
ENDMDL
MODEL 7
REMARK VINA RESULT:    -5.789      4.501      8.109
REMARK INTER + INTRA:          -8.550
REMARK INTER:                  -7.514
REMARK INTRA:                  -1.036
REMARK UNBOUND:                -0.731
REMARK  Name = 
REMARK  7 active torsions:
REMARK  status: ('A' for Active; 'I' for Inactive)
REMARK    1  A    between atoms: N_1  and  C_2
REMARK    2  A    between atoms: C_2  and  C_3
REMARK    3  A    between atoms: C_3  and  O_4
REMARK    4  A    between atoms: O_4  and  C_5
REMARK    5  A    between atoms: N_10  and  C_11
REMARK    6  A    between atoms: C_11  and  C_12
REMARK    7  A    between atoms: C_21  and  N_22
REMARK                            x       y       z     vdW  Elec       q    Type
REMARK                         _______ _______ _______ _____ _____    ______ ____
ROOT
ATOM      1  C   UNL     1      45.981   5.521  11.916  0.00  0.00    +0.000 A 
ATOM      2  C   UNL     1      46.728   6.598  11.416  0.00  0.00    +0.000 A 
ATOM      3  C   UNL     1      47.743   7.168  12.198  0.00  0.00    +0.000 A 
ATOM      4  C   UNL     1      48.673   8.209  12.020  0.00  0.00    +0.000 A 
ATOM      5  N   UNL     1      49.456   8.389  13.082  0.00  0.00    +0.000 NA
ATOM      6  N   UNL     1      49.053   7.418  13.936  0.00  0.00    +0.000 N 
ATOM      7  C   UNL     1      47.990   6.675  13.472  0.00  0.00    +0.000 A 
ATOM      8  C   UNL     1      47.241   5.616  14.013  0.00  0.00    +0.000 A 
ATOM      9  C   UNL     1      46.268   5.003  13.200  0.00  0.00    +0.000 A 
ENDROOT
BRANCH   9  10
ATOM     10  N   UNL     1      45.460   3.992  13.767  0.00  0.00    +0.000 N 
ATOM     11  H   UNL     1      45.460   3.999  14.781  0.00  0.00    +0.000 HD
ATOM     12  H   UNL     1      45.704   3.082  13.380  0.00  0.00    +0.000 HD
ENDBRANCH   9  10
BRANCH   1  13
ATOM     13  O   UNL     1      44.964   4.909  11.197  0.00  0.00    +0.000 OA
BRANCH  13  14
ATOM     14  C   UNL     1      43.757   5.684  11.085  0.00  0.00    +0.000 C 
BRANCH  14  15
ATOM     15  C   UNL     1      42.602   5.059  11.872  0.00  0.00    +0.000 C 
BRANCH  15  16
ATOM     16  N   UNL     1      42.636   5.415  13.290  0.00  0.00    +0.000 NA
ATOM     17  H   UNL     1      43.383   6.090  13.449  0.00  0.00    +0.000 HD
ATOM     18  H   UNL     1      42.879   4.579  13.824  0.00  0.00    +0.000 HD
ENDBRANCH  15  16
ENDBRANCH  14  15
ENDBRANCH  13  14
ENDBRANCH   1  13
BRANCH   6  19
ATOM     19  C   UNL     1      49.834   7.183  15.146  0.00  0.00    +0.000 C 
BRANCH  19  20
ATOM     20  C   UNL     1      49.044   7.568  16.376  0.00  0.00    +0.000 A 
ATOM     21  C   UNL     1      48.560   8.877  16.535  0.00  0.00    +0.000 A 
ATOM     22  C   UNL     1      47.907   9.257  17.707  0.00  0.00    +0.000 A 
ATOM     23  C   UNL     1      47.717   8.331  18.729  0.00  0.00    +0.000 A 
ATOM     24  C   UNL     1      48.162   7.020  18.563  0.00  0.00    +0.000 A 
ATOM     25 CL   UNL     1      47.920   5.870  19.820  0.00  0.00    +0.000 Cl
ATOM     26  C   UNL     1      48.816   6.633  17.393  0.00  0.00    +0.000 A 
ENDBRANCH  19  20
ENDBRANCH   6  19
TORSDOF 7
ENDMDL
MODEL 8
REMARK VINA RESULT:    -5.695      4.154      6.789
REMARK INTER + INTRA:          -8.424
REMARK INTER:                  -7.582
REMARK INTRA:                  -0.842
REMARK UNBOUND:                -0.731
REMARK  Name = 
REMARK  7 active torsions:
REMARK  status: ('A' for Active; 'I' for Inactive)
REMARK    1  A    between atoms: N_1  and  C_2
REMARK    2  A    between atoms: C_2  and  C_3
REMARK    3  A    between atoms: C_3  and  O_4
REMARK    4  A    between atoms: O_4  and  C_5
REMARK    5  A    between atoms: N_10  and  C_11
REMARK    6  A    between atoms: C_11  and  C_12
REMARK    7  A    between atoms: C_21  and  N_22
REMARK                            x       y       z     vdW  Elec       q    Type
REMARK                         _______ _______ _______ _____ _____    ______ ____
ROOT
ATOM      1  C   UNL     1      44.264   5.058  12.410  0.00  0.00    +0.000 A 
ATOM      2  C   UNL     1      45.185   4.451  13.277  0.00  0.00    +0.000 A 
ATOM      3  C   UNL     1      46.318   5.160  13.701  0.00  0.00    +0.000 A 
ATOM      4  C   UNL     1      47.405   4.887  14.552  0.00  0.00    +0.000 A 
ATOM      5  N   UNL     1      48.259   5.904  14.641  0.00  0.00    +0.000 NA
ATOM      6  N   UNL     1      47.688   6.861  13.872  0.00  0.00    +0.000 N 
ATOM      7  C   UNL     1      46.533   6.453  13.242  0.00  0.00    +0.000 A 
ATOM      8  C   UNL     1      45.644   7.079  12.351  0.00  0.00    +0.000 A 
ATOM      9  C   UNL     1      44.473   6.389  11.981  0.00  0.00    +0.000 A 
ENDROOT
BRANCH   9  10
ATOM     10  N   UNL     1      43.619   6.982  11.025  0.00  0.00    +0.000 N 
ATOM     11  H   UNL     1      43.811   6.685  10.075  0.00  0.00    +0.000 HD
ATOM     12  H   UNL     1      43.618   7.995  11.127  0.00  0.00    +0.000 HD
ENDBRANCH   9  10
BRANCH   1  13
ATOM     13  O   UNL     1      43.122   4.416  11.952  0.00  0.00    +0.000 OA
BRANCH  13  14
ATOM     14  C   UNL     1      43.369   3.213  11.203  0.00  0.00    +0.000 C 
BRANCH  14  15
ATOM     15  C   UNL     1      44.279   3.466   9.998  0.00  0.00    +0.000 C 
BRANCH  15  16
ATOM     16  N   UNL     1      43.712   4.439   9.066  0.00  0.00    +0.000 NA
ATOM     17  H   UNL     1      44.097   4.277   8.136  0.00  0.00    +0.000 HD
ATOM     18  H   UNL     1      44.019   5.371   9.350  0.00  0.00    +0.000 HD
ENDBRANCH  15  16
ENDBRANCH  14  15
ENDBRANCH  13  14
ENDBRANCH   1  13
BRANCH   6  19
ATOM     19  C   UNL     1      48.256   8.205  13.892  0.00  0.00    +0.000 C 
BRANCH  19  20
ATOM     20  C   UNL     1      49.525   8.263  13.074  0.00  0.00    +0.000 A 
ATOM     21  C   UNL     1      49.525   7.873  11.725  0.00  0.00    +0.000 A 
ATOM     22  C   UNL     1      50.712   7.841  10.992  0.00  0.00    +0.000 A 
ATOM     23  C   UNL     1      51.910   8.214  11.595  0.00  0.00    +0.000 A 
ATOM     24  C   UNL     1      51.912   8.638  12.923  0.00  0.00    +0.000 A 
ATOM     25 CL   UNL     1      53.391   9.108  13.668  0.00  0.00    +0.000 Cl
ATOM     26  C   UNL     1      50.729   8.671  13.661  0.00  0.00    +0.000 A 
ENDBRANCH  19  20
ENDBRANCH   6  19
TORSDOF 7
ENDMDL
MODEL 9
REMARK VINA RESULT:    -5.685      3.833      6.643
REMARK INTER + INTRA:          -8.411
REMARK INTER:                  -7.661
REMARK INTRA:                  -0.750
REMARK UNBOUND:                -0.731
REMARK  Name = 
REMARK  7 active torsions:
REMARK  status: ('A' for Active; 'I' for Inactive)
REMARK    1  A    between atoms: N_1  and  C_2
REMARK    2  A    between atoms: C_2  and  C_3
REMARK    3  A    between atoms: C_3  and  O_4
REMARK    4  A    between atoms: O_4  and  C_5
REMARK    5  A    between atoms: N_10  and  C_11
REMARK    6  A    between atoms: C_11  and  C_12
REMARK    7  A    between atoms: C_21  and  N_22
REMARK                            x       y       z     vdW  Elec       q    Type
REMARK                         _______ _______ _______ _____ _____    ______ ____
ROOT
ATOM      1  C   UNL     1      45.285   4.286  12.159  0.00  0.00    +0.000 A 
ATOM      2  C   UNL     1      44.729   5.457  11.622  0.00  0.00    +0.000 A 
ATOM      3  C   UNL     1      45.200   6.711  12.039  0.00  0.00    +0.000 A 
ATOM      4  C   UNL     1      44.901   8.047  11.714  0.00  0.00    +0.000 A 
ATOM      5  N   UNL     1      45.634   8.921  12.401  0.00  0.00    +0.000 NA
ATOM      6  N   UNL     1      46.447   8.133  13.144  0.00  0.00    +0.000 N 
ATOM      7  C   UNL     1      46.200   6.785  12.999  0.00  0.00    +0.000 A 
ATOM      8  C   UNL     1      46.758   5.633  13.578  0.00  0.00    +0.000 A 
ATOM      9  C   UNL     1      46.330   4.375  13.107  0.00  0.00    +0.000 A 
ENDROOT
BRANCH   9  10
ATOM     10  N   UNL     1      46.830   3.216  13.741  0.00  0.00    +0.000 N 
ATOM     11  H   UNL     1      47.299   3.409  14.619  0.00  0.00    +0.000 HD
ATOM     12  H   UNL     1      47.407   2.678  13.098  0.00  0.00    +0.000 HD
ENDBRANCH   9  10
BRANCH   1  13
ATOM     13  O   UNL     1      44.868   3.015  11.791  0.00  0.00    +0.000 OA
BRANCH  13  14
ATOM     14  C   UNL     1      43.919   2.984  10.710  0.00  0.00    +0.000 C 
BRANCH  14  15
ATOM     15  C   UNL     1      44.571   2.563   9.389  0.00  0.00    +0.000 C 
BRANCH  15  16
ATOM     16  N   UNL     1      44.365   3.548   8.328  0.00  0.00    +0.000 NA
ATOM     17  H   UNL     1      44.069   4.431   8.741  0.00  0.00    +0.000 HD
ATOM     18  H   UNL     1      43.593   3.228   7.740  0.00  0.00    +0.000 HD
ENDBRANCH  15  16
ENDBRANCH  14  15
ENDBRANCH  13  14
ENDBRANCH   1  13
BRANCH   6  19
ATOM     19  C   UNL     1      47.537   8.756  13.887  0.00  0.00    +0.000 C 
BRANCH  19  20
ATOM     20  C   UNL     1      48.646   9.185  12.953  0.00  0.00    +0.000 A 
ATOM     21  C   UNL     1      48.853  10.543  12.664  0.00  0.00    +0.000 A 
ATOM     22  C   UNL     1      49.817  10.936  11.736  0.00  0.00    +0.000 A 
ATOM     23  C   UNL     1      50.597   9.976  11.096  0.00  0.00    +0.000 A 
ATOM     24  C   UNL     1      50.422   8.628  11.405  0.00  0.00    +0.000 A 
ATOM     25 CL   UNL     1      51.391   7.439  10.623  0.00  0.00    +0.000 Cl
ATOM     26  C   UNL     1      49.459   8.229  12.332  0.00  0.00    +0.000 A 
ENDBRANCH  19  20
ENDBRANCH   6  19
TORSDOF 7
ENDMDL
