MODEL 1
REMARK VINA RESULT:    -7.794      0.000      0.000
REMARK INTER + INTRA:         -12.083
REMARK INTER:                 -10.983
REMARK INTRA:                  -1.100
REMARK UNBOUND:                -1.100
REMARK  Name = 
REMARK  8 active torsions:
REMARK  status: ('A' for Active; 'I' for Inactive)
REMARK    1  A    between atoms: C_1  and  C_2
REMARK    2  A    between atoms: C_2  and  C_3
REMARK    3  A    between atoms: C_3  and  N_4
REMARK    4  A    between atoms: C_3  and  C_17
REMARK    5  A    between atoms: C_5  and  C_7
REMARK    6  A    between atoms: C_20  and  C_21
REMARK    7  A    between atoms: C_21  and  N_22
REMARK    8  A    between atoms: C_23  and  C_25
REMARK                            x       y       z     vdW  Elec       q    Type
REMARK                         _______ _______ _______ _____ _____    ______ ____
ROOT
ATOM      1  C   UNL     1      46.435   8.777  12.729  0.00  0.00    +0.000 C 
ENDROOT
BRANCH   1   2
ATOM      2  C   UNL     1      45.805   7.427  12.361  0.00  0.00    +0.000 A 
ATOM      3  C   UNL     1      44.507   7.365  11.849  0.00  0.00    +0.000 A 
ATOM      4  C   UNL     1      43.956   6.126  11.523  0.00  0.00    +0.000 A 
ATOM      5  C   UNL     1      44.701   4.963  11.714  0.00  0.00    +0.000 A 
ATOM      6  C   UNL     1      45.977   5.114  12.247  0.00  0.00    +0.000 A 
ATOM      7  N   UNL     1      46.540   6.306  12.569  0.00  0.00    +0.000 NA
BRANCH   5   8
ATOM      8  C   UNL     1      44.156   3.611  11.361  0.00  0.00    +0.000 C 
BRANCH   8   9
ATOM      9  N   UNL     1      44.937   2.938  10.352  0.00  0.00    +0.000 N 
ATOM     10  C   UNL     1      44.933   3.367   9.040  0.00  0.00    +0.000 C 
ATOM     11  O   UNL     1      44.280   4.328   8.646  0.00  0.00    +0.000 OA
ATOM     12  H   UNL     1      45.543   2.155  10.583  0.00  0.00    +0.000 HD
BRANCH  10  13
ATOM     13  C   UNL     1      45.794   2.570   8.104  0.00  0.00    +0.000 A 
ATOM     14  C   UNL     1      46.263   3.155   6.932  0.00  0.00    +0.000 A 
ATOM     15  C   UNL     1      47.045   2.384   6.077  0.00  0.00    +0.000 A 
ATOM     16  C   UNL     1      47.326   1.066   6.417  0.00  0.00    +0.000 A 
ATOM     17  C   UNL     1      46.818   0.566   7.608  0.00  0.00    +0.000 A 
ATOM     18  N   UNL     1      46.058   1.283   8.468  0.00  0.00    +0.000 NA
ENDBRANCH  10  13
ENDBRANCH   8   9
ENDBRANCH   5   8
ENDBRANCH   1   2
BRANCH   1  19
ATOM     19  N   UNL     1      46.852   8.741  14.132  0.00  0.00    +0.000 N 
ATOM     20  C   UNL     1      48.130   9.011  14.554  0.00  0.00    +0.000 C 
ATOM     21  O   UNL     1      49.020   9.402  13.806  0.00  0.00    +0.000 OA
ATOM     22  H   UNL     1      46.296   8.128  14.722  0.00  0.00    +0.000 HD
BRANCH  20  23
ATOM     23  C   UNL     1      48.365   8.877  15.997  0.00  0.00    +0.000 A 
ATOM     24  C   UNL     1      48.287   9.990  16.823  0.00  0.00    +0.000 A 
ATOM     25  S   UNL     1      48.596   9.640  18.465  0.00  0.00    +0.000 S 
ATOM     26  C   UNL     1      48.890   8.001  18.117  0.00  0.00    +0.000 A 
ATOM     27  N   UNL     1      49.265   7.129  19.093  0.00  0.00    +0.000 NA
ATOM     28  C   UNL     1      49.495   5.929  18.675  0.00  0.00    +0.000 A 
ATOM     29  N   UNL     1      49.367   5.516  17.376  0.00  0.00    +0.000 N 
ATOM     30  C   UNL     1      48.925   6.342  16.370  0.00  0.00    +0.000 A 
ATOM     31  O   UNL     1      48.701   5.913  15.243  0.00  0.00    +0.000 OA
ATOM     32  C   UNL     1      48.709   7.715  16.776  0.00  0.00    +0.000 A 
ATOM     33  H   UNL     1      49.529   4.552  17.117  0.00  0.00    +0.000 HD
ENDBRANCH  20  23
ENDBRANCH   1  19
BRANCH   1  35
ATOM     34  C   UNL     1      45.895  10.852  11.309  0.00  0.00    +0.000 C 
ATOM     35  C   UNL     1      45.467   9.950  12.457  0.00  0.00    +0.000 C 
ENDBRANCH   1  35
TORSDOF 7
ENDMDL
MODEL 2
REMARK VINA RESULT:    -7.788      2.497      4.086
REMARK INTER + INTRA:         -12.075
REMARK INTER:                 -10.732
REMARK INTRA:                  -1.342
REMARK UNBOUND:                -1.100
REMARK  Name = 
REMARK  8 active torsions:
REMARK  status: ('A' for Active; 'I' for Inactive)
REMARK    1  A    between atoms: C_1  and  C_2
REMARK    2  A    between atoms: C_2  and  C_3
REMARK    3  A    between atoms: C_3  and  N_4
REMARK    4  A    between atoms: C_3  and  C_17
REMARK    5  A    between atoms: C_5  and  C_7
REMARK    6  A    between atoms: C_20  and  C_21
REMARK    7  A    between atoms: C_21  and  N_22
REMARK    8  A    between atoms: C_23  and  C_25
REMARK                            x       y       z     vdW  Elec       q    Type
REMARK                         _______ _______ _______ _____ _____    ______ ____
ROOT
ATOM      1  C   UNL     1      47.129   5.122  15.153  0.00  0.00    +0.000 C 
ENDROOT
BRANCH   1   2
ATOM      2  C   UNL     1      46.256   4.809  13.931  0.00  0.00    +0.000 A 
ATOM      3  C   UNL     1      45.571   5.830  13.267  0.00  0.00    +0.000 A 
ATOM      4  C   UNL     1      44.781   5.521  12.159  0.00  0.00    +0.000 A 
ATOM      5  C   UNL     1      44.680   4.199  11.727  0.00  0.00    +0.000 A 
ATOM      6  C   UNL     1      45.378   3.243  12.457  0.00  0.00    +0.000 A 
ATOM      7  N   UNL     1      46.156   3.515  13.536  0.00  0.00    +0.000 NA
BRANCH   5   8
ATOM      8  C   UNL     1      43.858   3.822  10.530  0.00  0.00    +0.000 C 
BRANCH   8   9
ATOM      9  N   UNL     1      44.626   3.150   9.512  0.00  0.00    +0.000 N 
ATOM     10  C   UNL     1      45.460   3.851   8.664  0.00  0.00    +0.000 C 
ATOM     11  O   UNL     1      45.603   5.068   8.714  0.00  0.00    +0.000 OA
ATOM     12  H   UNL     1      44.608   2.138   9.413  0.00  0.00    +0.000 HD
BRANCH  10  13
ATOM     13  C   UNL     1      46.195   3.018   7.657  0.00  0.00    +0.000 A 
ATOM     14  C   UNL     1      46.514   3.559   6.415  0.00  0.00    +0.000 A 
ATOM     15  C   UNL     1      47.181   2.755   5.496  0.00  0.00    +0.000 A 
ATOM     16  C   UNL     1      47.502   1.447   5.845  0.00  0.00    +0.000 A 
ATOM     17  C   UNL     1      47.147   0.993   7.107  0.00  0.00    +0.000 A 
ATOM     18  N   UNL     1      46.503   1.743   8.030  0.00  0.00    +0.000 NA
ENDBRANCH  10  13
ENDBRANCH   8   9
ENDBRANCH   5   8
ENDBRANCH   1   2
BRANCH   1  19
ATOM     19  N   UNL     1      48.327   5.840  14.711  0.00  0.00    +0.000 N 
ATOM     20  C   UNL     1      48.945   6.817  15.450  0.00  0.00    +0.000 C 
ATOM     21  O   UNL     1      48.610   7.115  16.591  0.00  0.00    +0.000 OA
ATOM     22  H   UNL     1      48.441   5.888  13.702  0.00  0.00    +0.000 HD
BRANCH  20  23
ATOM     23  C   UNL     1      50.107   7.453  14.816  0.00  0.00    +0.000 A 
ATOM     24  C   UNL     1      51.333   7.470  15.466  0.00  0.00    +0.000 A 
ATOM     25  S   UNL     1      52.561   8.258  14.579  0.00  0.00    +0.000 S 
ATOM     26  C   UNL     1      51.480   8.643  13.321  0.00  0.00    +0.000 A 
ATOM     27  N   UNL     1      51.883   9.373  12.246  0.00  0.00    +0.000 NA
ATOM     28  C   UNL     1      50.946   9.624  11.392  0.00  0.00    +0.000 A 
ATOM     29  N   UNL     1      49.651   9.194  11.505  0.00  0.00    +0.000 N 
ATOM     30  C   UNL     1      49.216   8.397  12.537  0.00  0.00    +0.000 A 
ATOM     31  O   UNL     1      48.084   7.926  12.547  0.00  0.00    +0.000 OA
ATOM     32  C   UNL     1      50.215   8.136  13.553  0.00  0.00    +0.000 A 
ATOM     33  H   UNL     1      48.971   9.395  10.785  0.00  0.00    +0.000 HD
ENDBRANCH  20  23
ENDBRANCH   1  19
BRANCH   1  35
ATOM     34  C   UNL     1      47.231   3.933  17.430  0.00  0.00    +0.000 C 
ATOM     35  C   UNL     1      47.494   3.841  15.935  0.00  0.00    +0.000 C 
ENDBRANCH   1  35
TORSDOF 7
ENDMDL
MODEL 3
REMARK VINA RESULT:    -7.771      1.898      2.775
REMARK INTER + INTRA:         -12.050
REMARK INTER:                 -10.693
REMARK INTRA:                  -1.357
REMARK UNBOUND:                -1.100
REMARK  Name = 
REMARK  8 active torsions:
REMARK  status: ('A' for Active; 'I' for Inactive)
REMARK    1  A    between atoms: C_1  and  C_2
REMARK    2  A    between atoms: C_2  and  C_3
REMARK    3  A    between atoms: C_3  and  N_4
REMARK    4  A    between atoms: C_3  and  C_17
REMARK    5  A    between atoms: C_5  and  C_7
REMARK    6  A    between atoms: C_20  and  C_21
REMARK    7  A    between atoms: C_21  and  N_22
REMARK    8  A    between atoms: C_23  and  C_25
REMARK                            x       y       z     vdW  Elec       q    Type
REMARK                         _______ _______ _______ _____ _____    ______ ____
ROOT
ATOM      1  C   UNL     1      48.185   7.939  14.189  0.00  0.00    +0.000 C 
ENDROOT
BRANCH   1   2
ATOM      2  C   UNL     1      47.161   7.317  13.230  0.00  0.00    +0.000 A 
ATOM      3  C   UNL     1      46.158   8.102  12.657  0.00  0.00    +0.000 A 
ATOM      4  C   UNL     1      45.237   7.515  11.789  0.00  0.00    +0.000 A 
ATOM      5  C   UNL     1      45.323   6.152  11.506  0.00  0.00    +0.000 A 
ATOM      6  C   UNL     1      46.339   5.441  12.135  0.00  0.00    +0.000 A 
ATOM      7  N   UNL     1      47.251   5.987  12.980  0.00  0.00    +0.000 NA
BRANCH   5   8
ATOM      8  C   UNL     1      44.367   5.481  10.565  0.00  0.00    +0.000 C 
BRANCH   8   9
ATOM      9  N   UNL     1      45.032   4.753   9.514  0.00  0.00    +0.000 N 
ATOM     10  C   UNL     1      45.030   3.372   9.486  0.00  0.00    +0.000 C 
ATOM     11  O   UNL     1      44.475   2.682  10.334  0.00  0.00    +0.000 OA
ATOM     12  H   UNL     1      45.489   5.231   8.741  0.00  0.00    +0.000 HD
BRANCH  10  13
ATOM     13  C   UNL     1      45.763   2.754   8.332  0.00  0.00    +0.000 A 
ATOM     14  C   UNL     1      46.033   3.517   7.200  0.00  0.00    +0.000 A 
ATOM     15  C   UNL     1      46.699   2.910   6.138  0.00  0.00    +0.000 A 
ATOM     16  C   UNL     1      47.066   1.573   6.243  0.00  0.00    +0.000 A 
ATOM     17  C   UNL     1      46.758   0.891   7.412  0.00  0.00    +0.000 A 
ATOM     18  N   UNL     1      46.117   1.445   8.466  0.00  0.00    +0.000 NA
ENDBRANCH  10  13
ENDBRANCH   8   9
ENDBRANCH   5   8
ENDBRANCH   1   2
BRANCH   1  19
ATOM     19  N   UNL     1      48.111   7.247  15.478  0.00  0.00    +0.000 N 
ATOM     20  C   UNL     1      49.155   6.545  16.026  0.00  0.00    +0.000 C 
ATOM     21  O   UNL     1      50.278   6.510  15.534  0.00  0.00    +0.000 OA
ATOM     22  H   UNL     1      47.175   6.961  15.750  0.00  0.00    +0.000 HD
BRANCH  20  23
ATOM     23  C   UNL     1      48.873   5.881  17.304  0.00  0.00    +0.000 A 
ATOM     24  C   UNL     1      49.015   4.505  17.422  0.00  0.00    +0.000 A 
ATOM     25  S   UNL     1      48.637   3.913  18.978  0.00  0.00    +0.000 S 
ATOM     26  C   UNL     1      48.225   5.470  19.529  0.00  0.00    +0.000 A 
ATOM     27  N   UNL     1      47.759   5.670  20.792  0.00  0.00    +0.000 NA
ATOM     28  C   UNL     1      47.448   6.895  21.057  0.00  0.00    +0.000 A 
ATOM     29  N   UNL     1      47.578   7.941  20.182  0.00  0.00    +0.000 N 
ATOM     30  C   UNL     1      48.109   7.798  18.923  0.00  0.00    +0.000 A 
ATOM     31  O   UNL     1      48.329   8.771  18.208  0.00  0.00    +0.000 OA
ATOM     32  C   UNL     1      48.419   6.433  18.556  0.00  0.00    +0.000 A 
ATOM     33  H   UNL     1      47.349   8.885  20.461  0.00  0.00    +0.000 HD
ENDBRANCH  20  23
ENDBRANCH   1  19
BRANCH   1  35
ATOM     34  C   UNL     1      49.164  10.200  14.924  0.00  0.00    +0.000 C 
ATOM     35  C   UNL     1      47.965   9.459  14.350  0.00  0.00    +0.000 C 
ENDBRANCH   1  35
TORSDOF 7
ENDMDL
MODEL 4
REMARK VINA RESULT:    -7.722      2.355      3.619
REMARK INTER + INTRA:         -11.982
REMARK INTER:                 -10.686
REMARK INTRA:                  -1.296
REMARK UNBOUND:                -1.100
REMARK  Name = 
REMARK  8 active torsions:
REMARK  status: ('A' for Active; 'I' for Inactive)
REMARK    1  A    between atoms: C_1  and  C_2
REMARK    2  A    between atoms: C_2  and  C_3
REMARK    3  A    between atoms: C_3  and  N_4
REMARK    4  A    between atoms: C_3  and  C_17
REMARK    5  A    between atoms: C_5  and  C_7
REMARK    6  A    between atoms: C_20  and  C_21
REMARK    7  A    between atoms: C_21  and  N_22
REMARK    8  A    between atoms: C_23  and  C_25
REMARK                            x       y       z     vdW  Elec       q    Type
REMARK                         _______ _______ _______ _____ _____    ______ ____
ROOT
ATOM      1  C   UNL     1      47.314   4.599  15.789  0.00  0.00    +0.000 C 
ENDROOT
BRANCH   1   2
ATOM      2  C   UNL     1      46.701   4.853  14.405  0.00  0.00    +0.000 A 
ATOM      3  C   UNL     1      47.153   5.910  13.611  0.00  0.00    +0.000 A 
ATOM      4  C   UNL     1      46.580   6.122  12.357  0.00  0.00    +0.000 A 
ATOM      5  C   UNL     1      45.560   5.282  11.910  0.00  0.00    +0.000 A 
ATOM      6  C   UNL     1      45.157   4.268  12.772  0.00  0.00    +0.000 A 
ATOM      7  N   UNL     1      45.699   4.036  13.995  0.00  0.00    +0.000 NA
BRANCH   5   8
ATOM      8  C   UNL     1      44.926   5.460  10.562  0.00  0.00    +0.000 C 
BRANCH   8   9
ATOM      9  N   UNL     1      45.597   4.717   9.525  0.00  0.00    +0.000 N 
ATOM     10  C   UNL     1      45.136   3.481   9.118  0.00  0.00    +0.000 C 
ATOM     11  O   UNL     1      44.147   2.938   9.597  0.00  0.00    +0.000 OA
ATOM     12  H   UNL     1      46.404   5.096   9.035  0.00  0.00    +0.000 HD
BRANCH  10  13
ATOM     13  C   UNL     1      45.936   2.828   8.029  0.00  0.00    +0.000 A 
ATOM     14  C   UNL     1      46.242   3.543   6.875  0.00  0.00    +0.000 A 
ATOM     15  C   UNL     1      46.970   2.904   5.876  0.00  0.00    +0.000 A 
ATOM     16  C   UNL     1      47.361   1.582   6.061  0.00  0.00    +0.000 A 
ATOM     17  C   UNL     1      47.014   0.948   7.245  0.00  0.00    +0.000 A 
ATOM     18  N   UNL     1      46.312   1.535   8.241  0.00  0.00    +0.000 NA
ENDBRANCH  10  13
ENDBRANCH   8   9
ENDBRANCH   5   8
ENDBRANCH   1   2
BRANCH   1  19
ATOM     19  N   UNL     1      48.349   5.603  16.042  0.00  0.00    +0.000 N 
ATOM     20  C   UNL     1      48.448   6.318  17.210  0.00  0.00    +0.000 C 
ATOM     21  O   UNL     1      47.737   6.115  18.188  0.00  0.00    +0.000 OA
ATOM     22  H   UNL     1      48.727   6.040  15.206  0.00  0.00    +0.000 HD
BRANCH  20  23
ATOM     23  C   UNL     1      49.526   7.313  17.257  0.00  0.00    +0.000 A 
ATOM     24  C   UNL     1      49.227   8.659  17.419  0.00  0.00    +0.000 A 
ATOM     25  S   UNL     1      50.606   9.664  17.445  0.00  0.00    +0.000 S 
ATOM     26  C   UNL     1      51.644   8.338  17.191  0.00  0.00    +0.000 A 
ATOM     27  N   UNL     1      52.987   8.510  17.060  0.00  0.00    +0.000 NA
ATOM     28  C   UNL     1      53.643   7.421  16.830  0.00  0.00    +0.000 A 
ATOM     29  N   UNL     1      53.082   6.175  16.739  0.00  0.00    +0.000 N 
ATOM     30  C   UNL     1      51.741   5.945  16.934  0.00  0.00    +0.000 A 
ATOM     31  O   UNL     1      51.287   4.806  16.970  0.00  0.00    +0.000 OA
ATOM     32  C   UNL     1      50.952   7.142  17.136  0.00  0.00    +0.000 A 
ATOM     33  H   UNL     1      53.654   5.356  16.591  0.00  0.00    +0.000 HD
ENDBRANCH  20  23
ENDBRANCH   1  19
BRANCH   1  35
ATOM     34  C   UNL     1      48.376   2.811  17.301  0.00  0.00    +0.000 C 
ATOM     35  C   UNL     1      47.876   3.165  15.909  0.00  0.00    +0.000 C 
ENDBRANCH   1  35
TORSDOF 7
ENDMDL
MODEL 5
REMARK VINA RESULT:    -7.698      1.977      2.707
REMARK INTER + INTRA:         -11.948
REMARK INTER:                 -10.516
REMARK INTRA:                  -1.432
REMARK UNBOUND:                -1.100
REMARK  Name = 
REMARK  8 active torsions:
REMARK  status: ('A' for Active; 'I' for Inactive)
REMARK    1  A    between atoms: C_1  and  C_2
REMARK    2  A    between atoms: C_2  and  C_3
REMARK    3  A    between atoms: C_3  and  N_4
REMARK    4  A    between atoms: C_3  and  C_17
REMARK    5  A    between atoms: C_5  and  C_7
REMARK    6  A    between atoms: C_20  and  C_21
REMARK    7  A    between atoms: C_21  and  N_22
REMARK    8  A    between atoms: C_23  and  C_25
REMARK                            x       y       z     vdW  Elec       q    Type
REMARK                         _______ _______ _______ _____ _____    ______ ____
ROOT
ATOM      1  C   UNL     1      48.354   8.444  14.033  0.00  0.00    +0.000 C 
ENDROOT
BRANCH   1   2
ATOM      2  C   UNL     1      47.328   7.801  13.092  0.00  0.00    +0.000 A 
ATOM      3  C   UNL     1      46.066   8.376  12.917  0.00  0.00    +0.000 A 
ATOM      4  C   UNL     1      45.149   7.772  12.057  0.00  0.00    +0.000 A 
ATOM      5  C   UNL     1      45.496   6.601  11.385  0.00  0.00    +0.000 A 
ATOM      6  C   UNL     1      46.764   6.085  11.631  0.00  0.00    +0.000 A 
ATOM      7  N   UNL     1      47.677   6.653  12.459  0.00  0.00    +0.000 NA
BRANCH   5   8
ATOM      8  C   UNL     1      44.549   5.926  10.436  0.00  0.00    +0.000 C 
BRANCH   8   9
ATOM      9  N   UNL     1      45.223   5.113   9.455  0.00  0.00    +0.000 N 
ATOM     10  C   UNL     1      44.904   3.780   9.289  0.00  0.00    +0.000 C 
ATOM     11  O   UNL     1      44.044   3.205   9.948  0.00  0.00    +0.000 OA
ATOM     12  H   UNL     1      45.924   5.504   8.830  0.00  0.00    +0.000 HD
BRANCH  10  13
ATOM     13  C   UNL     1      45.688   3.062   8.229  0.00  0.00    +0.000 A 
ATOM     14  C   UNL     1      46.045   1.731   8.420  0.00  0.00    +0.000 A 
ATOM     15  C   UNL     1      46.787   1.098   7.426  0.00  0.00    +0.000 A 
ATOM     16  C   UNL     1      47.146   1.812   6.289  0.00  0.00    +0.000 A 
ATOM     17  C   UNL     1      46.744   3.136   6.183  0.00  0.00    +0.000 A 
ATOM     18  N   UNL     1      46.019   3.785   7.122  0.00  0.00    +0.000 NA
ENDBRANCH  10  13
ENDBRANCH   8   9
ENDBRANCH   5   8
ENDBRANCH   1   2
BRANCH   1  19
ATOM     19  N   UNL     1      48.483   7.617  15.235  0.00  0.00    +0.000 N 
ATOM     20  C   UNL     1      49.657   7.027  15.631  0.00  0.00    +0.000 C 
ATOM     21  O   UNL     1      50.730   7.215  15.069  0.00  0.00    +0.000 OA
ATOM     22  H   UNL     1      47.622   7.165  15.529  0.00  0.00    +0.000 HD
BRANCH  20  23
ATOM     23  C   UNL     1      49.575   6.196  16.838  0.00  0.00    +0.000 A 
ATOM     24  C   UNL     1      50.348   6.502  17.950  0.00  0.00    +0.000 A 
ATOM     25  S   UNL     1      50.122   5.422  19.253  0.00  0.00    +0.000 S 
ATOM     26  C   UNL     1      49.021   4.484  18.355  0.00  0.00    +0.000 A 
ATOM     27  N   UNL     1      48.473   3.352  18.875  0.00  0.00    +0.000 NA
ATOM     28  C   UNL     1      47.688   2.721  18.066  0.00  0.00    +0.000 A 
ATOM     29  N   UNL     1      47.387   3.128  16.793  0.00  0.00    +0.000 N 
ATOM     30  C   UNL     1      47.861   4.299  16.253  0.00  0.00    +0.000 A 
ATOM     31  O   UNL     1      47.476   4.699  15.159  0.00  0.00    +0.000 OA
ATOM     32  C   UNL     1      48.793   5.014  17.099  0.00  0.00    +0.000 A 
ATOM     33  H   UNL     1      46.737   2.607  16.220  0.00  0.00    +0.000 HD
ENDBRANCH  20  23
ENDBRANCH   1  19
BRANCH   1  35
ATOM     34  C   UNL     1      49.148  10.764  14.808  0.00  0.00    +0.000 C 
ATOM     35  C   UNL     1      47.970   9.898  14.387  0.00  0.00    +0.000 C 
ENDBRANCH   1  35
TORSDOF 7
ENDMDL
MODEL 6
REMARK VINA RESULT:    -7.561      3.967      8.709
REMARK INTER + INTRA:         -11.755
REMARK INTER:                 -10.578
REMARK INTRA:                  -1.177
REMARK UNBOUND:                -1.100
REMARK  Name = 
REMARK  8 active torsions:
REMARK  status: ('A' for Active; 'I' for Inactive)
REMARK    1  A    between atoms: C_1  and  C_2
REMARK    2  A    between atoms: C_2  and  C_3
REMARK    3  A    between atoms: C_3  and  N_4
REMARK    4  A    between atoms: C_3  and  C_17
REMARK    5  A    between atoms: C_5  and  C_7
REMARK    6  A    between atoms: C_20  and  C_21
REMARK    7  A    between atoms: C_21  and  N_22
REMARK    8  A    between atoms: C_23  and  C_25
REMARK                            x       y       z     vdW  Elec       q    Type
REMARK                         _______ _______ _______ _____ _____    ______ ____
ROOT
ATOM      1  C   UNL     1      47.988   7.045  13.452  0.00  0.00    +0.000 C 
ENDROOT
BRANCH   1   2
ATOM      2  C   UNL     1      48.301   6.277  14.743  0.00  0.00    +0.000 A 
ATOM      3  C   UNL     1      49.284   6.738  15.622  0.00  0.00    +0.000 A 
ATOM      4  C   UNL     1      49.552   6.023  16.789  0.00  0.00    +0.000 A 
ATOM      5  C   UNL     1      48.842   4.855  17.065  0.00  0.00    +0.000 A 
ATOM      6  C   UNL     1      47.895   4.457  16.128  0.00  0.00    +0.000 A 
ATOM      7  N   UNL     1      47.611   5.135  14.986  0.00  0.00    +0.000 NA
BRANCH   5   8
ATOM      8  C   UNL     1      49.083   4.063  18.317  0.00  0.00    +0.000 C 
BRANCH   8   9
ATOM      9  N   UNL     1      50.418   3.525  18.391  0.00  0.00    +0.000 N 
ATOM     10  C   UNL     1      50.817   2.484  17.575  0.00  0.00    +0.000 C 
ATOM     11  O   UNL     1      50.081   1.954  16.749  0.00  0.00    +0.000 OA
ATOM     12  H   UNL     1      51.118   3.920  19.014  0.00  0.00    +0.000 HD
BRANCH  10  13
ATOM     13  C   UNL     1      52.235   2.031  17.765  0.00  0.00    +0.000 A 
ATOM     14  C   UNL     1      52.606   0.747  17.375  0.00  0.00    +0.000 A 
ATOM     15  C   UNL     1      53.924   0.350  17.579  0.00  0.00    +0.000 A 
ATOM     16  C   UNL     1      54.818   1.241  18.164  0.00  0.00    +0.000 A 
ATOM     17  C   UNL     1      54.360   2.502  18.519  0.00  0.00    +0.000 A 
ATOM     18  N   UNL     1      53.090   2.927  18.333  0.00  0.00    +0.000 NA
ENDBRANCH  10  13
ENDBRANCH   8   9
ENDBRANCH   5   8
ENDBRANCH   1   2
BRANCH   1  19
ATOM     19  N   UNL     1      47.310   6.145  12.516  0.00  0.00    +0.000 N 
ATOM     20  C   UNL     1      46.216   6.505  11.770  0.00  0.00    +0.000 C 
ATOM     21  O   UNL     1      45.760   7.643  11.745  0.00  0.00    +0.000 OA
ATOM     22  H   UNL     1      47.411   5.158  12.733  0.00  0.00    +0.000 HD
BRANCH  20  23
ATOM     23  C   UNL     1      45.649   5.449  10.923  0.00  0.00    +0.000 A 
ATOM     24  C   UNL     1      45.763   5.525   9.541  0.00  0.00    +0.000 A 
ATOM     25  S   UNL     1      45.038   4.212   8.726  0.00  0.00    +0.000 S 
ATOM     26  C   UNL     1      44.507   3.526  10.190  0.00  0.00    +0.000 A 
ATOM     27  N   UNL     1      43.762   2.387  10.205  0.00  0.00    +0.000 NA
ATOM     28  C   UNL     1      43.395   2.007  11.383  0.00  0.00    +0.000 A 
ATOM     29  N   UNL     1      43.721   2.648  12.549  0.00  0.00    +0.000 N 
ATOM     30  C   UNL     1      44.528   3.760  12.587  0.00  0.00    +0.000 A 
ATOM     31  O   UNL     1      44.904   4.240  13.652  0.00  0.00    +0.000 OA
ATOM     32  C   UNL     1      44.918   4.262  11.286  0.00  0.00    +0.000 A 
ATOM     33  H   UNL     1      43.431   2.281  13.445  0.00  0.00    +0.000 HD
ENDBRANCH  20  23
ENDBRANCH   1  19
BRANCH   1  35
ATOM     34  C   UNL     1      49.015   8.930  12.037  0.00  0.00    +0.000 C 
ATOM     35  C   UNL     1      49.263   7.654  12.827  0.00  0.00    +0.000 C 
ENDBRANCH   1  35
TORSDOF 7
ENDMDL
MODEL 7
REMARK VINA RESULT:    -6.339      3.563      8.011
REMARK INTER + INTRA:         -10.033
REMARK INTER:                  -8.519
REMARK INTRA:                  -1.514
REMARK UNBOUND:                -1.100
REMARK  Name = 
REMARK  8 active torsions:
REMARK  status: ('A' for Active; 'I' for Inactive)
REMARK    1  A    between atoms: C_1  and  C_2
REMARK    2  A    between atoms: C_2  and  C_3
REMARK    3  A    between atoms: C_3  and  N_4
REMARK    4  A    between atoms: C_3  and  C_17
REMARK    5  A    between atoms: C_5  and  C_7
REMARK    6  A    between atoms: C_20  and  C_21
REMARK    7  A    between atoms: C_21  and  N_22
REMARK    8  A    between atoms: C_23  and  C_25
REMARK                            x       y       z     vdW  Elec       q    Type
REMARK                         _______ _______ _______ _____ _____    ______ ____
ROOT
ATOM      1  C   UNL     1      48.432   8.987  12.652  0.00  0.00    +0.000 C 
ENDROOT
BRANCH   1   2
ATOM      2  C   UNL     1      49.017   8.593  14.014  0.00  0.00    +0.000 A 
ATOM      3  C   UNL     1      48.616   9.254  15.178  0.00  0.00    +0.000 A 
ATOM      4  C   UNL     1      49.162   8.879  16.405  0.00  0.00    +0.000 A 
ATOM      5  C   UNL     1      50.105   7.853  16.460  0.00  0.00    +0.000 A 
ATOM      6  C   UNL     1      50.462   7.262  15.253  0.00  0.00    +0.000 A 
ATOM      7  N   UNL     1      49.944   7.603  14.046  0.00  0.00    +0.000 NA
BRANCH   5   8
ATOM      8  C   UNL     1      50.706   7.403  17.758  0.00  0.00    +0.000 C 
BRANCH   8   9
ATOM      9  N   UNL     1      51.246   6.068  17.694  0.00  0.00    +0.000 N 
ATOM     10  C   UNL     1      50.455   4.964  17.944  0.00  0.00    +0.000 C 
ATOM     11  O   UNL     1      49.265   5.037  18.232  0.00  0.00    +0.000 OA
ATOM     12  H   UNL     1      52.211   5.896  17.424  0.00  0.00    +0.000 HD
BRANCH  10  13
ATOM     13  C   UNL     1      51.154   3.640  17.838  0.00  0.00    +0.000 A 
ATOM     14  C   UNL     1      50.448   2.521  17.406  0.00  0.00    +0.000 A 
ATOM     15  C   UNL     1      51.120   1.304  17.335  0.00  0.00    +0.000 A 
ATOM     16  C   UNL     1      52.461   1.247  17.699  0.00  0.00    +0.000 A 
ATOM     17  C   UNL     1      53.085   2.414  18.115  0.00  0.00    +0.000 A 
ATOM     18  N   UNL     1      52.470   3.616  18.194  0.00  0.00    +0.000 NA
ENDBRANCH  10  13
ENDBRANCH   8   9
ENDBRANCH   5   8
ENDBRANCH   1   2
BRANCH   1  19
ATOM     19  N   UNL     1      47.443   7.984  12.250  0.00  0.00    +0.000 N 
ATOM     20  C   UNL     1      46.128   8.011  12.643  0.00  0.00    +0.000 C 
ATOM     21  O   UNL     1      45.635   8.929  13.289  0.00  0.00    +0.000 OA
ATOM     22  H   UNL     1      47.834   7.075  12.023  0.00  0.00    +0.000 HD
BRANCH  20  23
ATOM     23  C   UNL     1      45.303   6.892  12.174  0.00  0.00    +0.000 A 
ATOM     24  C   UNL     1      44.146   7.135  11.446  0.00  0.00    +0.000 A 
ATOM     25  S   UNL     1      43.316   5.713  10.995  0.00  0.00    +0.000 S 
ATOM     26  C   UNL     1      44.450   4.730  11.799  0.00  0.00    +0.000 A 
ATOM     27  N   UNL     1      44.301   3.379  11.848  0.00  0.00    +0.000 NA
ATOM     28  C   UNL     1      45.214   2.767  12.527  0.00  0.00    +0.000 A 
ATOM     29  N   UNL     1      46.271   3.381  13.145  0.00  0.00    +0.000 N 
ATOM     30  C   UNL     1      46.499   4.734  13.064  0.00  0.00    +0.000 A 
ATOM     31  O   UNL     1      47.520   5.238  13.522  0.00  0.00    +0.000 OA
ATOM     32  C   UNL     1      45.471   5.473  12.362  0.00  0.00    +0.000 A 
ATOM     33  H   UNL     1      46.972   2.842  13.634  0.00  0.00    +0.000 HD
ENDBRANCH  20  23
ENDBRANCH   1  19
BRANCH   1  35
ATOM     34  C   UNL     1      49.982  10.591  11.373  0.00  0.00    +0.000 C 
ATOM     35  C   UNL     1      49.536   9.152  11.584  0.00  0.00    +0.000 C 
ENDBRANCH   1  35
TORSDOF 7
ENDMDL
MODEL 8
REMARK VINA RESULT:    -5.992      4.003      8.445
REMARK INTER + INTRA:          -9.544
REMARK INTER:                  -8.188
REMARK INTRA:                  -1.356
REMARK UNBOUND:                -1.100
REMARK  Name = 
REMARK  8 active torsions:
REMARK  status: ('A' for Active; 'I' for Inactive)
REMARK    1  A    between atoms: C_1  and  C_2
REMARK    2  A    between atoms: C_2  and  C_3
REMARK    3  A    between atoms: C_3  and  N_4
REMARK    4  A    between atoms: C_3  and  C_17
REMARK    5  A    between atoms: C_5  and  C_7
REMARK    6  A    between atoms: C_20  and  C_21
REMARK    7  A    between atoms: C_21  and  N_22
REMARK    8  A    between atoms: C_23  and  C_25
REMARK                            x       y       z     vdW  Elec       q    Type
REMARK                         _______ _______ _______ _____ _____    ______ ____
ROOT
ATOM      1  C   UNL     1      47.746   4.556  15.949  0.00  0.00    +0.000 C 
ENDROOT
BRANCH   1   2
ATOM      2  C   UNL     1      48.470   5.907  15.884  0.00  0.00    +0.000 A 
ATOM      3  C   UNL     1      48.616   6.691  17.030  0.00  0.00    +0.000 A 
ATOM      4  C   UNL     1      49.277   7.917  16.946  0.00  0.00    +0.000 A 
ATOM      5  C   UNL     1      49.782   8.349  15.720  0.00  0.00    +0.000 A 
ATOM      6  C   UNL     1      49.576   7.516  14.625  0.00  0.00    +0.000 A 
ATOM      7  N   UNL     1      48.940   6.318  14.679  0.00  0.00    +0.000 NA
BRANCH   5   8
ATOM      8  C   UNL     1      50.516   9.650  15.584  0.00  0.00    +0.000 C 
BRANCH   8   9
ATOM      9  N   UNL     1      50.948   9.912  14.234  0.00  0.00    +0.000 N 
ATOM     10  C   UNL     1      50.248  10.775  13.413  0.00  0.00    +0.000 C 
ATOM     11  O   UNL     1      49.232  11.365  13.765  0.00  0.00    +0.000 OA
ATOM     12  H   UNL     1      51.800   9.504  13.859  0.00  0.00    +0.000 HD
BRANCH  10  13
ATOM     13  C   UNL     1      50.817  10.949  12.036  0.00  0.00    +0.000 A 
ATOM     14  C   UNL     1      49.994  11.380  11.000  0.00  0.00    +0.000 A 
ATOM     15  C   UNL     1      50.548  11.516   9.730  0.00  0.00    +0.000 A 
ATOM     16  C   UNL     1      51.892  11.216   9.540  0.00  0.00    +0.000 A 
ATOM     17  C   UNL     1      52.638  10.795  10.632  0.00  0.00    +0.000 A 
ATOM     18  N   UNL     1      52.139  10.655  11.882  0.00  0.00    +0.000 NA
ENDBRANCH  10  13
ENDBRANCH   8   9
ENDBRANCH   5   8
ENDBRANCH   1   2
BRANCH   1  19
ATOM     19  N   UNL     1      46.623   4.572  15.009  0.00  0.00    +0.000 N 
ATOM     20  C   UNL     1      46.679   4.034  13.748  0.00  0.00    +0.000 C 
ATOM     21  O   UNL     1      47.642   3.405  13.323  0.00  0.00    +0.000 OA
ATOM     22  H   UNL     1      45.963   5.329  15.154  0.00  0.00    +0.000 HD
BRANCH  20  23
ATOM     23  C   UNL     1      45.466   4.189  12.936  0.00  0.00    +0.000 A 
ATOM     24  C   UNL     1      44.749   3.071  12.531  0.00  0.00    +0.000 A 
ATOM     25  S   UNL     1      43.375   3.449  11.592  0.00  0.00    +0.000 S 
ATOM     26  C   UNL     1      43.720   5.114  11.657  0.00  0.00    +0.000 A 
ATOM     27  N   UNL     1      42.946   6.020  11.001  0.00  0.00    +0.000 NA
ATOM     28  C   UNL     1      43.352   7.242  11.105  0.00  0.00    +0.000 A 
ATOM     29  N   UNL     1      44.449   7.642  11.820  0.00  0.00    +0.000 N 
ATOM     30  C   UNL     1      45.219   6.772  12.555  0.00  0.00    +0.000 A 
ATOM     31  O   UNL     1      46.120   7.175  13.284  0.00  0.00    +0.000 OA
ATOM     32  C   UNL     1      44.840   5.381  12.423  0.00  0.00    +0.000 A 
ATOM     33  H   UNL     1      44.697   8.620  11.891  0.00  0.00    +0.000 HD
ENDBRANCH  20  23
ENDBRANCH   1  19
BRANCH   1  35
ATOM     34  C   UNL     1      48.177   3.252  18.123  0.00  0.00    +0.000 C 
ATOM     35  C   UNL     1      47.276   4.231  17.385  0.00  0.00    +0.000 C 
ENDBRANCH   1  35
TORSDOF 7
ENDMDL
MODEL 9
REMARK VINA RESULT:    -5.912      4.219      9.499
REMARK INTER + INTRA:          -9.431
REMARK INTER:                  -8.437
REMARK INTRA:                  -0.994
REMARK UNBOUND:                -1.100
REMARK  Name = 
REMARK  8 active torsions:
REMARK  status: ('A' for Active; 'I' for Inactive)
REMARK    1  A    between atoms: C_1  and  C_2
REMARK    2  A    between atoms: C_2  and  C_3
REMARK    3  A    between atoms: C_3  and  N_4
REMARK    4  A    between atoms: C_3  and  C_17
REMARK    5  A    between atoms: C_5  and  C_7
REMARK    6  A    between atoms: C_20  and  C_21
REMARK    7  A    between atoms: C_21  and  N_22
REMARK    8  A    between atoms: C_23  and  C_25
REMARK                            x       y       z     vdW  Elec       q    Type
REMARK                         _______ _______ _______ _____ _____    ______ ____
ROOT
ATOM      1  C   UNL     1      47.760   3.973  16.743  0.00  0.00    +0.000 C 
ENDROOT
BRANCH   1   2
ATOM      2  C   UNL     1      49.223   4.390  16.944  0.00  0.00    +0.000 A 
ATOM      3  C   UNL     1      50.122   3.539  17.590  0.00  0.00    +0.000 A 
ATOM      4  C   UNL     1      51.447   3.941  17.762  0.00  0.00    +0.000 A 
ATOM      5  C   UNL     1      51.860   5.187  17.294  0.00  0.00    +0.000 A 
ATOM      6  C   UNL     1      50.896   5.980  16.681  0.00  0.00    +0.000 A 
ATOM      7  N   UNL     1      49.602   5.613  16.496  0.00  0.00    +0.000 NA
BRANCH   5   8
ATOM      8  C   UNL     1      53.278   5.654  17.441  0.00  0.00    +0.000 C 
BRANCH   8   9
ATOM      9  N   UNL     1      53.636   6.669  16.481  0.00  0.00    +0.000 N 
ATOM     10  C   UNL     1      53.891   7.968  16.874  0.00  0.00    +0.000 C 
ATOM     11  O   UNL     1      53.832   8.344  18.040  0.00  0.00    +0.000 OA
ATOM     12  H   UNL     1      53.751   6.452  15.494  0.00  0.00    +0.000 HD
BRANCH  10  13
ATOM     13  C   UNL     1      54.252   8.912  15.765  0.00  0.00    +0.000 A 
ATOM     14  C   UNL     1      53.530  10.090  15.601  0.00  0.00    +0.000 A 
ATOM     15  C   UNL     1      53.879  10.938  14.553  0.00  0.00    +0.000 A 
ATOM     16  C   UNL     1      54.925  10.579  13.710  0.00  0.00    +0.000 A 
ATOM     17  C   UNL     1      55.591   9.386  13.951  0.00  0.00    +0.000 A 
ATOM     18  N   UNL     1      55.287   8.538  14.960  0.00  0.00    +0.000 NA
ENDBRANCH  10  13
ENDBRANCH   8   9
ENDBRANCH   5   8
ENDBRANCH   1   2
BRANCH   1  19
ATOM     19  N   UNL     1      47.165   4.812  15.701  0.00  0.00    +0.000 N 
ATOM     20  C   UNL     1      47.001   4.409  14.399  0.00  0.00    +0.000 C 
ATOM     21  O   UNL     1      47.251   3.274  14.007  0.00  0.00    +0.000 OA
ATOM     22  H   UNL     1      47.253   5.811  15.862  0.00  0.00    +0.000 HD
BRANCH  20  23
ATOM     23  C   UNL     1      46.428   5.409  13.491  0.00  0.00    +0.000 A 
ATOM     24  C   UNL     1      47.105   6.594  13.241  0.00  0.00    +0.000 A 
ATOM     25  S   UNL     1      46.282   7.634  12.166  0.00  0.00    +0.000 S 
ATOM     26  C   UNL     1      44.972   6.554  12.039  0.00  0.00    +0.000 A 
ATOM     27  N   UNL     1      43.875   6.862  11.296  0.00  0.00    +0.000 NA
ATOM     28  C   UNL     1      42.943   5.968  11.326  0.00  0.00    +0.000 A 
ATOM     29  N   UNL     1      43.016   4.786  12.015  0.00  0.00    +0.000 N 
ATOM     30  C   UNL     1      44.131   4.403  12.722  0.00  0.00    +0.000 A 
ATOM     31  O   UNL     1      44.215   3.287  13.225  0.00  0.00    +0.000 OA
ATOM     32  C   UNL     1      45.182   5.398  12.768  0.00  0.00    +0.000 A 
ATOM     33  H   UNL     1      42.266   4.110  11.971  0.00  0.00    +0.000 HD
ENDBRANCH  20  23
ENDBRANCH   1  19
BRANCH   1  35
ATOM     34  C   UNL     1      47.028   5.412  18.745  0.00  0.00    +0.000 C 
ATOM     35  C   UNL     1      46.958   4.055  18.061  0.00  0.00    +0.000 C 
ENDBRANCH   1  35
TORSDOF 7
ENDMDL
