MODEL 1
REMARK VINA RESULT:    -7.462      0.000      0.000
REMARK INTER + INTRA:         -10.966
REMARK INTER:                 -10.079
REMARK INTRA:                  -0.887
REMARK UNBOUND:                -0.887
REMARK  Name = 
REMARK  6 active torsions:
REMARK  status: ('A' for Active; 'I' for Inactive)
REMARK    1  A    between atoms: C_2  and  C_19
REMARK    2  A    between atoms: N_3  and  C_4
REMARK    3  A    between atoms: C_4  and  C_5
REMARK    4  A    between atoms: C_8  and  C_9
REMARK    5  A    between atoms: C_9  and  N_10
REMARK    6  A    between atoms: N_10  and  C_11
REMARK                            x       y       z     vdW  Elec       q    Type
REMARK                         _______ _______ _______ _____ _____    ______ ____
ROOT
ATOM      1  C   UNL     1      48.251   7.397  14.122  0.00  0.00    +0.000 C 
ENDROOT
BRANCH   1   2
ATOM      2  C   UNL     1      47.272   6.425  13.543  0.00  0.00    +0.000 A 
ATOM      3  C   UNL     1      46.588   6.707  12.359  0.00  0.00    +0.000 A 
ATOM      4  C   UNL     1      45.691   5.780  11.840  0.00  0.00    +0.000 A 
ATOM      5  C   UNL     1      45.497   4.579  12.518  0.00  0.00    +0.000 A 
ATOM      6  N   UNL     1      46.177   4.276  13.655  0.00  0.00    +0.000 NA
ATOM      7  C   UNL     1      47.041   5.192  14.136  0.00  0.00    +0.000 A 
BRANCH   5   8
ATOM      8  C   UNL     1      44.531   3.552  11.947  0.00  0.00    +0.000 C 
BRANCH   8   9
ATOM      9  N   UNL     1      45.120   2.755  10.877  0.00  0.00    +0.000 NA
ATOM     10  H   UNL     1      45.388   1.831  11.220  0.00  0.00    +0.000 HD
BRANCH   9  11
ATOM     11  C   UNL     1      44.318   2.622   9.659  0.00  0.00    +0.000 C 
ATOM     12  C   UNL     1      44.851   1.583   8.658  0.00  0.00    +0.000 C 
ATOM     13  C   UNL     1      46.216   1.991   8.106  0.00  0.00    +0.000 C 
ATOM     14  C   UNL     1      46.170   3.402   7.518  0.00  0.00    +0.000 C 
ATOM     15  N   UNL     1      45.659   4.379   8.479  0.00  0.00    +0.000 NA
ATOM     16  C   UNL     1      44.314   4.005   8.956  0.00  0.00    +0.000 C 
ATOM     17  H   UNL     1      45.615   5.300   8.047  0.00  0.00    +0.000 HD
ENDBRANCH   9  11
ENDBRANCH   8   9
ENDBRANCH   5   8
ENDBRANCH   1   2
BRANCH   1  20
ATOM     18  O   UNL     1      50.449   6.547  15.675  0.00  0.00    +0.000 OA
ATOM     19  C   UNL     1      49.424   6.921  16.238  0.00  0.00    +0.000 C 
ATOM     20  N   UNL     1      48.300   7.308  15.557  0.00  0.00    +0.000 N 
ATOM     21  H   UNL     1      47.518   7.703  16.065  0.00  0.00    +0.000 HD
BRANCH  19  22
ATOM     22  C   UNL     1      49.322   6.948  17.699  0.00  0.00    +0.000 A 
ATOM     23  C   UNL     1      49.413   8.151  18.384  0.00  0.00    +0.000 A 
ATOM     24  S   UNL     1      49.266   7.981  20.075  0.00  0.00    +0.000 S 
ATOM     25  C   UNL     1      49.041   6.299  19.943  0.00  0.00    +0.000 A 
ATOM     26  N   UNL     1      48.827   5.530  21.043  0.00  0.00    +0.000 NA
ATOM     27  C   UNL     1      48.627   4.279  20.790  0.00  0.00    +0.000 A 
ATOM     28  N   UNL     1      48.630   3.726  19.538  0.00  0.00    +0.000 N 
ATOM     29  C   UNL     1      48.900   4.451  18.402  0.00  0.00    +0.000 A 
ATOM     30  O   UNL     1      48.997   3.903  17.309  0.00  0.00    +0.000 OA
ATOM     31  C   UNL     1      49.096   5.870  18.629  0.00  0.00    +0.000 A 
ATOM     32  H   UNL     1      48.491   2.734  19.409  0.00  0.00    +0.000 HD
ENDBRANCH  19  22
ENDBRANCH   1  20
TORSDOF 6
ENDMDL
MODEL 2
REMARK VINA RESULT:    -7.358      4.424      9.235
REMARK INTER + INTRA:         -10.826
REMARK INTER:                  -9.956
REMARK INTRA:                  -0.870
REMARK UNBOUND:                -0.887
REMARK  Name = 
REMARK  6 active torsions:
REMARK  status: ('A' for Active; 'I' for Inactive)
REMARK    1  A    between atoms: C_2  and  C_19
REMARK    2  A    between atoms: N_3  and  C_4
REMARK    3  A    between atoms: C_4  and  C_5
REMARK    4  A    between atoms: C_8  and  C_9
REMARK    5  A    between atoms: C_9  and  N_10
REMARK    6  A    between atoms: N_10  and  C_11
REMARK                            x       y       z     vdW  Elec       q    Type
REMARK                         _______ _______ _______ _____ _____    ______ ____
ROOT
ATOM      1  C   UNL     1      47.144   3.388  16.900  0.00  0.00    +0.000 C 
ENDROOT
BRANCH   1   2
ATOM      2  C   UNL     1      48.603   3.363  17.233  0.00  0.00    +0.000 A 
ATOM      3  C   UNL     1      49.384   2.236  16.973  0.00  0.00    +0.000 A 
ATOM      4  C   UNL     1      50.740   2.246  17.285  0.00  0.00    +0.000 A 
ATOM      5  C   UNL     1      51.291   3.391  17.853  0.00  0.00    +0.000 A 
ATOM      6  N   UNL     1      50.550   4.508  18.085  0.00  0.00    +0.000 NA
ATOM      7  C   UNL     1      49.240   4.471  17.772  0.00  0.00    +0.000 A 
BRANCH   5   8
ATOM      8  C   UNL     1      52.776   3.417  18.181  0.00  0.00    +0.000 C 
BRANCH   8   9
ATOM      9  N   UNL     1      53.246   2.169  18.773  0.00  0.00    +0.000 NA
ATOM     10  H   UNL     1      52.639   1.391  18.504  0.00  0.00    +0.000 HD
BRANCH   9  11
ATOM     11  C   UNL     1      54.646   1.823  18.515  0.00  0.00    +0.000 C 
ATOM     12  C   UNL     1      54.925   1.334  17.083  0.00  0.00    +0.000 C 
ATOM     13  C   UNL     1      54.204   0.018  16.794  0.00  0.00    +0.000 C 
ATOM     14  C   UNL     1      54.543  -1.035  17.850  0.00  0.00    +0.000 C 
ATOM     15  N   UNL     1      54.274  -0.557  19.205  0.00  0.00    +0.000 NA
ATOM     16  C   UNL     1      55.025   0.680  19.493  0.00  0.00    +0.000 C 
ATOM     17  H   UNL     1      54.536  -1.270  19.883  0.00  0.00    +0.000 HD
ENDBRANCH   9  11
ENDBRANCH   8   9
ENDBRANCH   5   8
ENDBRANCH   1   2
BRANCH   1  20
ATOM     18  O   UNL     1      47.305   3.085  14.099  0.00  0.00    +0.000 OA
ATOM     19  C   UNL     1      46.909   4.149  14.567  0.00  0.00    +0.000 C 
ATOM     20  N   UNL     1      46.843   4.390  15.913  0.00  0.00    +0.000 N 
ATOM     21  H   UNL     1      46.415   5.245  16.249  0.00  0.00    +0.000 HD
BRANCH  19  22
ATOM     22  C   UNL     1      46.506   5.261  13.702  0.00  0.00    +0.000 A 
ATOM     23  C   UNL     1      47.374   6.319  13.473  0.00  0.00    +0.000 A 
ATOM     24  S   UNL     1      46.729   7.512  12.438  0.00  0.00    +0.000 S 
ATOM     25  C   UNL     1      45.284   6.636  12.235  0.00  0.00    +0.000 A 
ATOM     26  N   UNL     1      44.290   7.096  11.430  0.00  0.00    +0.000 NA
ATOM     27  C   UNL     1      43.272   6.308  11.334  0.00  0.00    +0.000 A 
ATOM     28  N   UNL     1      43.152   5.105  11.978  0.00  0.00    +0.000 N 
ATOM     29  C   UNL     1      44.102   4.627  12.847  0.00  0.00    +0.000 A 
ATOM     30  O   UNL     1      43.914   3.596  13.485  0.00  0.00    +0.000 OA
ATOM     31  C   UNL     1      45.285   5.459  12.962  0.00  0.00    +0.000 A 
ATOM     32  H   UNL     1      42.317   4.546  11.880  0.00  0.00    +0.000 HD
ENDBRANCH  19  22
ENDBRANCH   1  20
TORSDOF 6
ENDMDL
MODEL 3
REMARK VINA RESULT:    -7.305      1.659      2.327
REMARK INTER + INTRA:         -10.755
REMARK INTER:                  -9.842
REMARK INTRA:                  -0.913
REMARK UNBOUND:                -0.887
REMARK  Name = 
REMARK  6 active torsions:
REMARK  status: ('A' for Active; 'I' for Inactive)
REMARK    1  A    between atoms: C_2  and  C_19
REMARK    2  A    between atoms: N_3  and  C_4
REMARK    3  A    between atoms: C_4  and  C_5
REMARK    4  A    between atoms: C_8  and  C_9
REMARK    5  A    between atoms: C_9  and  N_10
REMARK    6  A    between atoms: N_10  and  C_11
REMARK                            x       y       z     vdW  Elec       q    Type
REMARK                         _______ _______ _______ _____ _____    ______ ____
ROOT
ATOM      1  C   UNL     1      48.428   6.844  14.299  0.00  0.00    +0.000 C 
ENDROOT
BRANCH   1   2
ATOM      2  C   UNL     1      47.393   6.076  13.540  0.00  0.00    +0.000 A 
ATOM      3  C   UNL     1      46.907   6.535  12.314  0.00  0.00    +0.000 A 
ATOM      4  C   UNL     1      45.952   5.794  11.626  0.00  0.00    +0.000 A 
ATOM      5  C   UNL     1      45.500   4.599  12.181  0.00  0.00    +0.000 A 
ATOM      6  N   UNL     1      45.985   4.123  13.358  0.00  0.00    +0.000 NA
ATOM      7  C   UNL     1      46.910   4.860  14.003  0.00  0.00    +0.000 A 
BRANCH   5   8
ATOM      8  C   UNL     1      44.468   3.774  11.427  0.00  0.00    +0.000 C 
BRANCH   8   9
ATOM      9  N   UNL     1      45.073   2.773  10.555  0.00  0.00    +0.000 NA
ATOM     10  H   UNL     1      45.154   1.875  11.038  0.00  0.00    +0.000 HD
BRANCH   9  11
ATOM     11  C   UNL     1      44.430   2.582   9.253  0.00  0.00    +0.000 C 
ATOM     12  C   UNL     1      45.117   1.541   8.352  0.00  0.00    +0.000 C 
ATOM     13  C   UNL     1      46.525   1.986   7.960  0.00  0.00    +0.000 C 
ATOM     14  C   UNL     1      46.503   3.381   7.332  0.00  0.00    +0.000 C 
ATOM     15  N   UNL     1      45.846   4.360   8.197  0.00  0.00    +0.000 NA
ATOM     16  C   UNL     1      44.466   3.948   8.518  0.00  0.00    +0.000 C 
ATOM     17  H   UNL     1      45.824   5.269   7.739  0.00  0.00    +0.000 HD
ENDBRANCH   9  11
ENDBRANCH   8   9
ENDBRANCH   5   8
ENDBRANCH   1   2
BRANCH   1  20
ATOM     18  O   UNL     1      50.182   5.897  16.297  0.00  0.00    +0.000 OA
ATOM     19  C   UNL     1      49.099   6.375  16.625  0.00  0.00    +0.000 C 
ATOM     20  N   UNL     1      48.175   6.816  15.715  0.00  0.00    +0.000 N 
ATOM     21  H   UNL     1      47.343   7.294  16.039  0.00  0.00    +0.000 HD
BRANCH  19  22
ATOM     22  C   UNL     1      48.704   6.476  18.032  0.00  0.00    +0.000 A 
ATOM     23  C   UNL     1      48.909   5.409  18.894  0.00  0.00    +0.000 A 
ATOM     24  S   UNL     1      48.389   5.717  20.489  0.00  0.00    +0.000 S 
ATOM     25  C   UNL     1      47.907   7.299  20.087  0.00  0.00    +0.000 A 
ATOM     26  N   UNL     1      47.387   8.135  21.024  0.00  0.00    +0.000 NA
ATOM     27  C   UNL     1      47.107   9.318  20.588  0.00  0.00    +0.000 A 
ATOM     28  N   UNL     1      47.292   9.739  19.298  0.00  0.00    +0.000 N 
ATOM     29  C   UNL     1      47.757   8.913  18.303  0.00  0.00    +0.000 A 
ATOM     30  O   UNL     1      47.810   9.293  17.138  0.00  0.00    +0.000 OA
ATOM     31  C   UNL     1      48.121   7.582  18.750  0.00  0.00    +0.000 A 
ATOM     32  H   UNL     1      47.029  10.671  19.014  0.00  0.00    +0.000 HD
ENDBRANCH  19  22
ENDBRANCH   1  20
TORSDOF 6
ENDMDL
MODEL 4
REMARK VINA RESULT:    -7.031      3.459      8.213
REMARK INTER + INTRA:         -10.384
REMARK INTER:                  -9.197
REMARK INTRA:                  -1.187
REMARK UNBOUND:                -0.887
REMARK  Name = 
REMARK  6 active torsions:
REMARK  status: ('A' for Active; 'I' for Inactive)
REMARK    1  A    between atoms: C_2  and  C_19
REMARK    2  A    between atoms: N_3  and  C_4
REMARK    3  A    between atoms: C_4  and  C_5
REMARK    4  A    between atoms: C_8  and  C_9
REMARK    5  A    between atoms: C_9  and  N_10
REMARK    6  A    between atoms: N_10  and  C_11
REMARK                            x       y       z     vdW  Elec       q    Type
REMARK                         _______ _______ _______ _____ _____    ______ ____
ROOT
ATOM      1  C   UNL     1      48.136   8.170  12.036  0.00  0.00    +0.000 C 
ENDROOT
BRANCH   1   2
ATOM      2  C   UNL     1      48.429   7.998  13.493  0.00  0.00    +0.000 A 
ATOM      3  C   UNL     1      48.155   9.014  14.410  0.00  0.00    +0.000 A 
ATOM      4  C   UNL     1      48.429   8.822  15.760  0.00  0.00    +0.000 A 
ATOM      5  C   UNL     1      48.973   7.607  16.169  0.00  0.00    +0.000 A 
ATOM      6  N   UNL     1      49.217   6.595  15.294  0.00  0.00    +0.000 NA
ATOM      7  C   UNL     1      48.941   6.809  13.992  0.00  0.00    +0.000 A 
BRANCH   5   8
ATOM      8  C   UNL     1      49.259   7.381  17.646  0.00  0.00    +0.000 C 
BRANCH   8   9
ATOM      9  N   UNL     1      49.620   6.000  17.947  0.00  0.00    +0.000 NA
ATOM     10  H   UNL     1      50.580   5.945  18.295  0.00  0.00    +0.000 HD
BRANCH   9  11
ATOM     11  C   UNL     1      48.719   5.284  18.853  0.00  0.00    +0.000 C 
ATOM     12  C   UNL     1      49.032   3.786  19.007  0.00  0.00    +0.000 C 
ATOM     13  C   UNL     1      48.834   3.038  17.689  0.00  0.00    +0.000 C 
ATOM     14  C   UNL     1      47.436   3.289  17.122  0.00  0.00    +0.000 C 
ATOM     15  N   UNL     1      47.150   4.716  16.984  0.00  0.00    +0.000 NA
ATOM     16  C   UNL     1      47.285   5.415  18.276  0.00  0.00    +0.000 C 
ATOM     17  H   UNL     1      46.204   4.848  16.631  0.00  0.00    +0.000 HD
ENDBRANCH   9  11
ENDBRANCH   8   9
ENDBRANCH   5   8
ENDBRANCH   1   2
BRANCH   1  20
ATOM     18  O   UNL     1      45.340   7.845  11.844  0.00  0.00    +0.000 OA
ATOM     19  C   UNL     1      46.078   6.968  11.403  0.00  0.00    +0.000 C 
ATOM     20  N   UNL     1      47.443   7.031  11.496  0.00  0.00    +0.000 N 
ATOM     21  H   UNL     1      48.010   6.334  11.028  0.00  0.00    +0.000 HD
BRANCH  19  22
ATOM     22  C   UNL     1      45.540   5.763  10.768  0.00  0.00    +0.000 A 
ATOM     23  C   UNL     1      45.777   5.516   9.423  0.00  0.00    +0.000 A 
ATOM     24  S   UNL     1      45.075   4.064   8.868  0.00  0.00    +0.000 S 
ATOM     25  C   UNL     1      44.462   3.702  10.414  0.00  0.00    +0.000 A 
ATOM     26  N   UNL     1      43.765   2.558  10.644  0.00  0.00    +0.000 NA
ATOM     27  C   UNL     1      43.400   2.392  11.871  0.00  0.00    +0.000 A 
ATOM     28  N   UNL     1      43.661   3.270  12.889  0.00  0.00    +0.000 N 
ATOM     29  C   UNL     1      44.308   4.467  12.695  0.00  0.00    +0.000 A 
ATOM     30  O   UNL     1      44.432   5.275  13.609  0.00  0.00    +0.000 OA
ATOM     31  C   UNL     1      44.772   4.685  11.337  0.00  0.00    +0.000 A 
ATOM     32  H   UNL     1      43.326   3.094  13.824  0.00  0.00    +0.000 HD
ENDBRANCH  19  22
ENDBRANCH   1  20
TORSDOF 6
ENDMDL
MODEL 5
REMARK VINA RESULT:    -6.995      1.857      2.395
REMARK INTER + INTRA:         -10.335
REMARK INTER:                  -9.913
REMARK INTRA:                  -0.422
REMARK UNBOUND:                -0.887
REMARK  Name = 
REMARK  6 active torsions:
REMARK  status: ('A' for Active; 'I' for Inactive)
REMARK    1  A    between atoms: C_2  and  C_19
REMARK    2  A    between atoms: N_3  and  C_4
REMARK    3  A    between atoms: C_4  and  C_5
REMARK    4  A    between atoms: C_8  and  C_9
REMARK    5  A    between atoms: C_9  and  N_10
REMARK    6  A    between atoms: N_10  and  C_11
REMARK                            x       y       z     vdW  Elec       q    Type
REMARK                         _______ _______ _______ _____ _____    ______ ____
ROOT
ATOM      1  C   UNL     1      47.414   8.635  13.651  0.00  0.00    +0.000 C 
ENDROOT
BRANCH   1   2
ATOM      2  C   UNL     1      46.283   7.916  12.986  0.00  0.00    +0.000 A 
ATOM      3  C   UNL     1      45.865   6.660  13.430  0.00  0.00    +0.000 A 
ATOM      4  C   UNL     1      44.804   6.020  12.798  0.00  0.00    +0.000 A 
ATOM      5  C   UNL     1      44.176   6.654  11.729  0.00  0.00    +0.000 A 
ATOM      6  N   UNL     1      44.551   7.891  11.304  0.00  0.00    +0.000 NA
ATOM      7  C   UNL     1      45.581   8.488  11.935  0.00  0.00    +0.000 A 
BRANCH   5   8
ATOM      8  C   UNL     1      43.003   5.970  11.044  0.00  0.00    +0.000 C 
BRANCH   8   9
ATOM      9  N   UNL     1      43.422   4.926  10.115  0.00  0.00    +0.000 NA
ATOM     10  H   UNL     1      43.153   5.164   9.158  0.00  0.00    +0.000 HD
BRANCH   9  11
ATOM     11  C   UNL     1      44.840   4.559  10.158  0.00  0.00    +0.000 C 
ATOM     12  C   UNL     1      45.515   4.469   8.779  0.00  0.00    +0.000 C 
ATOM     13  C   UNL     1      44.912   3.347   7.936  0.00  0.00    +0.000 C 
ATOM     14  C   UNL     1      44.944   2.017   8.691  0.00  0.00    +0.000 C 
ATOM     15  N   UNL     1      44.301   2.117  10.001  0.00  0.00    +0.000 NA
ATOM     16  C   UNL     1      44.933   3.162  10.828  0.00  0.00    +0.000 C 
ATOM     17  H   UNL     1      44.364   1.224  10.487  0.00  0.00    +0.000 HD
ENDBRANCH   9  11
ENDBRANCH   8   9
ENDBRANCH   5   8
ENDBRANCH   1   2
BRANCH   1  20
ATOM     18  O   UNL     1      49.502   6.762  13.963  0.00  0.00    +0.000 OA
ATOM     19  C   UNL     1      48.862   7.118  14.949  0.00  0.00    +0.000 C 
ATOM     20  N   UNL     1      47.807   7.989  14.874  0.00  0.00    +0.000 N 
ATOM     21  H   UNL     1      47.377   8.328  15.726  0.00  0.00    +0.000 HD
BRANCH  19  22
ATOM     22  C   UNL     1      49.166   6.602  16.285  0.00  0.00    +0.000 A 
ATOM     23  C   UNL     1      49.887   7.373  17.186  0.00  0.00    +0.000 A 
ATOM     24  S   UNL     1      50.136   6.604  18.688  0.00  0.00    +0.000 S 
ATOM     25  C   UNL     1      49.258   5.231  18.196  0.00  0.00    +0.000 A 
ATOM     26  N   UNL     1      49.064   4.182  19.037  0.00  0.00    +0.000 NA
ATOM     27  C   UNL     1      48.343   3.230  18.546  0.00  0.00    +0.000 A 
ATOM     28  N   UNL     1      47.804   3.227  17.288  0.00  0.00    +0.000 N 
ATOM     29  C   UNL     1      48.022   4.237  16.381  0.00  0.00    +0.000 A 
ATOM     30  O   UNL     1      47.611   4.152  15.228  0.00  0.00    +0.000 OA
ATOM     31  C   UNL     1      48.798   5.349  16.896  0.00  0.00    +0.000 A 
ATOM     32  H   UNL     1      47.269   2.439  16.954  0.00  0.00    +0.000 HD
ENDBRANCH  19  22
ENDBRANCH   1  20
TORSDOF 6
ENDMDL
MODEL 6
REMARK VINA RESULT:    -6.935      3.447      8.923
REMARK INTER + INTRA:         -10.254
REMARK INTER:                  -9.183
REMARK INTRA:                  -1.071
REMARK UNBOUND:                -0.887
REMARK  Name = 
REMARK  6 active torsions:
REMARK  status: ('A' for Active; 'I' for Inactive)
REMARK    1  A    between atoms: C_2  and  C_19
REMARK    2  A    between atoms: N_3  and  C_4
REMARK    3  A    between atoms: C_4  and  C_5
REMARK    4  A    between atoms: C_8  and  C_9
REMARK    5  A    between atoms: C_9  and  N_10
REMARK    6  A    between atoms: N_10  and  C_11
REMARK                            x       y       z     vdW  Elec       q    Type
REMARK                         _______ _______ _______ _____ _____    ______ ____
ROOT
ATOM      1  C   UNL     1      47.350   7.719  11.982  0.00  0.00    +0.000 C 
ENDROOT
BRANCH   1   2
ATOM      2  C   UNL     1      48.329   7.597  13.106  0.00  0.00    +0.000 A 
ATOM      3  C   UNL     1      49.334   8.547  13.295  0.00  0.00    +0.000 A 
ATOM      4  C   UNL     1      50.224   8.413  14.356  0.00  0.00    +0.000 A 
ATOM      5  C   UNL     1      50.089   7.323  15.213  0.00  0.00    +0.000 A 
ATOM      6  N   UNL     1      49.096   6.406  15.062  0.00  0.00    +0.000 NA
ATOM      7  C   UNL     1      48.248   6.562  14.027  0.00  0.00    +0.000 A 
BRANCH   5   8
ATOM      8  C   UNL     1      51.047   7.178  16.386  0.00  0.00    +0.000 C 
BRANCH   8   9
ATOM      9  N   UNL     1      51.395   5.789  16.662  0.00  0.00    +0.000 NA
ATOM     10  H   UNL     1      52.390   5.625  16.493  0.00  0.00    +0.000 HD
BRANCH   9  11
ATOM     11  C   UNL     1      51.025   5.285  17.987  0.00  0.00    +0.000 C 
ATOM     12  C   UNL     1      51.699   3.957  18.372  0.00  0.00    +0.000 C 
ATOM     13  C   UNL     1      51.253   2.820  17.454  0.00  0.00    +0.000 C 
ATOM     14  C   UNL     1      49.728   2.713  17.416  0.00  0.00    +0.000 C 
ATOM     15  N   UNL     1      49.100   3.983  17.050  0.00  0.00    +0.000 NA
ATOM     16  C   UNL     1      49.491   5.058  17.982  0.00  0.00    +0.000 C 
ATOM     17  H   UNL     1      48.087   3.884  17.061  0.00  0.00    +0.000 HD
ENDBRANCH   9  11
ENDBRANCH   8   9
ENDBRANCH   5   8
ENDBRANCH   1   2
BRANCH   1  20
ATOM     18  O   UNL     1      44.551   7.378  11.874  0.00  0.00    +0.000 OA
ATOM     19  C   UNL     1      45.282   6.411  11.677  0.00  0.00    +0.000 C 
ATOM     20  N   UNL     1      46.648   6.485  11.754  0.00  0.00    +0.000 N 
ATOM     21  H   UNL     1      47.208   5.685  11.485  0.00  0.00    +0.000 HD
BRANCH  19  22
ATOM     22  C   UNL     1      44.734   5.087  11.375  0.00  0.00    +0.000 A 
ATOM     23  C   UNL     1      43.924   4.438  12.297  0.00  0.00    +0.000 A 
ATOM     24  S   UNL     1      43.379   2.913  11.764  0.00  0.00    +0.000 S 
ATOM     25  C   UNL     1      44.177   3.085  10.270  0.00  0.00    +0.000 A 
ATOM     26  N   UNL     1      44.095   2.123   9.314  0.00  0.00    +0.000 NA
ATOM     27  C   UNL     1      44.713   2.407   8.216  0.00  0.00    +0.000 A 
ATOM     28  N   UNL     1      45.411   3.563   7.989  0.00  0.00    +0.000 N 
ATOM     29  C   UNL     1      45.572   4.537   8.945  0.00  0.00    +0.000 A 
ATOM     30  O   UNL     1      46.290   5.510   8.742  0.00  0.00    +0.000 OA
ATOM     31  C   UNL     1      44.866   4.282  10.186  0.00  0.00    +0.000 A 
ATOM     32  H   UNL     1      45.893   3.714   7.116  0.00  0.00    +0.000 HD
ENDBRANCH  19  22
ENDBRANCH   1  20
TORSDOF 6
ENDMDL
MODEL 7
REMARK VINA RESULT:    -6.809      1.933      2.170
REMARK INTER + INTRA:         -10.084
REMARK INTER:                  -9.147
REMARK INTRA:                  -0.937
REMARK UNBOUND:                -0.887
REMARK  Name = 
REMARK  6 active torsions:
REMARK  status: ('A' for Active; 'I' for Inactive)
REMARK    1  A    between atoms: C_2  and  C_19
REMARK    2  A    between atoms: N_3  and  C_4
REMARK    3  A    between atoms: C_4  and  C_5
REMARK    4  A    between atoms: C_8  and  C_9
REMARK    5  A    between atoms: C_9  and  N_10
REMARK    6  A    between atoms: N_10  and  C_11
REMARK                            x       y       z     vdW  Elec       q    Type
REMARK                         _______ _______ _______ _____ _____    ______ ____
ROOT
ATOM      1  C   UNL     1      48.006   7.781  14.047  0.00  0.00    +0.000 C 
ENDROOT
BRANCH   1   2
ATOM      2  C   UNL     1      47.079   6.705  13.579  0.00  0.00    +0.000 A 
ATOM      3  C   UNL     1      45.889   7.013  12.919  0.00  0.00    +0.000 A 
ATOM      4  C   UNL     1      45.051   5.990  12.486  0.00  0.00    +0.000 A 
ATOM      5  C   UNL     1      45.424   4.670  12.724  0.00  0.00    +0.000 A 
ATOM      6  N   UNL     1      46.595   4.351  13.338  0.00  0.00    +0.000 NA
ATOM      7  C   UNL     1      47.387   5.362  13.745  0.00  0.00    +0.000 A 
BRANCH   5   8
ATOM      8  C   UNL     1      44.523   3.544  12.239  0.00  0.00    +0.000 C 
BRANCH   8   9
ATOM      9  N   UNL     1      45.082   2.822  11.103  0.00  0.00    +0.000 NA
ATOM     10  H   UNL     1      45.393   1.889  11.385  0.00  0.00    +0.000 HD
BRANCH   9  11
ATOM     11  C   UNL     1      44.226   2.725   9.918  0.00  0.00    +0.000 C 
ATOM     12  C   UNL     1      44.749   1.768   8.833  0.00  0.00    +0.000 C 
ATOM     13  C   UNL     1      46.068   2.264   8.243  0.00  0.00    +0.000 C 
ATOM     14  C   UNL     1      45.937   3.703   7.742  0.00  0.00    +0.000 C 
ATOM     15  N   UNL     1      45.437   4.601   8.782  0.00  0.00    +0.000 NA
ATOM     16  C   UNL     1      44.134   4.145   9.300  0.00  0.00    +0.000 C 
ATOM     17  H   UNL     1      45.336   5.543   8.409  0.00  0.00    +0.000 HD
ENDBRANCH   9  11
ENDBRANCH   8   9
ENDBRANCH   5   8
ENDBRANCH   1   2
BRANCH   1  20
ATOM     18  O   UNL     1      48.855   8.134  16.715  0.00  0.00    +0.000 OA
ATOM     19  C   UNL     1      49.515   7.421  15.964  0.00  0.00    +0.000 C 
ATOM     20  N   UNL     1      49.194   7.234  14.646  0.00  0.00    +0.000 N 
ATOM     21  H   UNL     1      49.711   6.558  14.096  0.00  0.00    +0.000 HD
BRANCH  19  22
ATOM     22  C   UNL     1      50.726   6.740  16.426  0.00  0.00    +0.000 A 
ATOM     23  C   UNL     1      51.956   7.380  16.364  0.00  0.00    +0.000 A 
ATOM     24  S   UNL     1      53.244   6.430  16.951  0.00  0.00    +0.000 S 
ATOM     25  C   UNL     1      52.197   5.147  17.341  0.00  0.00    +0.000 A 
ATOM     26  N   UNL     1      52.663   4.007  17.917  0.00  0.00    +0.000 NA
ATOM     27  C   UNL     1      51.751   3.138  18.198  0.00  0.00    +0.000 A 
ATOM     28  N   UNL     1      50.414   3.300  17.948  0.00  0.00    +0.000 N 
ATOM     29  C   UNL     1      49.902   4.407  17.314  0.00  0.00    +0.000 A 
ATOM     30  O   UNL     1      48.715   4.472  17.013  0.00  0.00    +0.000 OA
ATOM     31  C   UNL     1      50.884   5.431  17.009  0.00  0.00    +0.000 A 
ATOM     32  H   UNL     1      49.753   2.570  18.170  0.00  0.00    +0.000 HD
ENDBRANCH  19  22
ENDBRANCH   1  20
TORSDOF 6
ENDMDL
MODEL 8
REMARK VINA RESULT:    -6.697      5.147      8.636
REMARK INTER + INTRA:          -9.933
REMARK INTER:                  -8.961
REMARK INTRA:                  -0.972
REMARK UNBOUND:                -0.887
REMARK  Name = 
REMARK  6 active torsions:
REMARK  status: ('A' for Active; 'I' for Inactive)
REMARK    1  A    between atoms: C_2  and  C_19
REMARK    2  A    between atoms: N_3  and  C_4
REMARK    3  A    between atoms: C_4  and  C_5
REMARK    4  A    between atoms: C_8  and  C_9
REMARK    5  A    between atoms: C_9  and  N_10
REMARK    6  A    between atoms: N_10  and  C_11
REMARK                            x       y       z     vdW  Elec       q    Type
REMARK                         _______ _______ _______ _____ _____    ______ ____
ROOT
ATOM      1  C   UNL     1      46.282   8.058  13.139  0.00  0.00    +0.000 C 
ENDROOT
BRANCH   1   2
ATOM      2  C   UNL     1      47.716   8.251  12.756  0.00  0.00    +0.000 A 
ATOM      3  C   UNL     1      48.297   7.500  11.733  0.00  0.00    +0.000 A 
ATOM      4  C   UNL     1      49.630   7.709  11.392  0.00  0.00    +0.000 A 
ATOM      5  C   UNL     1      50.358   8.673  12.085  0.00  0.00    +0.000 A 
ATOM      6  N   UNL     1      49.798   9.435  13.063  0.00  0.00    +0.000 NA
ATOM      7  C   UNL     1      48.505   9.212  13.371  0.00  0.00    +0.000 A 
BRANCH   5   8
ATOM      8  C   UNL     1      51.811   8.921  11.707  0.00  0.00    +0.000 C 
BRANCH   8   9
ATOM      9  N   UNL     1      52.571   7.687  11.545  0.00  0.00    +0.000 NA
ATOM     10  H   UNL     1      51.971   6.936  11.195  0.00  0.00    +0.000 HD
BRANCH   9  11
ATOM     11  C   UNL     1      53.782   7.781  10.727  0.00  0.00    +0.000 C 
ATOM     12  C   UNL     1      53.520   8.037   9.233  0.00  0.00    +0.000 C 
ATOM     13  C   UNL     1      52.780   6.866   8.588  0.00  0.00    +0.000 C 
ATOM     14  C   UNL     1      53.517   5.549   8.836  0.00  0.00    +0.000 C 
ATOM     15  N   UNL     1      53.761   5.319  10.260  0.00  0.00    +0.000 NA
ATOM     16  C   UNL     1      54.530   6.428  10.855  0.00  0.00    +0.000 C 
ATOM     17  H   UNL     1      54.276   4.450  10.387  0.00  0.00    +0.000 HD
ENDBRANCH   9  11
ENDBRANCH   8   9
ENDBRANCH   5   8
ENDBRANCH   1   2
BRANCH   1  20
ATOM     18  O   UNL     1      44.155   7.518  11.364  0.00  0.00    +0.000 OA
ATOM     19  C   UNL     1      44.785   6.582  11.850  0.00  0.00    +0.000 C 
ATOM     20  N   UNL     1      45.801   6.759  12.752  0.00  0.00    +0.000 N 
ATOM     21  H   UNL     1      46.354   5.962  13.045  0.00  0.00    +0.000 HD
BRANCH  19  22
ATOM     22  C   UNL     1      44.464   5.192  11.519  0.00  0.00    +0.000 A 
ATOM     23  C   UNL     1      43.668   4.437  12.369  0.00  0.00    +0.000 A 
ATOM     24  S   UNL     1      43.402   2.847  11.811  0.00  0.00    +0.000 S 
ATOM     25  C   UNL     1      44.311   3.128  10.400  0.00  0.00    +0.000 A 
ATOM     26  N   UNL     1      44.463   2.160   9.458  0.00  0.00    +0.000 NA
ATOM     27  C   UNL     1      45.139   2.527   8.420  0.00  0.00    +0.000 A 
ATOM     28  N   UNL     1      45.684   3.771   8.243  0.00  0.00    +0.000 N 
ATOM     29  C   UNL     1      45.608   4.761   9.192  0.00  0.00    +0.000 A 
ATOM     30  O   UNL     1      46.197   5.827   9.044  0.00  0.00    +0.000 OA
ATOM     31  C   UNL     1      44.827   4.411  10.364  0.00  0.00    +0.000 A 
ATOM     32  H   UNL     1      46.224   3.987   7.418  0.00  0.00    +0.000 HD
ENDBRANCH  19  22
ENDBRANCH   1  20
TORSDOF 6
ENDMDL
MODEL 9
REMARK VINA RESULT:    -6.503      2.446      3.312
REMARK INTER + INTRA:          -9.670
REMARK INTER:                  -8.690
REMARK INTRA:                  -0.981
REMARK UNBOUND:                -0.887
REMARK  Name = 
REMARK  6 active torsions:
REMARK  status: ('A' for Active; 'I' for Inactive)
REMARK    1  A    between atoms: C_2  and  C_19
REMARK    2  A    between atoms: N_3  and  C_4
REMARK    3  A    between atoms: C_4  and  C_5
REMARK    4  A    between atoms: C_8  and  C_9
REMARK    5  A    between atoms: C_9  and  N_10
REMARK    6  A    between atoms: N_10  and  C_11
REMARK                            x       y       z     vdW  Elec       q    Type
REMARK                         _______ _______ _______ _____ _____    ______ ____
ROOT
ATOM      1  C   UNL     1      48.027   7.687  14.024  0.00  0.00    +0.000 C 
ENDROOT
BRANCH   1   2
ATOM      2  C   UNL     1      47.074   6.667  13.486  0.00  0.00    +0.000 A 
ATOM      3  C   UNL     1      45.978   7.043  12.707  0.00  0.00    +0.000 A 
ATOM      4  C   UNL     1      45.114   6.071  12.212  0.00  0.00    +0.000 A 
ATOM      5  C   UNL     1      45.367   4.733  12.507  0.00  0.00    +0.000 A 
ATOM      6  N   UNL     1      46.448   4.348  13.239  0.00  0.00    +0.000 NA
ATOM      7  C   UNL     1      47.268   5.311  13.704  0.00  0.00    +0.000 A 
BRANCH   5   8
ATOM      8  C   UNL     1      44.438   3.662  11.956  0.00  0.00    +0.000 C 
BRANCH   8   9
ATOM      9  N   UNL     1      45.063   2.853  10.916  0.00  0.00    +0.000 NA
ATOM     10  H   UNL     1      45.338   1.940  11.285  0.00  0.00    +0.000 HD
BRANCH   9  11
ATOM     11  C   UNL     1      44.289   2.680   9.684  0.00  0.00    +0.000 C 
ATOM     12  C   UNL     1      44.919   1.712   8.669  0.00  0.00    +0.000 C 
ATOM     13  C   UNL     1      46.253   2.244   8.145  0.00  0.00    +0.000 C 
ATOM     14  C   UNL     1      46.096   3.659   7.586  0.00  0.00    +0.000 C 
ATOM     15  N   UNL     1      45.494   4.568   8.561  0.00  0.00    +0.000 NA
ATOM     16  C   UNL     1      44.179   4.074   9.011  0.00  0.00    +0.000 C 
ATOM     17  H   UNL     1      45.378   5.492   8.148  0.00  0.00    +0.000 HD
ENDBRANCH   9  11
ENDBRANCH   8   9
ENDBRANCH   5   8
ENDBRANCH   1   2
BRANCH   1  20
ATOM     18  O   UNL     1      48.592   7.855  16.784  0.00  0.00    +0.000 OA
ATOM     19  C   UNL     1      49.312   7.170  16.063  0.00  0.00    +0.000 C 
ATOM     20  N   UNL     1      49.132   7.071  14.709  0.00  0.00    +0.000 N 
ATOM     21  H   UNL     1      49.689   6.415  14.176  0.00  0.00    +0.000 HD
BRANCH  19  22
ATOM     22  C   UNL     1      50.452   6.427  16.607  0.00  0.00    +0.000 A 
ATOM     23  C   UNL     1      50.246   5.397  17.514  0.00  0.00    +0.000 A 
ATOM     24  S   UNL     1      51.691   4.650  18.028  0.00  0.00    +0.000 S 
ATOM     25  C   UNL     1      52.634   5.655  17.030  0.00  0.00    +0.000 A 
ATOM     26  N   UNL     1      53.985   5.521  16.973  0.00  0.00    +0.000 NA
ATOM     27  C   UNL     1      54.566   6.319  16.140  0.00  0.00    +0.000 A 
ATOM     28  N   UNL     1      53.921   7.245  15.366  0.00  0.00    +0.000 N 
ATOM     29  C   UNL     1      52.565   7.459  15.433  0.00  0.00    +0.000 A 
ATOM     30  O   UNL     1      52.035   8.368  14.802  0.00  0.00    +0.000 OA
ATOM     31  C   UNL     1      51.859   6.561  16.328  0.00  0.00    +0.000 A 
ATOM     32  H   UNL     1      54.437   7.858  14.752  0.00  0.00    +0.000 HD
ENDBRANCH  19  22
ENDBRANCH   1  20
TORSDOF 6
ENDMDL
