MODEL 1
REMARK VINA RESULT:    -7.112      0.000      0.000
REMARK INTER + INTRA:         -10.267
REMARK INTER:                  -9.399
REMARK INTRA:                  -0.869
REMARK UNBOUND:                -0.869
REMARK  Name = 
REMARK  6 active torsions:
REMARK  status: ('A' for Active; 'I' for Inactive)
REMARK    1  A    between atoms: C_2  and  C_19
REMARK    2  A    between atoms: N_3  and  C_4
REMARK    3  A    between atoms: C_4  and  C_5
REMARK    4  A    between atoms: C_8  and  C_9
REMARK    5  A    between atoms: C_9  and  C_10
REMARK    6  A    between atoms: C_13  and  O_14
REMARK                            x       y       z     vdW  Elec       q    Type
REMARK                         _______ _______ _______ _____ _____    ______ ____
ROOT
ATOM      1  C   UNL     1      49.337   5.670  17.989  0.00  0.00    +0.000 C 
ENDROOT
BRANCH   1   2
ATOM      2  C   UNL     1      48.551   5.239  16.780  0.00  0.00    +0.000 A 
ATOM      3  C   UNL     1      47.820   4.056  16.794  0.00  0.00    +0.000 A 
ATOM      4  N   UNL     1      47.072   3.641  15.742  0.00  0.00    +0.000 NA
ATOM      5  C   UNL     1      47.087   4.447  14.651  0.00  0.00    +0.000 A 
ATOM      6  C   UNL     1      47.846   5.612  14.625  0.00  0.00    +0.000 A 
ATOM      7  N   UNL     1      48.587   6.032  15.677  0.00  0.00    +0.000 NA
BRANCH   5   8
ATOM      8  C   UNL     1      46.179   4.089  13.509  0.00  0.00    +0.000 C 
BRANCH   8   9
ATOM      9  C   UNL     1      45.092   5.123  13.146  0.00  0.00    +0.000 C 
ATOM     10  C   UNL     1      45.487   6.017  11.956  0.00  0.00    +0.000 C 
ATOM     11  C   UNL     1      44.324   6.887  11.464  0.00  0.00    +0.000 C 
ATOM     12  C   UNL     1      43.068   6.075  11.155  0.00  0.00    +0.000 C 
ATOM     13  C   UNL     1      42.655   5.229  12.356  0.00  0.00    +0.000 C 
ATOM     14  C   UNL     1      43.793   4.346  12.856  0.00  0.00    +0.000 C 
BRANCH  12  15
ATOM     15  O   UNL     1      43.272   5.244  10.015  0.00  0.00    +0.000 OA
ATOM     16  H   UNL     1      42.505   4.658   9.909  0.00  0.00    +0.000 HD
ENDBRANCH  12  15
ENDBRANCH   8   9
ENDBRANCH   5   8
ENDBRANCH   1   2
BRANCH   1  19
ATOM     17  O   UNL     1      51.853   5.743  16.786  0.00  0.00    +0.000 OA
ATOM     18  C   UNL     1      51.651   4.908  17.664  0.00  0.00    +0.000 C 
ATOM     19  N   UNL     1      50.432   4.777  18.276  0.00  0.00    +0.000 N 
ATOM     20  H   UNL     1      50.366   4.266  19.152  0.00  0.00    +0.000 HD
BRANCH  18  21
ATOM     21  C   UNL     1      52.687   3.962  18.078  0.00  0.00    +0.000 A 
ATOM     22  C   UNL     1      53.880   4.424  18.616  0.00  0.00    +0.000 A 
ATOM     23  S   UNL     1      54.954   3.172  19.058  0.00  0.00    +0.000 S 
ATOM     24  C   UNL     1      53.846   1.975  18.573  0.00  0.00    +0.000 A 
ATOM     25  N   UNL     1      54.129   0.654  18.718  0.00  0.00    +0.000 NA
ATOM     26  C   UNL     1      53.182  -0.140  18.336  0.00  0.00    +0.000 A 
ATOM     27  N   UNL     1      51.985   0.269  17.811  0.00  0.00    +0.000 N 
ATOM     28  C   UNL     1      51.684   1.589  17.582  0.00  0.00    +0.000 A 
ATOM     29  O   UNL     1      50.659   1.914  16.994  0.00  0.00    +0.000 OA
ATOM     30  C   UNL     1      52.691   2.522  18.044  0.00  0.00    +0.000 A 
ATOM     31  H   UNL     1      51.300  -0.403  17.495  0.00  0.00    +0.000 HD
ENDBRANCH  18  21
ENDBRANCH   1  19
TORSDOF 6
ENDMDL
MODEL 2
REMARK VINA RESULT:    -7.072      6.196      8.213
REMARK INTER + INTRA:         -10.215
REMARK INTER:                  -9.286
REMARK INTRA:                  -0.929
REMARK UNBOUND:                -0.869
REMARK  Name = 
REMARK  6 active torsions:
REMARK  status: ('A' for Active; 'I' for Inactive)
REMARK    1  A    between atoms: C_2  and  C_19
REMARK    2  A    between atoms: N_3  and  C_4
REMARK    3  A    between atoms: C_4  and  C_5
REMARK    4  A    between atoms: C_8  and  C_9
REMARK    5  A    between atoms: C_9  and  C_10
REMARK    6  A    between atoms: C_13  and  O_14
REMARK                            x       y       z     vdW  Elec       q    Type
REMARK                         _______ _______ _______ _____ _____    ______ ____
ROOT
ATOM      1  C   UNL     1      44.104   6.421  13.039  0.00  0.00    +0.000 C 
ENDROOT
BRANCH   1   2
ATOM      2  C   UNL     1      44.225   5.257  12.094  0.00  0.00    +0.000 A 
ATOM      3  C   UNL     1      43.434   5.184  10.953  0.00  0.00    +0.000 A 
ATOM      4  N   UNL     1      43.527   4.172  10.057  0.00  0.00    +0.000 NA
ATOM      5  C   UNL     1      44.440   3.210  10.342  0.00  0.00    +0.000 A 
ATOM      6  C   UNL     1      45.207   3.266  11.501  0.00  0.00    +0.000 A 
ATOM      7  N   UNL     1      45.120   4.279  12.394  0.00  0.00    +0.000 NA
BRANCH   5   8
ATOM      8  C   UNL     1      44.663   2.136   9.317  0.00  0.00    +0.000 C 
BRANCH   8   9
ATOM      9  C   UNL     1      46.033   2.140   8.604  0.00  0.00    +0.000 C 
ATOM     10  C   UNL     1      46.240   0.916   7.693  0.00  0.00    +0.000 C 
ATOM     11  C   UNL     1      47.500   1.036   6.827  0.00  0.00    +0.000 C 
ATOM     12  C   UNL     1      47.545   2.336   6.028  0.00  0.00    +0.000 C 
ATOM     13  C   UNL     1      47.388   3.546   6.944  0.00  0.00    +0.000 C 
ATOM     14  C   UNL     1      46.135   3.456   7.808  0.00  0.00    +0.000 C 
BRANCH  12  15
ATOM     15  O   UNL     1      46.535   2.347   5.022  0.00  0.00    +0.000 OA
ATOM     16  H   UNL     1      46.167   3.242   4.953  0.00  0.00    +0.000 HD
ENDBRANCH  12  15
ENDBRANCH   8   9
ENDBRANCH   5   8
ENDBRANCH   1   2
BRANCH   1  19
ATOM     17  O   UNL     1      44.591   8.482  11.222  0.00  0.00    +0.000 OA
ATOM     18  C   UNL     1      45.414   8.282  12.112  0.00  0.00    +0.000 C 
ATOM     19  N   UNL     1      45.272   7.266  13.019  0.00  0.00    +0.000 N 
ATOM     20  H   UNL     1      45.819   7.281  13.876  0.00  0.00    +0.000 HD
BRANCH  18  21
ATOM     21  C   UNL     1      46.629   9.089  12.229  0.00  0.00    +0.000 A 
ATOM     22  C   UNL     1      46.565  10.470  12.115  0.00  0.00    +0.000 A 
ATOM     23  S   UNL     1      48.078  11.237  12.301  0.00  0.00    +0.000 S 
ATOM     24  C   UNL     1      48.861   9.751  12.571  0.00  0.00    +0.000 A 
ATOM     25  N   UNL     1      50.192   9.695  12.840  0.00  0.00    +0.000 NA
ATOM     26  C   UNL     1      50.643   8.502  13.055  0.00  0.00    +0.000 A 
ATOM     27  N   UNL     1      49.886   7.362  13.011  0.00  0.00    +0.000 N 
ATOM     28  C   UNL     1      48.555   7.363  12.676  0.00  0.00    +0.000 A 
ATOM     29  O   UNL     1      47.936   6.316  12.521  0.00  0.00    +0.000 OA
ATOM     30  C   UNL     1      47.988   8.682  12.480  0.00  0.00    +0.000 A 
ATOM     31  H   UNL     1      50.306   6.453  13.150  0.00  0.00    +0.000 HD
ENDBRANCH  18  21
ENDBRANCH   1  19
TORSDOF 6
ENDMDL
MODEL 3
REMARK VINA RESULT:    -6.817      4.647      8.838
REMARK INTER + INTRA:          -9.877
REMARK INTER:                  -9.316
REMARK INTRA:                  -0.560
REMARK UNBOUND:                -0.869
REMARK  Name = 
REMARK  6 active torsions:
REMARK  status: ('A' for Active; 'I' for Inactive)
REMARK    1  A    between atoms: C_2  and  C_19
REMARK    2  A    between atoms: N_3  and  C_4
REMARK    3  A    between atoms: C_4  and  C_5
REMARK    4  A    between atoms: C_8  and  C_9
REMARK    5  A    between atoms: C_9  and  C_10
REMARK    6  A    between atoms: C_13  and  O_14
REMARK                            x       y       z     vdW  Elec       q    Type
REMARK                         _______ _______ _______ _____ _____    ______ ____
ROOT
ATOM      1  C   UNL     1      48.190   8.022  12.126  0.00  0.00    +0.000 C 
ENDROOT
BRANCH   1   2
ATOM      2  C   UNL     1      48.821   7.671  13.446  0.00  0.00    +0.000 A 
ATOM      3  C   UNL     1      48.351   6.598  14.195  0.00  0.00    +0.000 A 
ATOM      4  N   UNL     1      48.906   6.225  15.374  0.00  0.00    +0.000 NA
ATOM      5  C   UNL     1      49.953   6.974  15.799  0.00  0.00    +0.000 A 
ATOM      6  C   UNL     1      50.401   8.068  15.067  0.00  0.00    +0.000 A 
ATOM      7  N   UNL     1      49.854   8.439  13.886  0.00  0.00    +0.000 NA
BRANCH   5   8
ATOM      8  C   UNL     1      50.675   6.523  17.037  0.00  0.00    +0.000 C 
BRANCH   8   9
ATOM      9  C   UNL     1      49.853   6.510  18.345  0.00  0.00    +0.000 C 
ATOM     10  C   UNL     1      48.651   7.471  18.308  0.00  0.00    +0.000 C 
ATOM     11  C   UNL     1      47.721   7.294  19.515  0.00  0.00    +0.000 C 
ATOM     12  C   UNL     1      47.270   5.847  19.706  0.00  0.00    +0.000 C 
ATOM     13  C   UNL     1      48.469   4.908  19.790  0.00  0.00    +0.000 C 
ATOM     14  C   UNL     1      49.403   5.057  18.594  0.00  0.00    +0.000 C 
BRANCH  12  15
ATOM     15  O   UNL     1      46.404   5.445  18.648  0.00  0.00    +0.000 OA
ATOM     16  H   UNL     1      46.029   6.236  18.227  0.00  0.00    +0.000 HD
ENDBRANCH  12  15
ENDBRANCH   8   9
ENDBRANCH   5   8
ENDBRANCH   1   2
BRANCH   1  19
ATOM     17  O   UNL     1      45.421   7.796  11.864  0.00  0.00    +0.000 OA
ATOM     18  C   UNL     1      46.124   6.893  11.419  0.00  0.00    +0.000 C 
ATOM     19  N   UNL     1      47.488   6.905  11.543  0.00  0.00    +0.000 N 
ATOM     20  H   UNL     1      48.049   6.291  10.957  0.00  0.00    +0.000 HD
BRANCH  18  21
ATOM     21  C   UNL     1      45.544   5.717  10.769  0.00  0.00    +0.000 A 
ATOM     22  C   UNL     1      45.779   5.474   9.424  0.00  0.00    +0.000 A 
ATOM     23  S   UNL     1      45.038   4.047   8.853  0.00  0.00    +0.000 S 
ATOM     24  C   UNL     1      44.406   3.692  10.393  0.00  0.00    +0.000 A 
ATOM     25  N   UNL     1      43.685   2.562  10.614  0.00  0.00    +0.000 NA
ATOM     26  C   UNL     1      43.297   2.409  11.839  0.00  0.00    +0.000 A 
ATOM     27  N   UNL     1      43.554   3.290  12.855  0.00  0.00    +0.000 N 
ATOM     28  C   UNL     1      44.217   4.476  12.663  0.00  0.00    +0.000 A 
ATOM     29  O   UNL     1      44.319   5.301  13.564  0.00  0.00    +0.000 OA
ATOM     30  C   UNL     1      44.722   4.669  11.319  0.00  0.00    +0.000 A 
ATOM     31  H   UNL     1      43.188   3.132  13.784  0.00  0.00    +0.000 HD
ENDBRANCH  18  21
ENDBRANCH   1  19
TORSDOF 6
ENDMDL
MODEL 4
REMARK VINA RESULT:    -6.812      4.310      8.333
REMARK INTER + INTRA:          -9.871
REMARK INTER:                  -8.835
REMARK INTRA:                  -1.035
REMARK UNBOUND:                -0.869
REMARK  Name = 
REMARK  6 active torsions:
REMARK  status: ('A' for Active; 'I' for Inactive)
REMARK    1  A    between atoms: C_2  and  C_19
REMARK    2  A    between atoms: N_3  and  C_4
REMARK    3  A    between atoms: C_4  and  C_5
REMARK    4  A    between atoms: C_8  and  C_9
REMARK    5  A    between atoms: C_9  and  C_10
REMARK    6  A    between atoms: C_13  and  O_14
REMARK                            x       y       z     vdW  Elec       q    Type
REMARK                         _______ _______ _______ _____ _____    ______ ____
ROOT
ATOM      1  C   UNL     1      47.974   8.919  14.038  0.00  0.00    +0.000 C 
ENDROOT
BRANCH   1   2
ATOM      2  C   UNL     1      48.639   8.181  15.168  0.00  0.00    +0.000 A 
ATOM      3  C   UNL     1      48.231   8.378  16.482  0.00  0.00    +0.000 A 
ATOM      4  N   UNL     1      48.777   7.714  17.530  0.00  0.00    +0.000 NA
ATOM      5  C   UNL     1      49.771   6.843  17.225  0.00  0.00    +0.000 A 
ATOM      6  C   UNL     1      50.204   6.673  15.915  0.00  0.00    +0.000 A 
ATOM      7  N   UNL     1      49.655   7.329  14.866  0.00  0.00    +0.000 NA
BRANCH   5   8
ATOM      8  C   UNL     1      50.322   5.999  18.339  0.00  0.00    +0.000 C 
BRANCH   8   9
ATOM      9  C   UNL     1      49.823   4.540  18.405  0.00  0.00    +0.000 C 
ATOM     10  C   UNL     1      48.323   4.402  18.084  0.00  0.00    +0.000 C 
ATOM     11  C   UNL     1      47.886   2.940  17.939  0.00  0.00    +0.000 C 
ATOM     12  C   UNL     1      48.741   2.164  16.939  0.00  0.00    +0.000 C 
ATOM     13  C   UNL     1      50.221   2.265  17.292  0.00  0.00    +0.000 C 
ATOM     14  C   UNL     1      50.683   3.711  17.431  0.00  0.00    +0.000 C 
BRANCH  12  15
ATOM     15  O   UNL     1      48.518   2.636  15.612  0.00  0.00    +0.000 OA
ATOM     16  H   UNL     1      47.905   2.034  15.160  0.00  0.00    +0.000 HD
ENDBRANCH  12  15
ENDBRANCH   8   9
ENDBRANCH   5   8
ENDBRANCH   1   2
BRANCH   1  19
ATOM     17  O   UNL     1      47.920   7.017  11.998  0.00  0.00    +0.000 OA
ATOM     18  C   UNL     1      46.869   7.285  12.573  0.00  0.00    +0.000 C 
ATOM     19  N   UNL     1      46.799   8.236  13.556  0.00  0.00    +0.000 N 
ATOM     20  H   UNL     1      45.993   8.256  14.176  0.00  0.00    +0.000 HD
BRANCH  18  21
ATOM     21  C   UNL     1      45.608   6.639  12.208  0.00  0.00    +0.000 A 
ATOM     22  C   UNL     1      44.595   7.371  11.605  0.00  0.00    +0.000 A 
ATOM     23  S   UNL     1      43.213   6.441  11.236  0.00  0.00    +0.000 S 
ATOM     24  C   UNL     1      43.935   5.024  11.841  0.00  0.00    +0.000 A 
ATOM     25  N   UNL     1      43.290   3.829  11.792  0.00  0.00    +0.000 NA
ATOM     26  C   UNL     1      43.974   2.835  12.259  0.00  0.00    +0.000 A 
ATOM     27  N   UNL     1      45.236   2.932  12.781  0.00  0.00    +0.000 N 
ATOM     28  C   UNL     1      45.897   4.127  12.913  0.00  0.00    +0.000 A 
ATOM     29  O   UNL     1      46.971   4.198  13.500  0.00  0.00    +0.000 OA
ATOM     30  C   UNL     1      45.197   5.265  12.354  0.00  0.00    +0.000 A 
ATOM     31  H   UNL     1      45.702   2.122  13.166  0.00  0.00    +0.000 HD
ENDBRANCH  18  21
ENDBRANCH   1  19
TORSDOF 6
ENDMDL
MODEL 5
REMARK VINA RESULT:    -6.800      3.404      4.550
REMARK INTER + INTRA:          -9.855
REMARK INTER:                  -8.903
REMARK INTRA:                  -0.952
REMARK UNBOUND:                -0.869
REMARK  Name = 
REMARK  6 active torsions:
REMARK  status: ('A' for Active; 'I' for Inactive)
REMARK    1  A    between atoms: C_2  and  C_19
REMARK    2  A    between atoms: N_3  and  C_4
REMARK    3  A    between atoms: C_4  and  C_5
REMARK    4  A    between atoms: C_8  and  C_9
REMARK    5  A    between atoms: C_9  and  C_10
REMARK    6  A    between atoms: C_13  and  O_14
REMARK                            x       y       z     vdW  Elec       q    Type
REMARK                         _______ _______ _______ _____ _____    ______ ____
ROOT
ATOM      1  C   UNL     1      49.089   8.073  13.637  0.00  0.00    +0.000 C 
ENDROOT
BRANCH   1   2
ATOM      2  C   UNL     1      47.762   7.890  12.951  0.00  0.00    +0.000 A 
ATOM      3  C   UNL     1      47.582   6.878  12.014  0.00  0.00    +0.000 A 
ATOM      4  N   UNL     1      46.398   6.653  11.393  0.00  0.00    +0.000 NA
ATOM      5  C   UNL     1      45.385   7.490  11.728  0.00  0.00    +0.000 A 
ATOM      6  C   UNL     1      45.576   8.524  12.639  0.00  0.00    +0.000 A 
ATOM      7  N   UNL     1      46.754   8.746  13.266  0.00  0.00    +0.000 NA
BRANCH   5   8
ATOM      8  C   UNL     1      44.027   7.203  11.156  0.00  0.00    +0.000 C 
BRANCH   8   9
ATOM      9  C   UNL     1      43.460   5.789  11.409  0.00  0.00    +0.000 C 
ATOM     10  C   UNL     1      44.061   4.725  10.472  0.00  0.00    +0.000 C 
ATOM     11  C   UNL     1      43.660   3.299  10.869  0.00  0.00    +0.000 C 
ATOM     12  C   UNL     1      43.967   2.986  12.333  0.00  0.00    +0.000 C 
ATOM     13  C   UNL     1      43.327   4.018  13.257  0.00  0.00    +0.000 C 
ATOM     14  C   UNL     1      43.720   5.444  12.888  0.00  0.00    +0.000 C 
BRANCH  12  15
ATOM     15  O   UNL     1      45.374   2.933  12.553  0.00  0.00    +0.000 OA
ATOM     16  H   UNL     1      45.782   2.386  11.863  0.00  0.00    +0.000 HD
ENDBRANCH  12  15
ENDBRANCH   8   9
ENDBRANCH   5   8
ENDBRANCH   1   2
BRANCH   1  19
ATOM     17  O   UNL     1      48.486   8.572  16.315  0.00  0.00    +0.000 OA
ATOM     18  C   UNL     1      48.913   7.462  16.011  0.00  0.00    +0.000 C 
ATOM     19  N   UNL     1      49.273   7.148  14.727  0.00  0.00    +0.000 N 
ATOM     20  H   UNL     1      49.378   6.171  14.462  0.00  0.00    +0.000 HD
BRANCH  18  21
ATOM     21  C   UNL     1      49.115   6.415  17.014  0.00  0.00    +0.000 A 
ATOM     22  C   UNL     1      49.978   6.625  18.079  0.00  0.00    +0.000 A 
ATOM     23  S   UNL     1      50.065   5.300  19.152  0.00  0.00    +0.000 S 
ATOM     24  C   UNL     1      48.928   4.418  18.244  0.00  0.00    +0.000 A 
ATOM     25  N   UNL     1      48.515   3.186  18.640  0.00  0.00    +0.000 NA
ATOM     26  C   UNL     1      47.625   2.649  17.869  0.00  0.00    +0.000 A 
ATOM     27  N   UNL     1      47.124   3.228  16.734  0.00  0.00    +0.000 N 
ATOM     28  C   UNL     1      47.562   4.439  16.259  0.00  0.00    +0.000 A 
ATOM     29  O   UNL     1      47.187   4.870  15.175  0.00  0.00    +0.000 OA
ATOM     30  C   UNL     1      48.519   5.108  17.117  0.00  0.00    +0.000 A 
ATOM     31  H   UNL     1      46.458   2.738  16.153  0.00  0.00    +0.000 HD
ENDBRANCH  18  21
ENDBRANCH   1  19
TORSDOF 6
ENDMDL
MODEL 6
REMARK VINA RESULT:    -6.773      3.611      9.204
REMARK INTER + INTRA:          -9.819
REMARK INTER:                  -9.078
REMARK INTRA:                  -0.741
REMARK UNBOUND:                -0.869
REMARK  Name = 
REMARK  6 active torsions:
REMARK  status: ('A' for Active; 'I' for Inactive)
REMARK    1  A    between atoms: C_2  and  C_19
REMARK    2  A    between atoms: N_3  and  C_4
REMARK    3  A    between atoms: C_4  and  C_5
REMARK    4  A    between atoms: C_8  and  C_9
REMARK    5  A    between atoms: C_9  and  C_10
REMARK    6  A    between atoms: C_13  and  O_14
REMARK                            x       y       z     vdW  Elec       q    Type
REMARK                         _______ _______ _______ _____ _____    ______ ____
ROOT
ATOM      1  C   UNL     1      49.049   7.643  15.542  0.00  0.00    +0.000 C 
ENDROOT
BRANCH   1   2
ATOM      2  C   UNL     1      49.616   6.439  16.244  0.00  0.00    +0.000 A 
ATOM      3  C   UNL     1      50.990   6.283  16.390  0.00  0.00    +0.000 A 
ATOM      4  N   UNL     1      51.546   5.233  17.041  0.00  0.00    +0.000 NA
ATOM      5  C   UNL     1      50.679   4.318  17.539  0.00  0.00    +0.000 A 
ATOM      6  C   UNL     1      49.306   4.456  17.363  0.00  0.00    +0.000 A 
ATOM      7  N   UNL     1      48.747   5.507  16.720  0.00  0.00    +0.000 NA
BRANCH   5   8
ATOM      8  C   UNL     1      51.244   3.202  18.371  0.00  0.00    +0.000 C 
BRANCH   8   9
ATOM      9  C   UNL     1      52.584   2.601  17.894  0.00  0.00    +0.000 C 
ATOM     10  C   UNL     1      53.747   2.879  18.864  0.00  0.00    +0.000 C 
ATOM     11  C   UNL     1      55.016   2.099  18.497  0.00  0.00    +0.000 C 
ATOM     12  C   UNL     1      54.765   0.600  18.347  0.00  0.00    +0.000 C 
ATOM     13  C   UNL     1      53.644   0.331  17.348  0.00  0.00    +0.000 C 
ATOM     14  C   UNL     1      52.367   1.087  17.698  0.00  0.00    +0.000 C 
BRANCH  12  15
ATOM     15  O   UNL     1      54.452   0.012  19.607  0.00  0.00    +0.000 OA
ATOM     16  H   UNL     1      55.166   0.209  20.235  0.00  0.00    +0.000 HD
ENDBRANCH  12  15
ENDBRANCH   8   9
ENDBRANCH   5   8
ENDBRANCH   1   2
BRANCH   1  19
ATOM     17  O   UNL     1      49.044   6.467  13.012  0.00  0.00    +0.000 OA
ATOM     18  C   UNL     1      47.964   6.709  13.545  0.00  0.00    +0.000 C 
ATOM     19  N   UNL     1      47.877   7.322  14.767  0.00  0.00    +0.000 N 
ATOM     20  H   UNL     1      47.004   7.279  15.286  0.00  0.00    +0.000 HD
BRANCH  18  21
ATOM     21  C   UNL     1      46.696   6.401  12.884  0.00  0.00    +0.000 A 
ATOM     22  C   UNL     1      45.951   7.413  12.295  0.00  0.00    +0.000 A 
ATOM     23  S   UNL     1      44.515   6.857  11.558  0.00  0.00    +0.000 S 
ATOM     24  C   UNL     1      44.860   5.243  11.974  0.00  0.00    +0.000 A 
ATOM     25  N   UNL     1      44.036   4.229  11.602  0.00  0.00    +0.000 NA
ATOM     26  C   UNL     1      44.442   3.054  11.960  0.00  0.00    +0.000 A 
ATOM     27  N   UNL     1      45.588   2.805  12.667  0.00  0.00    +0.000 N 
ATOM     28  C   UNL     1      46.413   3.803  13.122  0.00  0.00    +0.000 A 
ATOM     29  O   UNL     1      47.361   3.557  13.860  0.00  0.00    +0.000 OA
ATOM     30  C   UNL     1      46.032   5.135  12.700  0.00  0.00    +0.000 A 
ATOM     31  H   UNL     1      45.830   1.866  12.950  0.00  0.00    +0.000 HD
ENDBRANCH  18  21
ENDBRANCH   1  19
TORSDOF 6
ENDMDL
MODEL 7
REMARK VINA RESULT:    -6.736      1.380      1.626
REMARK INTER + INTRA:          -9.770
REMARK INTER:                  -9.032
REMARK INTRA:                  -0.738
REMARK UNBOUND:                -0.869
REMARK  Name = 
REMARK  6 active torsions:
REMARK  status: ('A' for Active; 'I' for Inactive)
REMARK    1  A    between atoms: C_2  and  C_19
REMARK    2  A    between atoms: N_3  and  C_4
REMARK    3  A    between atoms: C_4  and  C_5
REMARK    4  A    between atoms: C_8  and  C_9
REMARK    5  A    between atoms: C_9  and  C_10
REMARK    6  A    between atoms: C_13  and  O_14
REMARK                            x       y       z     vdW  Elec       q    Type
REMARK                         _______ _______ _______ _____ _____    ______ ____
ROOT
ATOM      1  C   UNL     1      49.172   6.632  17.500  0.00  0.00    +0.000 C 
ENDROOT
BRANCH   1   2
ATOM      2  C   UNL     1      48.639   6.435  16.107  0.00  0.00    +0.000 A 
ATOM      3  C   UNL     1      48.027   5.240  15.744  0.00  0.00    +0.000 A 
ATOM      4  N   UNL     1      47.503   5.026  14.512  0.00  0.00    +0.000 NA
ATOM      5  C   UNL     1      47.623   6.050  13.632  0.00  0.00    +0.000 A 
ATOM      6  C   UNL     1      48.266   7.232  13.984  0.00  0.00    +0.000 A 
ATOM      7  N   UNL     1      48.783   7.451  15.215  0.00  0.00    +0.000 NA
BRANCH   5   8
ATOM      8  C   UNL     1      46.952   5.903  12.296  0.00  0.00    +0.000 C 
BRANCH   8   9
ATOM      9  C   UNL     1      45.604   5.149  12.285  0.00  0.00    +0.000 C 
ATOM     10  C   UNL     1      44.500   5.879  13.072  0.00  0.00    +0.000 C 
ATOM     11  C   UNL     1      43.119   5.242  12.875  0.00  0.00    +0.000 C 
ATOM     12  C   UNL     1      42.743   5.092  11.402  0.00  0.00    +0.000 C 
ATOM     13  C   UNL     1      43.819   4.325  10.639  0.00  0.00    +0.000 C 
ATOM     14  C   UNL     1      45.201   4.947  10.811  0.00  0.00    +0.000 C 
BRANCH  12  15
ATOM     15  O   UNL     1      42.530   6.368  10.803  0.00  0.00    +0.000 OA
ATOM     16  H   UNL     1      43.377   6.706  10.468  0.00  0.00    +0.000 HD
ENDBRANCH  12  15
ENDBRANCH   8   9
ENDBRANCH   5   8
ENDBRANCH   1   2
BRANCH   1  19
ATOM     17  O   UNL     1      49.377   4.352  19.095  0.00  0.00    +0.000 OA
ATOM     18  C   UNL     1      50.381   4.743  18.505  0.00  0.00    +0.000 C 
ATOM     19  N   UNL     1      50.377   5.876  17.736  0.00  0.00    +0.000 N 
ATOM     20  H   UNL     1      51.131   6.032  17.071  0.00  0.00    +0.000 HD
BRANCH  18  21
ATOM     21  C   UNL     1      51.663   4.049  18.627  0.00  0.00    +0.000 A 
ATOM     22  C   UNL     1      52.698   4.615  19.356  0.00  0.00    +0.000 A 
ATOM     23  S   UNL     1      54.104   3.649  19.402  0.00  0.00    +0.000 S 
ATOM     24  C   UNL     1      53.363   2.429  18.475  0.00  0.00    +0.000 A 
ATOM     25  N   UNL     1      54.019   1.277  18.175  0.00  0.00    +0.000 NA
ATOM     26  C   UNL     1      53.320   0.428  17.492  0.00  0.00    +0.000 A 
ATOM     27  N   UNL     1      52.033   0.635  17.073  0.00  0.00    +0.000 N 
ATOM     28  C   UNL     1      51.357   1.809  17.293  0.00  0.00    +0.000 A 
ATOM     29  O   UNL     1      50.255   2.012  16.796  0.00  0.00    +0.000 OA
ATOM     30  C   UNL     1      52.076   2.772  18.103  0.00  0.00    +0.000 A 
ATOM     31  H   UNL     1      51.555  -0.053  16.508  0.00  0.00    +0.000 HD
ENDBRANCH  18  21
ENDBRANCH   1  19
TORSDOF 6
ENDMDL
MODEL 8
REMARK VINA RESULT:    -6.631      3.342      9.656
REMARK INTER + INTRA:          -9.632
REMARK INTER:                  -9.244
REMARK INTRA:                  -0.388
REMARK UNBOUND:                -0.869
REMARK  Name = 
REMARK  6 active torsions:
REMARK  status: ('A' for Active; 'I' for Inactive)
REMARK    1  A    between atoms: C_2  and  C_19
REMARK    2  A    between atoms: N_3  and  C_4
REMARK    3  A    between atoms: C_4  and  C_5
REMARK    4  A    between atoms: C_8  and  C_9
REMARK    5  A    between atoms: C_9  and  C_10
REMARK    6  A    between atoms: C_13  and  O_14
REMARK                            x       y       z     vdW  Elec       q    Type
REMARK                         _______ _______ _______ _____ _____    ______ ____
ROOT
ATOM      1  C   UNL     1      47.571   3.719  16.471  0.00  0.00    +0.000 C 
ENDROOT
BRANCH   1   2
ATOM      2  C   UNL     1      48.721   4.335  17.221  0.00  0.00    +0.000 A 
ATOM      3  C   UNL     1      48.988   3.968  18.535  0.00  0.00    +0.000 A 
ATOM      4  N   UNL     1      50.029   4.471  19.243  0.00  0.00    +0.000 NA
ATOM      5  C   UNL     1      50.801   5.378  18.595  0.00  0.00    +0.000 A 
ATOM      6  C   UNL     1      50.513   5.771  17.292  0.00  0.00    +0.000 A 
ATOM      7  N   UNL     1      49.479   5.265  16.581  0.00  0.00    +0.000 NA
BRANCH   5   8
ATOM      8  C   UNL     1      52.035   5.870  19.297  0.00  0.00    +0.000 C 
BRANCH   8   9
ATOM      9  C   UNL     1      53.252   4.920  19.294  0.00  0.00    +0.000 C 
ATOM     10  C   UNL     1      53.227   3.907  20.453  0.00  0.00    +0.000 C 
ATOM     11  C   UNL     1      54.315   2.835  20.319  0.00  0.00    +0.000 C 
ATOM     12  C   UNL     1      54.285   2.129  18.965  0.00  0.00    +0.000 C 
ATOM     13  C   UNL     1      54.360   3.137  17.822  0.00  0.00    +0.000 C 
ATOM     14  C   UNL     1      53.279   4.208  17.927  0.00  0.00    +0.000 C 
BRANCH  12  15
ATOM     15  O   UNL     1      53.112   1.329  18.839  0.00  0.00    +0.000 OA
ATOM     16  H   UNL     1      52.953   0.866  19.678  0.00  0.00    +0.000 HD
ENDBRANCH  12  15
ENDBRANCH   8   9
ENDBRANCH   5   8
ENDBRANCH   1   2
BRANCH   1  19
ATOM     17  O   UNL     1      47.141   3.261  13.752  0.00  0.00    +0.000 OA
ATOM     18  C   UNL     1      46.754   4.323  14.233  0.00  0.00    +0.000 C 
ATOM     19  N   UNL     1      46.962   4.645  15.548  0.00  0.00    +0.000 N 
ATOM     20  H   UNL     1      46.422   5.396  15.970  0.00  0.00    +0.000 HD
BRANCH  18  21
ATOM     21  C   UNL     1      46.087   5.338  13.417  0.00  0.00    +0.000 A 
ATOM     22  C   UNL     1      46.739   6.523  13.105  0.00  0.00    +0.000 A 
ATOM     23  S   UNL     1      45.811   7.571  12.129  0.00  0.00    +0.000 S 
ATOM     24  C   UNL     1      44.521   6.461  12.066  0.00  0.00    +0.000 A 
ATOM     25  N   UNL     1      43.400   6.726  11.346  0.00  0.00    +0.000 NA
ATOM     26  C   UNL     1      42.519   5.779  11.365  0.00  0.00    +0.000 A 
ATOM     27  N   UNL     1      42.654   4.600  12.049  0.00  0.00    +0.000 N 
ATOM     28  C   UNL     1      43.738   4.320  12.843  0.00  0.00    +0.000 A 
ATOM     29  O   UNL     1      43.771   3.313  13.542  0.00  0.00    +0.000 OA
ATOM     30  C   UNL     1      44.780   5.326  12.812  0.00  0.00    +0.000 A 
ATOM     31  H   UNL     1      41.911   3.915  12.055  0.00  0.00    +0.000 HD
ENDBRANCH  18  21
ENDBRANCH   1  19
TORSDOF 6
ENDMDL
MODEL 9
REMARK VINA RESULT:    -6.621      1.768      3.036
REMARK INTER + INTRA:          -9.619
REMARK INTER:                  -9.015
REMARK INTRA:                  -0.604
REMARK UNBOUND:                -0.869
REMARK  Name = 
REMARK  6 active torsions:
REMARK  status: ('A' for Active; 'I' for Inactive)
REMARK    1  A    between atoms: C_2  and  C_19
REMARK    2  A    between atoms: N_3  and  C_4
REMARK    3  A    between atoms: C_4  and  C_5
REMARK    4  A    between atoms: C_8  and  C_9
REMARK    5  A    between atoms: C_9  and  C_10
REMARK    6  A    between atoms: C_13  and  O_14
REMARK                            x       y       z     vdW  Elec       q    Type
REMARK                         _______ _______ _______ _____ _____    ______ ____
ROOT
ATOM      1  C   UNL     1      48.238   2.909  17.303  0.00  0.00    +0.000 C 
ENDROOT
BRANCH   1   2
ATOM      2  C   UNL     1      47.816   3.670  16.076  0.00  0.00    +0.000 A 
ATOM      3  C   UNL     1      47.746   5.059  16.091  0.00  0.00    +0.000 A 
ATOM      4  N   UNL     1      47.401   5.790  15.003  0.00  0.00    +0.000 NA
ATOM      5  C   UNL     1      47.110   5.084  13.883  0.00  0.00    +0.000 A 
ATOM      6  C   UNL     1      47.146   3.693  13.878  0.00  0.00    +0.000 A 
ATOM      7  N   UNL     1      47.497   2.961  14.961  0.00  0.00    +0.000 NA
BRANCH   5   8
ATOM      8  C   UNL     1      46.841   5.856  12.623  0.00  0.00    +0.000 C 
BRANCH   8   9
ATOM      9  C   UNL     1      45.419   5.736  12.034  0.00  0.00    +0.000 C 
ATOM     10  C   UNL     1      45.353   4.812  10.804  0.00  0.00    +0.000 C 
ATOM     11  C   UNL     1      43.914   4.526  10.360  0.00  0.00    +0.000 C 
ATOM     12  C   UNL     1      43.039   4.001  11.497  0.00  0.00    +0.000 C 
ATOM     13  C   UNL     1      43.070   4.947  12.693  0.00  0.00    +0.000 C 
ATOM     14  C   UNL     1      44.493   5.237  13.160  0.00  0.00    +0.000 C 
BRANCH  12  15
ATOM     15  O   UNL     1      43.454   2.696  11.891  0.00  0.00    +0.000 OA
ATOM     16  H   UNL     1      43.453   2.114  11.114  0.00  0.00    +0.000 HD
ENDBRANCH  12  15
ENDBRANCH   8   9
ENDBRANCH   5   8
ENDBRANCH   1   2
BRANCH   1  19
ATOM     17  O   UNL     1      50.574   1.599  16.520  0.00  0.00    +0.000 OA
ATOM     18  C   UNL     1      50.673   2.575  17.259  0.00  0.00    +0.000 C 
ATOM     19  N   UNL     1      49.575   3.249  17.724  0.00  0.00    +0.000 N 
ATOM     20  H   UNL     1      49.690   4.181  18.115  0.00  0.00    +0.000 HD
BRANCH  18  21
ATOM     21  C   UNL     1      51.973   3.050  17.733  0.00  0.00    +0.000 A 
ATOM     22  C   UNL     1      52.846   2.179  18.368  0.00  0.00    +0.000 A 
ATOM     23  S   UNL     1      54.317   2.911  18.829  0.00  0.00    +0.000 S 
ATOM     24  C   UNL     1      53.846   4.406  18.167  0.00  0.00    +0.000 A 
ATOM     25  N   UNL     1      54.679   5.480  18.190  0.00  0.00    +0.000 NA
ATOM     26  C   UNL     1      54.199   6.538  17.622  0.00  0.00    +0.000 A 
ATOM     27  N   UNL     1      52.959   6.622  17.048  0.00  0.00    +0.000 N 
ATOM     28  C   UNL     1      52.059   5.586  17.063  0.00  0.00    +0.000 A 
ATOM     29  O   UNL     1      50.913   5.732  16.655  0.00  0.00    +0.000 OA
ATOM     30  C   UNL     1      52.569   4.358  17.639  0.00  0.00    +0.000 A 
ATOM     31  H   UNL     1      52.627   7.492  16.654  0.00  0.00    +0.000 HD
ENDBRANCH  18  21
ENDBRANCH   1  19
TORSDOF 6
ENDMDL
