MODEL 1
REMARK VINA RESULT:    -6.676      0.000      0.000
REMARK INTER + INTRA:         -12.140
REMARK INTER:                 -10.384
REMARK INTRA:                  -1.756
REMARK UNBOUND:                -1.756
REMARK  Name = 
REMARK  11 active torsions:
REMARK  status: ('A' for Active; 'I' for Inactive)
REMARK    1  A    between atoms: N_1  and  C_2
REMARK    2  A    between atoms: C_2  and  C_3
REMARK    3  A    between atoms: N_7  and  C_8
REMARK    4  A    between atoms: C_8  and  C_9
REMARK    5  A    between atoms: C_9  and  O_10
REMARK    6  A    between atoms: C_9  and  C_11
REMARK    7  A    between atoms: C_14  and  C_15
REMARK    8  A    between atoms: C_15  and  C_16
REMARK    9  A    between atoms: C_16  and  N_17
REMARK   10  A    between atoms: C_16  and  C_18
REMARK   11  A    between atoms: C_18  and  C_20
REMARK                            x       y       z     vdW  Elec       q    Type
REMARK                         _______ _______ _______ _____ _____    ______ ____
ROOT
ATOM      1  C   UNL     1      46.523   7.567  12.089  0.00  0.00    +0.000 A 
ATOM      2  C   UNL     1      47.782   7.053  11.752  0.00  0.00    +0.000 A 
ATOM      3  C   UNL     1      48.918   7.422  12.474  0.00  0.00    +0.000 A 
ATOM      4  C   UNL     1      48.828   8.349  13.521  0.00  0.00    +0.000 A 
ATOM      5  C   UNL     1      47.573   8.873  13.853  0.00  0.00    +0.000 A 
ATOM      6  C   UNL     1      46.431   8.474  13.154  0.00  0.00    +0.000 A 
ENDROOT
BRANCH   1   7
ATOM      7  C   UNL     1      45.297   7.110  11.315  0.00  0.00    +0.000 C 
BRANCH   7   8
ATOM      8  O   UNL     1      44.126   7.467  12.049  0.00  0.00    +0.000 OA
ATOM      9  H   UNL     1      44.193   7.067  12.925  0.00  0.00    +0.000 HD
ENDBRANCH   7   8
BRANCH   7  10
ATOM     10  C   UNL     1      45.386   5.573  10.970  0.00  0.00    +0.000 C 
BRANCH  10  15
ATOM     11  C   UNL     1      43.468   3.958  11.361  0.00  0.00    +0.000 C 
ATOM     12  C   UNL     1      44.118   2.622  11.020  0.00  0.00    +0.000 C 
ATOM     13  C   UNL     1      44.250   2.690   9.519  0.00  0.00    +0.000 C 
ATOM     14  C   UNL     1      44.461   4.168   9.222  0.00  0.00    +0.000 C 
ATOM     15  N   UNL     1      44.158   4.931  10.457  0.00  0.00    +0.000 NA
BRANCH  11  16
ATOM     16  C   UNL     1      43.363   4.150  12.900  0.00  0.00    +0.000 C 
BRANCH  16  17
ATOM     17  N   UNL     1      42.620   5.370  13.275  0.00  0.00    +0.000 NA
ATOM     18  H   UNL     1      42.645   6.061  12.526  0.00  0.00    +0.000 HD
ATOM     19  H   UNL     1      42.995   5.823  14.107  0.00  0.00    +0.000 HD
ENDBRANCH  16  17
ENDBRANCH  11  16
ENDBRANCH  10  15
ENDBRANCH   7  10
ENDBRANCH   1   7
BRANCH   4  20
ATOM     20  C   UNL     1      50.059   8.791  14.287  0.00  0.00    +0.000 C 
BRANCH  20  21
ATOM     21  C   UNL     1      50.626   7.694  15.209  0.00  0.00    +0.000 C 
BRANCH  21  22
ATOM     22  N   UNL     1      52.075   7.904  15.476  0.00  0.00    +0.000 NA
ATOM     23  H   UNL     1      52.563   8.126  14.610  0.00  0.00    +0.000 HD
ATOM     24  H   UNL     1      52.486   7.023  15.799  0.00  0.00    +0.000 HD
ENDBRANCH  21  22
BRANCH  21  25
ATOM     25  C   UNL     1      49.816   7.566  16.540  0.00  0.00    +0.000 C 
ATOM     26  O   UNL     1      49.199   8.510  16.992  0.00  0.00    +0.000 OA
BRANCH  25  27
ATOM     27  C   UNL     1      49.850   6.245  17.227  0.00  0.00    +0.000 A 
ATOM     28  C   UNL     1      50.797   5.941  18.185  0.00  0.00    +0.000 A 
ATOM     29  S   UNL     1      50.559   4.432  18.937  0.00  0.00    +0.000 S 
ATOM     30  C   UNL     1      49.180   4.133  17.994  0.00  0.00    +0.000 A 
ATOM     31  N   UNL     1      48.436   3.007  18.180  0.00  0.00    +0.000 NA
ATOM     32  C   UNL     1      47.354   2.975  17.474  0.00  0.00    +0.000 A 
ATOM     33  N   UNL     1      46.973   3.935  16.574  0.00  0.00    +0.000 N 
ATOM     34  C   UNL     1      47.881   4.874  16.120  0.00  0.00    +0.000 A 
ATOM     35  O   UNL     1      47.834   5.283  14.972  0.00  0.00    +0.000 OA
ATOM     36  C   UNL     1      48.959   5.126  17.056  0.00  0.00    +0.000 A 
ATOM     37  H   UNL     1      46.199   3.750  15.954  0.00  0.00    +0.000 HD
ENDBRANCH  25  27
ENDBRANCH  21  25
ENDBRANCH  20  21
ENDBRANCH   4  20
TORSDOF 11
ENDMDL
MODEL 2
REMARK VINA RESULT:    -6.668      2.634      7.697
REMARK INTER + INTRA:         -12.128
REMARK INTER:                 -10.492
REMARK INTRA:                  -1.636
REMARK UNBOUND:                -1.756
REMARK  Name = 
REMARK  11 active torsions:
REMARK  status: ('A' for Active; 'I' for Inactive)
REMARK    1  A    between atoms: N_1  and  C_2
REMARK    2  A    between atoms: C_2  and  C_3
REMARK    3  A    between atoms: N_7  and  C_8
REMARK    4  A    between atoms: C_8  and  C_9
REMARK    5  A    between atoms: C_9  and  O_10
REMARK    6  A    between atoms: C_9  and  C_11
REMARK    7  A    between atoms: C_14  and  C_15
REMARK    8  A    between atoms: C_15  and  C_16
REMARK    9  A    between atoms: C_16  and  N_17
REMARK   10  A    between atoms: C_16  and  C_18
REMARK   11  A    between atoms: C_18  and  C_20
REMARK                            x       y       z     vdW  Elec       q    Type
REMARK                         _______ _______ _______ _____ _____    ______ ____
ROOT
ATOM      1  C   UNL     1      49.493   6.637  15.462  0.00  0.00    +0.000 A 
ATOM      2  C   UNL     1      48.342   5.841  15.382  0.00  0.00    +0.000 A 
ATOM      3  C   UNL     1      47.469   5.959  14.299  0.00  0.00    +0.000 A 
ATOM      4  C   UNL     1      47.702   6.908  13.295  0.00  0.00    +0.000 A 
ATOM      5  C   UNL     1      48.844   7.712  13.378  0.00  0.00    +0.000 A 
ATOM      6  C   UNL     1      49.737   7.568  14.442  0.00  0.00    +0.000 A 
ENDROOT
BRANCH   1   7
ATOM      7  C   UNL     1      50.449   6.453  16.628  0.00  0.00    +0.000 C 
BRANCH   7   8
ATOM      8  O   UNL     1      51.782   6.692  16.177  0.00  0.00    +0.000 OA
ATOM      9  H   UNL     1      52.277   5.869  16.268  0.00  0.00    +0.000 HD
ENDBRANCH   7   8
BRANCH   7  10
ATOM     10  C   UNL     1      50.253   5.042  17.305  0.00  0.00    +0.000 C 
BRANCH  10  15
ATOM     11  C   UNL     1      48.396   4.343  18.887  0.00  0.00    +0.000 C 
ATOM     12  C   UNL     1      47.371   5.449  18.664  0.00  0.00    +0.000 C 
ATOM     13  C   UNL     1      48.012   6.637  19.339  0.00  0.00    +0.000 C 
ATOM     14  C   UNL     1      49.507   6.416  19.159  0.00  0.00    +0.000 C 
ATOM     15  N   UNL     1      49.710   5.028  18.679  0.00  0.00    +0.000 NA
BRANCH  11  16
ATOM     16  C   UNL     1      47.984   3.044  18.141  0.00  0.00    +0.000 C 
BRANCH  16  17
ATOM     17  N   UNL     1      46.623   3.117  17.573  0.00  0.00    +0.000 NA
ATOM     18  H   UNL     1      46.230   4.052  17.679  0.00  0.00    +0.000 HD
ATOM     19  H   UNL     1      45.971   2.472  18.018  0.00  0.00    +0.000 HD
ENDBRANCH  16  17
ENDBRANCH  11  16
ENDBRANCH  10  15
ENDBRANCH   7  10
ENDBRANCH   1   7
BRANCH   4  20
ATOM     20  C   UNL     1      46.741   7.076  12.135  0.00  0.00    +0.000 C 
BRANCH  20  21
ATOM     21  C   UNL     1      45.297   7.377  12.581  0.00  0.00    +0.000 C 
BRANCH  21  22
ATOM     22  N   UNL     1      45.085   8.836  12.786  0.00  0.00    +0.000 NA
ATOM     23  H   UNL     1      45.978   9.325  12.777  0.00  0.00    +0.000 HD
ATOM     24  H   UNL     1      44.704   8.988  13.724  0.00  0.00    +0.000 HD
ENDBRANCH  21  22
BRANCH  21  25
ATOM     25  C   UNL     1      44.240   6.782  11.594  0.00  0.00    +0.000 C 
ATOM     26  O   UNL     1      43.499   7.505  10.959  0.00  0.00    +0.000 OA
BRANCH  25  27
ATOM     27  C   UNL     1      44.179   5.298  11.486  0.00  0.00    +0.000 A 
ATOM     28  C   UNL     1      43.642   4.511  12.486  0.00  0.00    +0.000 A 
ATOM     29  S   UNL     1      43.546   2.859  12.087  0.00  0.00    +0.000 S 
ATOM     30  C   UNL     1      44.229   3.145  10.560  0.00  0.00    +0.000 A 
ATOM     31  N   UNL     1      44.377   2.133   9.659  0.00  0.00    +0.000 NA
ATOM     32  C   UNL     1      44.800   2.524   8.502  0.00  0.00    +0.000 A 
ATOM     33  N   UNL     1      45.130   3.814   8.179  0.00  0.00    +0.000 N 
ATOM     34  C   UNL     1      45.331   4.758   9.170  0.00  0.00    +0.000 A 
ATOM     35  O   UNL     1      46.174   5.629   9.039  0.00  0.00    +0.000 OA
ATOM     36  C   UNL     1      44.611   4.464  10.394  0.00  0.00    +0.000 A 
ATOM     37  H   UNL     1      45.601   3.998   7.307  0.00  0.00    +0.000 HD
ENDBRANCH  25  27
ENDBRANCH  21  25
ENDBRANCH  20  21
ENDBRANCH   4  20
TORSDOF 11
ENDMDL
MODEL 3
REMARK VINA RESULT:    -6.655      2.431      3.075
REMARK INTER + INTRA:         -12.107
REMARK INTER:                 -11.414
REMARK INTRA:                  -0.694
REMARK UNBOUND:                -1.756
REMARK  Name = 
REMARK  11 active torsions:
REMARK  status: ('A' for Active; 'I' for Inactive)
REMARK    1  A    between atoms: N_1  and  C_2
REMARK    2  A    between atoms: C_2  and  C_3
REMARK    3  A    between atoms: N_7  and  C_8
REMARK    4  A    between atoms: C_8  and  C_9
REMARK    5  A    between atoms: C_9  and  O_10
REMARK    6  A    between atoms: C_9  and  C_11
REMARK    7  A    between atoms: C_14  and  C_15
REMARK    8  A    between atoms: C_15  and  C_16
REMARK    9  A    between atoms: C_16  and  N_17
REMARK   10  A    between atoms: C_16  and  C_18
REMARK   11  A    between atoms: C_18  and  C_20
REMARK                            x       y       z     vdW  Elec       q    Type
REMARK                         _______ _______ _______ _____ _____    ______ ____
ROOT
ATOM      1  C   UNL     1      46.618   6.487  13.154  0.00  0.00    +0.000 A 
ATOM      2  C   UNL     1      46.967   5.354  13.902  0.00  0.00    +0.000 A 
ATOM      3  C   UNL     1      47.950   5.429  14.890  0.00  0.00    +0.000 A 
ATOM      4  C   UNL     1      48.641   6.627  15.120  0.00  0.00    +0.000 A 
ATOM      5  C   UNL     1      48.302   7.757  14.367  0.00  0.00    +0.000 A 
ATOM      6  C   UNL     1      47.291   7.691  13.406  0.00  0.00    +0.000 A 
ENDROOT
BRANCH   1   7
ATOM      7  C   UNL     1      45.510   6.387  12.119  0.00  0.00    +0.000 C 
BRANCH   7   8
ATOM      8  O   UNL     1      44.248   6.414  12.785  0.00  0.00    +0.000 OA
ATOM      9  H   UNL     1      44.127   5.563  13.224  0.00  0.00    +0.000 HD
ENDBRANCH   7   8
BRANCH   7  10
ATOM     10  C   UNL     1      45.712   5.124  11.195  0.00  0.00    +0.000 C 
BRANCH  10  15
ATOM     11  C   UNL     1      43.814   3.671  10.343  0.00  0.00    +0.000 C 
ATOM     12  C   UNL     1      44.574   2.567   9.617  0.00  0.00    +0.000 C 
ATOM     13  C   UNL     1      45.089   3.271   8.387  0.00  0.00    +0.000 C 
ATOM     14  C   UNL     1      45.320   4.706   8.838  0.00  0.00    +0.000 C 
ATOM     15  N   UNL     1      44.682   4.877  10.165  0.00  0.00    +0.000 NA
BRANCH  11  16
ATOM     16  C   UNL     1      43.307   3.181  11.728  0.00  0.00    +0.000 C 
BRANCH  16  17
ATOM     17  N   UNL     1      42.956   1.747  11.734  0.00  0.00    +0.000 NA
ATOM     18  H   UNL     1      43.784   1.166  11.864  0.00  0.00    +0.000 HD
ATOM     19  H   UNL     1      42.516   1.442  10.868  0.00  0.00    +0.000 HD
ENDBRANCH  16  17
ENDBRANCH  11  16
ENDBRANCH  10  15
ENDBRANCH   7  10
ENDBRANCH   1   7
BRANCH   4  20
ATOM     20  C   UNL     1      49.740   6.712  16.161  0.00  0.00    +0.000 C 
BRANCH  20  21
ATOM     21  C   UNL     1      49.252   6.392  17.587  0.00  0.00    +0.000 C 
BRANCH  21  22
ATOM     22  N   UNL     1      47.846   6.834  17.793  0.00  0.00    +0.000 NA
ATOM     23  H   UNL     1      47.592   7.532  17.097  0.00  0.00    +0.000 HD
ATOM     24  H   UNL     1      47.776   7.314  18.695  0.00  0.00    +0.000 HD
ENDBRANCH  21  22
BRANCH  21  25
ATOM     25  C   UNL     1      49.431   4.881  17.945  0.00  0.00    +0.000 C 
ATOM     26  O   UNL     1      48.470   4.161  18.128  0.00  0.00    +0.000 OA
BRANCH  25  27
ATOM     27  C   UNL     1      50.828   4.376  18.063  0.00  0.00    +0.000 A 
ATOM     28  C   UNL     1      51.850   5.158  18.565  0.00  0.00    +0.000 A 
ATOM     29  S   UNL     1      53.328   4.332  18.741  0.00  0.00    +0.000 S 
ATOM     30  C   UNL     1      52.646   2.898  18.142  0.00  0.00    +0.000 A 
ATOM     31  N   UNL     1      53.374   1.748  18.084  0.00  0.00    +0.000 NA
ATOM     32  C   UNL     1      52.689   0.715  17.719  0.00  0.00    +0.000 A 
ATOM     33  N   UNL     1      51.365   0.734  17.366  0.00  0.00    +0.000 N 
ATOM     34  C   UNL     1      50.732   1.928  17.073  0.00  0.00    +0.000 A 
ATOM     35  O   UNL     1      49.872   1.983  16.210  0.00  0.00    +0.000 OA
ATOM     36  C   UNL     1      51.338   3.072  17.727  0.00  0.00    +0.000 A 
ATOM     37  H   UNL     1      50.956  -0.085  16.942  0.00  0.00    +0.000 HD
ENDBRANCH  25  27
ENDBRANCH  21  25
ENDBRANCH  20  21
ENDBRANCH   4  20
TORSDOF 11
ENDMDL
MODEL 4
REMARK VINA RESULT:    -6.630      2.966      8.197
REMARK INTER + INTRA:         -12.069
REMARK INTER:                 -11.115
REMARK INTRA:                  -0.954
REMARK UNBOUND:                -1.756
REMARK  Name = 
REMARK  11 active torsions:
REMARK  status: ('A' for Active; 'I' for Inactive)
REMARK    1  A    between atoms: N_1  and  C_2
REMARK    2  A    between atoms: C_2  and  C_3
REMARK    3  A    between atoms: N_7  and  C_8
REMARK    4  A    between atoms: C_8  and  C_9
REMARK    5  A    between atoms: C_9  and  O_10
REMARK    6  A    between atoms: C_9  and  C_11
REMARK    7  A    between atoms: C_14  and  C_15
REMARK    8  A    between atoms: C_15  and  C_16
REMARK    9  A    between atoms: C_16  and  N_17
REMARK   10  A    between atoms: C_16  and  C_18
REMARK   11  A    between atoms: C_18  and  C_20
REMARK                            x       y       z     vdW  Elec       q    Type
REMARK                         _______ _______ _______ _____ _____    ______ ____
ROOT
ATOM      1  C   UNL     1      48.207   4.674  16.577  0.00  0.00    +0.000 A 
ATOM      2  C   UNL     1      47.347   3.977  15.718  0.00  0.00    +0.000 A 
ATOM      3  C   UNL     1      46.980   4.518  14.485  0.00  0.00    +0.000 A 
ATOM      4  C   UNL     1      47.427   5.790  14.103  0.00  0.00    +0.000 A 
ATOM      5  C   UNL     1      48.278   6.493  14.963  0.00  0.00    +0.000 A 
ATOM      6  C   UNL     1      48.675   5.935  16.180  0.00  0.00    +0.000 A 
ENDROOT
BRANCH   1   7
ATOM      7  C   UNL     1      48.627   4.039  17.892  0.00  0.00    +0.000 C 
BRANCH   7   8
ATOM      8  O   UNL     1      47.639   4.325  18.882  0.00  0.00    +0.000 OA
ATOM      9  H   UNL     1      47.556   5.285  18.947  0.00  0.00    +0.000 HD
ENDBRANCH   7   8
BRANCH   7  10
ATOM     10  C   UNL     1      50.083   4.492  18.300  0.00  0.00    +0.000 C 
BRANCH  10  15
ATOM     11  C   UNL     1      51.703   2.826  17.282  0.00  0.00    +0.000 C 
ATOM     12  C   UNL     1      52.838   2.840  18.299  0.00  0.00    +0.000 C 
ATOM     13  C   UNL     1      53.482   4.183  18.060  0.00  0.00    +0.000 C 
ATOM     14  C   UNL     1      52.335   5.082  17.620  0.00  0.00    +0.000 C 
ATOM     15  N   UNL     1      51.163   4.221  17.330  0.00  0.00    +0.000 NA
BRANCH  11  16
ATOM     16  C   UNL     1      50.816   1.561  17.455  0.00  0.00    +0.000 C 
BRANCH  16  17
ATOM     17  N   UNL     1      51.554   0.419  18.031  0.00  0.00    +0.000 NA
ATOM     18  H   UNL     1      52.330   0.737  18.611  0.00  0.00    +0.000 HD
ATOM     19  H   UNL     1      51.950  -0.196  17.322  0.00  0.00    +0.000 HD
ENDBRANCH  16  17
ENDBRANCH  11  16
ENDBRANCH  10  15
ENDBRANCH   7  10
ENDBRANCH   1   7
BRANCH   4  20
ATOM     20  C   UNL     1      47.004   6.408  12.785  0.00  0.00    +0.000 C 
BRANCH  20  21
ATOM     21  C   UNL     1      45.702   7.226  12.888  0.00  0.00    +0.000 C 
BRANCH  21  22
ATOM     22  N   UNL     1      45.972   8.688  12.826  0.00  0.00    +0.000 NA
ATOM     23  H   UNL     1      45.097   9.209  12.863  0.00  0.00    +0.000 HD
ATOM     24  H   UNL     1      46.382   8.913  11.915  0.00  0.00    +0.000 HD
ENDBRANCH  21  22
BRANCH  21  25
ATOM     25  C   UNL     1      44.650   6.796  11.814  0.00  0.00    +0.000 C 
ATOM     26  O   UNL     1      44.041   7.623  11.166  0.00  0.00    +0.000 OA
BRANCH  25  27
ATOM     27  C   UNL     1      44.424   5.334  11.639  0.00  0.00    +0.000 A 
ATOM     28  C   UNL     1      43.874   4.552  12.636  0.00  0.00    +0.000 A 
ATOM     29  S   UNL     1      43.576   2.943  12.166  0.00  0.00    +0.000 S 
ATOM     30  C   UNL     1      44.183   3.242  10.609  0.00  0.00    +0.000 A 
ATOM     31  N   UNL     1      44.161   2.272   9.652  0.00  0.00    +0.000 NA
ATOM     32  C   UNL     1      44.545   2.680   8.488  0.00  0.00    +0.000 A 
ATOM     33  N   UNL     1      44.988   3.945   8.205  0.00  0.00    +0.000 N 
ATOM     34  C   UNL     1      45.354   4.807   9.222  0.00  0.00    +0.000 A 
ATOM     35  O   UNL     1      46.275   5.593   9.073  0.00  0.00    +0.000 OA
ATOM     36  C   UNL     1      44.690   4.522  10.480  0.00  0.00    +0.000 A 
ATOM     37  H   UNL     1      45.417   4.129   7.311  0.00  0.00    +0.000 HD
ENDBRANCH  25  27
ENDBRANCH  21  25
ENDBRANCH  20  21
ENDBRANCH   4  20
TORSDOF 11
ENDMDL
MODEL 5
REMARK VINA RESULT:    -6.545      1.824      2.340
REMARK INTER + INTRA:         -11.936
REMARK INTER:                 -10.453
REMARK INTRA:                  -1.483
REMARK UNBOUND:                -1.756
REMARK  Name = 
REMARK  11 active torsions:
REMARK  status: ('A' for Active; 'I' for Inactive)
REMARK    1  A    between atoms: N_1  and  C_2
REMARK    2  A    between atoms: C_2  and  C_3
REMARK    3  A    between atoms: N_7  and  C_8
REMARK    4  A    between atoms: C_8  and  C_9
REMARK    5  A    between atoms: C_9  and  O_10
REMARK    6  A    between atoms: C_9  and  C_11
REMARK    7  A    between atoms: C_14  and  C_15
REMARK    8  A    between atoms: C_15  and  C_16
REMARK    9  A    between atoms: C_16  and  N_17
REMARK   10  A    between atoms: C_16  and  C_18
REMARK   11  A    between atoms: C_18  and  C_20
REMARK                            x       y       z     vdW  Elec       q    Type
REMARK                         _______ _______ _______ _____ _____    ______ ____
ROOT
ATOM      1  C   UNL     1      46.418   7.172  12.377  0.00  0.00    +0.000 A 
ATOM      2  C   UNL     1      47.579   6.399  12.509  0.00  0.00    +0.000 A 
ATOM      3  C   UNL     1      48.579   6.765  13.411  0.00  0.00    +0.000 A 
ATOM      4  C   UNL     1      48.463   7.939  14.168  0.00  0.00    +0.000 A 
ATOM      5  C   UNL     1      47.309   8.719  14.030  0.00  0.00    +0.000 A 
ATOM      6  C   UNL     1      46.291   8.331  13.156  0.00  0.00    +0.000 A 
ENDROOT
BRANCH   1   7
ATOM      7  C   UNL     1      45.325   6.722  11.422  0.00  0.00    +0.000 C 
BRANCH   7   8
ATOM      8  O   UNL     1      44.070   6.762  12.101  0.00  0.00    +0.000 OA
ATOM      9  H   UNL     1      43.387   6.957  11.448  0.00  0.00    +0.000 HD
ENDBRANCH   7   8
BRANCH   7  10
ATOM     10  C   UNL     1      45.663   5.314  10.797  0.00  0.00    +0.000 C 
BRANCH  10  15
ATOM     11  C   UNL     1      43.961   3.564  10.107  0.00  0.00    +0.000 C 
ATOM     12  C   UNL     1      44.862   2.428   9.634  0.00  0.00    +0.000 C 
ATOM     13  C   UNL     1      45.406   2.957   8.330  0.00  0.00    +0.000 C 
ATOM     14  C   UNL     1      45.483   4.463   8.532  0.00  0.00    +0.000 C 
ATOM     15  N   UNL     1      44.736   4.798   9.769  0.00  0.00    +0.000 NA
BRANCH  11  16
ATOM     16  C   UNL     1      43.396   3.272  11.525  0.00  0.00    +0.000 C 
BRANCH  16  17
ATOM     17  N   UNL     1      42.978   1.866  11.696  0.00  0.00    +0.000 NA
ATOM     18  H   UNL     1      43.228   1.518  12.621  0.00  0.00    +0.000 HD
ATOM     19  H   UNL     1      43.408   1.239  11.019  0.00  0.00    +0.000 HD
ENDBRANCH  16  17
ENDBRANCH  11  16
ENDBRANCH  10  15
ENDBRANCH   7  10
ENDBRANCH   1   7
BRANCH   4  20
ATOM     20  C   UNL     1      49.559   8.371  15.121  0.00  0.00    +0.000 C 
BRANCH  20  21
ATOM     21  C   UNL     1      50.178   7.199  15.907  0.00  0.00    +0.000 C 
BRANCH  21  22
ATOM     22  N   UNL     1      51.490   7.574  16.499  0.00  0.00    +0.000 NA
ATOM     23  H   UNL     1      51.988   8.210  15.877  0.00  0.00    +0.000 HD
ATOM     24  H   UNL     1      52.080   6.740  16.560  0.00  0.00    +0.000 HD
ENDBRANCH  21  22
BRANCH  21  25
ATOM     25  C   UNL     1      49.204   6.638  16.993  0.00  0.00    +0.000 C 
ATOM     26  O   UNL     1      48.633   7.380  17.767  0.00  0.00    +0.000 OA
BRANCH  25  27
ATOM     27  C   UNL     1      49.023   5.160  17.039  0.00  0.00    +0.000 A 
ATOM     28  C   UNL     1      47.825   4.557  16.710  0.00  0.00    +0.000 A 
ATOM     29  S   UNL     1      47.889   2.856  16.695  0.00  0.00    +0.000 S 
ATOM     30  C   UNL     1      49.528   2.873  17.138  0.00  0.00    +0.000 A 
ATOM     31  N   UNL     1      50.236   1.713  17.243  0.00  0.00    +0.000 NA
ATOM     32  C   UNL     1      51.496   1.891  17.471  0.00  0.00    +0.000 A 
ATOM     33  N   UNL     1      52.099   3.108  17.646  0.00  0.00    +0.000 N 
ATOM     34  C   UNL     1      51.344   4.238  17.903  0.00  0.00    +0.000 A 
ATOM     35  O   UNL     1      51.760   5.111  18.646  0.00  0.00    +0.000 OA
ATOM     36  C   UNL     1      49.993   4.152  17.384  0.00  0.00    +0.000 A 
ATOM     37  H   UNL     1      53.051   3.143  17.978  0.00  0.00    +0.000 HD
ENDBRANCH  25  27
ENDBRANCH  21  25
ENDBRANCH  20  21
ENDBRANCH   4  20
TORSDOF 11
ENDMDL
MODEL 6
REMARK VINA RESULT:    -6.522      3.036      4.328
REMARK INTER + INTRA:         -11.900
REMARK INTER:                 -10.762
REMARK INTRA:                  -1.138
REMARK UNBOUND:                -1.756
REMARK  Name = 
REMARK  11 active torsions:
REMARK  status: ('A' for Active; 'I' for Inactive)
REMARK    1  A    between atoms: N_1  and  C_2
REMARK    2  A    between atoms: C_2  and  C_3
REMARK    3  A    between atoms: N_7  and  C_8
REMARK    4  A    between atoms: C_8  and  C_9
REMARK    5  A    between atoms: C_9  and  O_10
REMARK    6  A    between atoms: C_9  and  C_11
REMARK    7  A    between atoms: C_14  and  C_15
REMARK    8  A    between atoms: C_15  and  C_16
REMARK    9  A    between atoms: C_16  and  N_17
REMARK   10  A    between atoms: C_16  and  C_18
REMARK   11  A    between atoms: C_18  and  C_20
REMARK                            x       y       z     vdW  Elec       q    Type
REMARK                         _______ _______ _______ _____ _____    ______ ____
ROOT
ATOM      1  C   UNL     1      45.087   4.664   9.901  0.00  0.00    +0.000 A 
ATOM      2  C   UNL     1      45.891   5.811   9.892  0.00  0.00    +0.000 A 
ATOM      3  C   UNL     1      46.185   6.485  11.079  0.00  0.00    +0.000 A 
ATOM      4  C   UNL     1      45.642   6.054  12.297  0.00  0.00    +0.000 A 
ATOM      5  C   UNL     1      44.829   4.915  12.308  0.00  0.00    +0.000 A 
ATOM      6  C   UNL     1      44.567   4.219  11.125  0.00  0.00    +0.000 A 
ENDROOT
BRANCH   1   7
ATOM      7  C   UNL     1      44.824   3.925   8.600  0.00  0.00    +0.000 C 
BRANCH   7   8
ATOM      8  O   UNL     1      44.123   2.715   8.888  0.00  0.00    +0.000 OA
ATOM      9  H   UNL     1      43.238   2.789   8.509  0.00  0.00    +0.000 HD
ENDBRANCH   7   8
BRANCH   7  10
ATOM     10  C   UNL     1      46.162   3.706   7.793  0.00  0.00    +0.000 C 
BRANCH  10  15
ATOM     11  C   UNL     1      46.634   1.478   6.675  0.00  0.00    +0.000 C 
ATOM     12  C   UNL     1      48.095   1.641   6.271  0.00  0.00    +0.000 C 
ATOM     13  C   UNL     1      48.016   2.624   5.130  0.00  0.00    +0.000 C 
ATOM     14  C   UNL     1      46.823   3.505   5.468  0.00  0.00    +0.000 C 
ATOM     15  N   UNL     1      46.081   2.865   6.581  0.00  0.00    +0.000 NA
BRANCH  11  16
ATOM     16  C   UNL     1      46.503   0.592   7.945  0.00  0.00    +0.000 C 
BRANCH  16  17
ATOM     17  N   UNL     1      46.848  -0.822   7.694  0.00  0.00    +0.000 NA
ATOM     18  H   UNL     1      47.486  -0.911   6.903  0.00  0.00    +0.000 HD
ATOM     19  H   UNL     1      46.035  -1.398   7.482  0.00  0.00    +0.000 HD
ENDBRANCH  16  17
ENDBRANCH  11  16
ENDBRANCH  10  15
ENDBRANCH   7  10
ENDBRANCH   1   7
BRANCH   4  20
ATOM     20  C   UNL     1      45.918   6.799  13.588  0.00  0.00    +0.000 C 
BRANCH  20  21
ATOM     21  C   UNL     1      47.184   7.675  13.524  0.00  0.00    +0.000 C 
BRANCH  21  22
ATOM     22  N   UNL     1      47.081   8.845  14.439  0.00  0.00    +0.000 NA
ATOM     23  H   UNL     1      47.885   8.874  15.064  0.00  0.00    +0.000 HD
ATOM     24  H   UNL     1      46.269   8.720  15.049  0.00  0.00    +0.000 HD
ENDBRANCH  21  22
BRANCH  21  25
ATOM     25  C   UNL     1      48.484   6.852  13.797  0.00  0.00    +0.000 C 
ATOM     26  O   UNL     1      49.244   6.563  12.896  0.00  0.00    +0.000 OA
BRANCH  25  27
ATOM     27  C   UNL     1      48.733   6.431  15.205  0.00  0.00    +0.000 A 
ATOM     28  C   UNL     1      49.497   7.187  16.072  0.00  0.00    +0.000 A 
ATOM     29  S   UNL     1      49.529   6.589  17.665  0.00  0.00    +0.000 S 
ATOM     30  C   UNL     1      48.523   5.289  17.241  0.00  0.00    +0.000 A 
ATOM     31  N   UNL     1      48.097   4.399  18.181  0.00  0.00    +0.000 NA
ATOM     32  C   UNL     1      47.245   3.536  17.733  0.00  0.00    +0.000 A 
ATOM     33  N   UNL     1      46.817   3.455  16.434  0.00  0.00    +0.000 N 
ATOM     34  C   UNL     1      47.507   4.101  15.424  0.00  0.00    +0.000 A 
ATOM     35  O   UNL     1      47.597   3.605  14.314  0.00  0.00    +0.000 OA
ATOM     36  C   UNL     1      48.244   5.261  15.887  0.00  0.00    +0.000 A 
ATOM     37  H   UNL     1      46.278   2.654  16.142  0.00  0.00    +0.000 HD
ENDBRANCH  25  27
ENDBRANCH  21  25
ENDBRANCH  20  21
ENDBRANCH   4  20
TORSDOF 11
ENDMDL
MODEL 7
REMARK VINA RESULT:    -6.519      3.013      8.003
REMARK INTER + INTRA:         -11.896
REMARK INTER:                 -10.322
REMARK INTRA:                  -1.574
REMARK UNBOUND:                -1.756
REMARK  Name = 
REMARK  11 active torsions:
REMARK  status: ('A' for Active; 'I' for Inactive)
REMARK    1  A    between atoms: N_1  and  C_2
REMARK    2  A    between atoms: C_2  and  C_3
REMARK    3  A    between atoms: N_7  and  C_8
REMARK    4  A    between atoms: C_8  and  C_9
REMARK    5  A    between atoms: C_9  and  O_10
REMARK    6  A    between atoms: C_9  and  C_11
REMARK    7  A    between atoms: C_14  and  C_15
REMARK    8  A    between atoms: C_15  and  C_16
REMARK    9  A    between atoms: C_16  and  N_17
REMARK   10  A    between atoms: C_16  and  C_18
REMARK   11  A    between atoms: C_18  and  C_20
REMARK                            x       y       z     vdW  Elec       q    Type
REMARK                         _______ _______ _______ _____ _____    ______ ____
ROOT
ATOM      1  C   UNL     1      47.723   4.363  16.115  0.00  0.00    +0.000 A 
ATOM      2  C   UNL     1      47.032   3.748  15.062  0.00  0.00    +0.000 A 
ATOM      3  C   UNL     1      46.833   4.418  13.854  0.00  0.00    +0.000 A 
ATOM      4  C   UNL     1      47.281   5.735  13.687  0.00  0.00    +0.000 A 
ATOM      5  C   UNL     1      47.963   6.356  14.740  0.00  0.00    +0.000 A 
ATOM      6  C   UNL     1      48.194   5.671  15.935  0.00  0.00    +0.000 A 
ENDROOT
BRANCH   1   7
ATOM      7  C   UNL     1      47.964   3.591  17.402  0.00  0.00    +0.000 C 
BRANCH   7   8
ATOM      8  O   UNL     1      46.788   2.851  17.727  0.00  0.00    +0.000 OA
ATOM      9  H   UNL     1      46.753   2.760  18.687  0.00  0.00    +0.000 HD
ENDBRANCH   7   8
BRANCH   7  10
ATOM     10  C   UNL     1      48.447   4.553  18.556  0.00  0.00    +0.000 C 
BRANCH  10  15
ATOM     11  C   UNL     1      50.617   5.680  19.232  0.00  0.00    +0.000 C 
ATOM     12  C   UNL     1      51.242   5.984  17.875  0.00  0.00    +0.000 C 
ATOM     13  C   UNL     1      51.663   4.619  17.390  0.00  0.00    +0.000 C 
ATOM     14  C   UNL     1      50.632   3.669  17.983  0.00  0.00    +0.000 C 
ATOM     15  N   UNL     1      49.850   4.417  18.997  0.00  0.00    +0.000 NA
BRANCH  11  16
ATOM     16  C   UNL     1      49.988   6.958  19.854  0.00  0.00    +0.000 C 
BRANCH  16  17
ATOM     17  N   UNL     1      49.647   7.978  18.842  0.00  0.00    +0.000 NA
ATOM     18  H   UNL     1      50.315   7.971  18.072  0.00  0.00    +0.000 HD
ATOM     19  H   UNL     1      49.641   8.924  19.218  0.00  0.00    +0.000 HD
ENDBRANCH  16  17
ENDBRANCH  11  16
ENDBRANCH  10  15
ENDBRANCH   7  10
ENDBRANCH   1   7
BRANCH   4  20
ATOM     20  C   UNL     1      47.038   6.490  12.395  0.00  0.00    +0.000 C 
BRANCH  20  21
ATOM     21  C   UNL     1      45.844   7.461  12.475  0.00  0.00    +0.000 C 
BRANCH  21  22
ATOM     22  N   UNL     1      46.259   8.858  12.171  0.00  0.00    +0.000 NA
ATOM     23  H   UNL     1      46.298   9.407  13.028  0.00  0.00    +0.000 HD
ATOM     24  H   UNL     1      45.537   9.303  11.598  0.00  0.00    +0.000 HD
ENDBRANCH  21  22
BRANCH  21  25
ATOM     25  C   UNL     1      44.656   7.011  11.564  0.00  0.00    +0.000 C 
ATOM     26  O   UNL     1      43.977   7.824  10.970  0.00  0.00    +0.000 OA
BRANCH  25  27
ATOM     27  C   UNL     1      44.392   5.547  11.475  0.00  0.00    +0.000 A 
ATOM     28  C   UNL     1      43.782   4.848  12.499  0.00  0.00    +0.000 A 
ATOM     29  S   UNL     1      43.453   3.221  12.123  0.00  0.00    +0.000 S 
ATOM     30  C   UNL     1      44.125   3.399  10.574  0.00  0.00    +0.000 A 
ATOM     31  N   UNL     1      44.109   2.370   9.682  0.00  0.00    +0.000 NA
ATOM     32  C   UNL     1      44.548   2.690   8.509  0.00  0.00    +0.000 A 
ATOM     33  N   UNL     1      45.039   3.921   8.162  0.00  0.00    +0.000 N 
ATOM     34  C   UNL     1      45.394   4.837   9.135  0.00  0.00    +0.000 A 
ATOM     35  O   UNL     1      46.343   5.585   8.972  0.00  0.00    +0.000 OA
ATOM     36  C   UNL     1      44.676   4.653  10.382  0.00  0.00    +0.000 A 
ATOM     37  H   UNL     1      45.507   4.033   7.275  0.00  0.00    +0.000 HD
ENDBRANCH  25  27
ENDBRANCH  21  25
ENDBRANCH  20  21
ENDBRANCH   4  20
TORSDOF 11
ENDMDL
MODEL 8
REMARK VINA RESULT:    -6.182      2.828      7.109
REMARK INTER + INTRA:         -11.371
REMARK INTER:                 -10.142
REMARK INTRA:                  -1.229
REMARK UNBOUND:                -1.756
REMARK  Name = 
REMARK  11 active torsions:
REMARK  status: ('A' for Active; 'I' for Inactive)
REMARK    1  A    between atoms: N_1  and  C_2
REMARK    2  A    between atoms: C_2  and  C_3
REMARK    3  A    between atoms: N_7  and  C_8
REMARK    4  A    between atoms: C_8  and  C_9
REMARK    5  A    between atoms: C_9  and  O_10
REMARK    6  A    between atoms: C_9  and  C_11
REMARK    7  A    between atoms: C_14  and  C_15
REMARK    8  A    between atoms: C_15  and  C_16
REMARK    9  A    between atoms: C_16  and  N_17
REMARK   10  A    between atoms: C_16  and  C_18
REMARK   11  A    between atoms: C_18  and  C_20
REMARK                            x       y       z     vdW  Elec       q    Type
REMARK                         _______ _______ _______ _____ _____    ______ ____
ROOT
ATOM      1  C   UNL     1      49.687   7.347  17.173  0.00  0.00    +0.000 A 
ATOM      2  C   UNL     1      49.856   6.673  15.956  0.00  0.00    +0.000 A 
ATOM      3  C   UNL     1      49.315   7.188  14.777  0.00  0.00    +0.000 A 
ATOM      4  C   UNL     1      48.554   8.364  14.795  0.00  0.00    +0.000 A 
ATOM      5  C   UNL     1      48.374   9.034  16.010  0.00  0.00    +0.000 A 
ATOM      6  C   UNL     1      48.948   8.538  17.184  0.00  0.00    +0.000 A 
ENDROOT
BRANCH   1   7
ATOM      7  C   UNL     1      50.328   6.788  18.432  0.00  0.00    +0.000 C 
BRANCH   7   8
ATOM      8  O   UNL     1      51.525   7.514  18.706  0.00  0.00    +0.000 OA
ATOM      9  H   UNL     1      52.180   6.889  19.042  0.00  0.00    +0.000 HD
ENDBRANCH   7   8
BRANCH   7  10
ATOM     10  C   UNL     1      50.545   5.230  18.313  0.00  0.00    +0.000 C 
BRANCH  10  15
ATOM     11  C   UNL     1      49.102   3.165  18.009  0.00  0.00    +0.000 C 
ATOM     12  C   UNL     1      48.018   3.683  17.070  0.00  0.00    +0.000 C 
ATOM     13  C   UNL     1      47.203   4.581  17.967  0.00  0.00    +0.000 C 
ATOM     14  C   UNL     1      48.210   5.139  18.964  0.00  0.00    +0.000 C 
ATOM     15  N   UNL     1      49.466   4.363  18.829  0.00  0.00    +0.000 NA
BRANCH  11  16
ATOM     16  C   UNL     1      50.145   2.310  17.237  0.00  0.00    +0.000 C 
BRANCH  16  17
ATOM     17  N   UNL     1      49.591   1.701  16.011  0.00  0.00    +0.000 NA
ATOM     18  H   UNL     1      50.324   1.264  15.453  0.00  0.00    +0.000 HD
ATOM     19  H   UNL     1      49.124   2.376  15.408  0.00  0.00    +0.000 HD
ENDBRANCH  16  17
ENDBRANCH  11  16
ENDBRANCH  10  15
ENDBRANCH   7  10
ENDBRANCH   1   7
BRANCH   4  20
ATOM     20  C   UNL     1      47.926   8.913  13.529  0.00  0.00    +0.000 C 
BRANCH  20  21
ATOM     21  C   UNL     1      46.506   8.372  13.271  0.00  0.00    +0.000 C 
BRANCH  21  22
ATOM     22  N   UNL     1      45.583   9.456  12.837  0.00  0.00    +0.000 NA
ATOM     23  H   UNL     1      45.135   9.882  13.647  0.00  0.00    +0.000 HD
ATOM     24  H   UNL     1      44.819   9.045  12.292  0.00  0.00    +0.000 HD
ENDBRANCH  21  22
BRANCH  21  25
ATOM     25  C   UNL     1      46.504   7.183  12.258  0.00  0.00    +0.000 C 
ATOM     26  O   UNL     1      47.511   6.871  11.655  0.00  0.00    +0.000 OA
BRANCH  25  27
ATOM     27  C   UNL     1      45.212   6.467  12.060  0.00  0.00    +0.000 A 
ATOM     28  C   UNL     1      44.094   7.099  11.552  0.00  0.00    +0.000 A 
ATOM     29  S   UNL     1      42.776   6.056  11.278  0.00  0.00    +0.000 S 
ATOM     30  C   UNL     1      43.663   4.721  11.839  0.00  0.00    +0.000 A 
ATOM     31  N   UNL     1      43.129   3.468  11.815  0.00  0.00    +0.000 NA
ATOM     32  C   UNL     1      43.961   2.541  12.162  0.00  0.00    +0.000 A 
ATOM     33  N   UNL     1      45.251   2.755  12.569  0.00  0.00    +0.000 N 
ATOM     34  C   UNL     1      45.672   4.019  12.941  0.00  0.00    +0.000 A 
ATOM     35  O   UNL     1      46.483   4.167  13.840  0.00  0.00    +0.000 OA
ATOM     36  C   UNL     1      44.910   5.082  12.315  0.00  0.00    +0.000 A 
ATOM     37  H   UNL     1      45.774   1.992  12.972  0.00  0.00    +0.000 HD
ENDBRANCH  25  27
ENDBRANCH  21  25
ENDBRANCH  20  21
ENDBRANCH   4  20
TORSDOF 11
ENDMDL
MODEL 9
REMARK VINA RESULT:    -6.086      2.532      6.826
REMARK INTER + INTRA:         -11.223
REMARK INTER:                  -9.402
REMARK INTRA:                  -1.821
REMARK UNBOUND:                -1.756
REMARK  Name = 
REMARK  11 active torsions:
REMARK  status: ('A' for Active; 'I' for Inactive)
REMARK    1  A    between atoms: N_1  and  C_2
REMARK    2  A    between atoms: C_2  and  C_3
REMARK    3  A    between atoms: N_7  and  C_8
REMARK    4  A    between atoms: C_8  and  C_9
REMARK    5  A    between atoms: C_9  and  O_10
REMARK    6  A    between atoms: C_9  and  C_11
REMARK    7  A    between atoms: C_14  and  C_15
REMARK    8  A    between atoms: C_15  and  C_16
REMARK    9  A    between atoms: C_16  and  N_17
REMARK   10  A    between atoms: C_16  and  C_18
REMARK   11  A    between atoms: C_18  and  C_20
REMARK                            x       y       z     vdW  Elec       q    Type
REMARK                         _______ _______ _______ _____ _____    ______ ____
ROOT
ATOM      1  C   UNL     1      50.153   7.328  17.495  0.00  0.00    +0.000 A 
ATOM      2  C   UNL     1      50.575   7.036  16.191  0.00  0.00    +0.000 A 
ATOM      3  C   UNL     1      50.030   7.711  15.098  0.00  0.00    +0.000 A 
ATOM      4  C   UNL     1      49.017   8.662  15.280  0.00  0.00    +0.000 A 
ATOM      5  C   UNL     1      48.585   8.949  16.580  0.00  0.00    +0.000 A 
ATOM      6  C   UNL     1      49.158   8.300  17.676  0.00  0.00    +0.000 A 
ENDROOT
BRANCH   1   7
ATOM      7  C   UNL     1      50.798   6.611  18.669  0.00  0.00    +0.000 C 
BRANCH   7   8
ATOM      8  O   UNL     1      52.075   7.195  18.924  0.00  0.00    +0.000 OA
ATOM      9  H   UNL     1      52.744   6.510  18.797  0.00  0.00    +0.000 HD
ENDBRANCH   7   8
BRANCH   7  10
ATOM     10  C   UNL     1      50.851   5.053  18.420  0.00  0.00    +0.000 C 
BRANCH  10  15
ATOM     11  C   UNL     1      49.197   3.179  17.989  0.00  0.00    +0.000 C 
ATOM     12  C   UNL     1      48.156   3.881  17.125  0.00  0.00    +0.000 C 
ATOM     13  C   UNL     1      47.455   4.780  18.113  0.00  0.00    +0.000 C 
ATOM     14  C   UNL     1      48.532   5.147  19.123  0.00  0.00    +0.000 C 
ATOM     15  N   UNL     1      49.698   4.261  18.893  0.00  0.00    +0.000 NA
BRANCH  11  16
ATOM     16  C   UNL     1      50.132   2.289  17.123  0.00  0.00    +0.000 C 
BRANCH  16  17
ATOM     17  N   UNL     1      49.436   1.681  15.971  0.00  0.00    +0.000 NA
ATOM     18  H   UNL     1      50.033   1.671  15.144  0.00  0.00    +0.000 HD
ATOM     19  H   UNL     1      48.585   2.177  15.714  0.00  0.00    +0.000 HD
ENDBRANCH  16  17
ENDBRANCH  11  16
ENDBRANCH  10  15
ENDBRANCH   7  10
ENDBRANCH   1   7
BRANCH   4  20
ATOM     20  C   UNL     1      48.386   9.374  14.099  0.00  0.00    +0.000 C 
BRANCH  20  21
ATOM     21  C   UNL     1      47.141   8.652  13.549  0.00  0.00    +0.000 C 
BRANCH  21  22
ATOM     22  N   UNL     1      46.193   9.609  12.918  0.00  0.00    +0.000 NA
ATOM     23  H   UNL     1      45.272   9.183  12.825  0.00  0.00    +0.000 HD
ATOM     24  H   UNL     1      46.500   9.799  11.959  0.00  0.00    +0.000 HD
ENDBRANCH  21  22
BRANCH  21  25
ATOM     25  C   UNL     1      47.517   7.494  12.569  0.00  0.00    +0.000 C 
ATOM     26  O   UNL     1      48.280   7.679  11.642  0.00  0.00    +0.000 OA
BRANCH  25  27
ATOM     27  C   UNL     1      46.886   6.167  12.818  0.00  0.00    +0.000 A 
ATOM     28  C   UNL     1      47.616   5.079  13.256  0.00  0.00    +0.000 A 
ATOM     29  S   UNL     1      46.668   3.710  13.610  0.00  0.00    +0.000 S 
ATOM     30  C   UNL     1      45.246   4.532  13.180  0.00  0.00    +0.000 A 
ATOM     31  N   UNL     1      44.028   3.937  13.311  0.00  0.00    +0.000 NA
ATOM     32  C   UNL     1      43.034   4.723  13.057  0.00  0.00    +0.000 A 
ATOM     33  N   UNL     1      43.146   6.024  12.644  0.00  0.00    +0.000 N 
ATOM     34  C   UNL     1      44.349   6.509  12.164  0.00  0.00    +0.000 A 
ATOM     35  O   UNL     1      44.376   7.331  11.263  0.00  0.00    +0.000 OA
ATOM     36  C   UNL     1      45.500   5.798  12.685  0.00  0.00    +0.000 A 
ATOM     37  H   UNL     1      42.325   6.510  12.316  0.00  0.00    +0.000 HD
ENDBRANCH  25  27
ENDBRANCH  21  25
ENDBRANCH  20  21
ENDBRANCH   4  20
TORSDOF 11
ENDMDL
