MODEL 1
REMARK VINA RESULT:    -7.781      0.000      0.000
REMARK INTER + INTRA:         -12.942
REMARK INTER:                 -11.420
REMARK INTRA:                  -1.522
REMARK UNBOUND:                -1.522
REMARK  Name = 
REMARK  9 active torsions:
REMARK  status: ('A' for Active; 'I' for Inactive)
REMARK    1  A    between atoms: C_1  and  O_2
REMARK    2  A    between atoms: O_2  and  C_3
REMARK    3  A    between atoms: C_10  and  C_11
REMARK    4  A    between atoms: N_13  and  C_14
REMARK    5  A    between atoms: C_14  and  C_15
REMARK    6  A    between atoms: C_18  and  C_19
REMARK    7  A    between atoms: C_19  and  C_20
REMARK    8  A    between atoms: C_20  and  N_21
REMARK    9  A    between atoms: N_21  and  C_22
REMARK                            x       y       z     vdW  Elec       q    Type
REMARK                         _______ _______ _______ _____ _____    ______ ____
ROOT
ATOM      1  C   UNL     1      47.068   7.955  13.312  0.00  0.00    +0.000 C 
ENDROOT
BRANCH   1   2
ATOM      2  C   UNL     1      46.213   7.054  12.458  0.00  0.00    +0.000 A 
ATOM      3  C   UNL     1      44.976   6.607  12.925  0.00  0.00    +0.000 A 
ATOM      4  C   UNL     1      44.192   5.750  12.152  0.00  0.00    +0.000 A 
ATOM      5  C   UNL     1      44.616   5.332  10.883  0.00  0.00    +0.000 A 
ATOM      6  C   UNL     1      45.864   5.765  10.421  0.00  0.00    +0.000 A 
ATOM      7  C   UNL     1      46.659   6.615  11.202  0.00  0.00    +0.000 A 
BRANCH   5   8
ATOM      8  C   UNL     1      43.792   4.397  10.026  0.00  0.00    +0.000 C 
BRANCH   8   9
ATOM      9  C   UNL     1      44.068   2.894  10.211  0.00  0.00    +0.000 C 
BRANCH   9  10
ATOM     10  N   UNL     1      44.305   2.162   8.964  0.00  0.00    +0.000 NA
ATOM     11  H   UNL     1      43.587   2.384   8.274  0.00  0.00    +0.000 HD
BRANCH  10  12
ATOM     12  C   UNL     1      45.655   2.385   8.419  0.00  0.00    +0.000 C 
ATOM     13  C   UNL     1      45.704   3.386   7.254  0.00  0.00    +0.000 C 
ATOM     14  C   UNL     1      47.102   3.454   6.654  0.00  0.00    +0.000 C 
ATOM     15  O   UNL     1      47.528   2.162   6.233  0.00  0.00    +0.000 OA
ATOM     16  C   UNL     1      47.616   1.248   7.326  0.00  0.00    +0.000 C 
ATOM     17  C   UNL     1      46.253   1.042   7.975  0.00  0.00    +0.000 C 
ENDBRANCH  10  12
ENDBRANCH   9  10
ENDBRANCH   8   9
ENDBRANCH   5   8
ENDBRANCH   1   2
BRANCH   1  20
ATOM     18  C   UNL     1      48.774   6.861  14.706  0.00  0.00    +0.000 C 
ATOM     19  O   UNL     1      49.631   7.036  13.841  0.00  0.00    +0.000 OA
ATOM     20  N   UNL     1      47.482   7.288  14.516  0.00  0.00    +0.000 N 
ATOM     21  H   UNL     1      46.772   7.070  15.203  0.00  0.00    +0.000 HD
BRANCH  18  29
ATOM     22  C   UNL     1      47.387   4.201  16.378  0.00  0.00    +0.000 A 
ATOM     23  N   UNL     1      47.051   3.210  17.225  0.00  0.00    +0.000 NA
ATOM     24  C   UNL     1      47.771   3.062  18.337  0.00  0.00    +0.000 A 
ATOM     25  N   UNL     1      48.808   3.797  18.720  0.00  0.00    +0.000 NA
ATOM     26  C   UNL     1      49.114   4.772  17.847  0.00  0.00    +0.000 A 
ATOM     27  S   UNL     1      50.408   5.815  18.180  0.00  0.00    +0.000 S 
ATOM     28  C   UNL     1      50.152   6.671  16.736  0.00  0.00    +0.000 A 
ATOM     29  C   UNL     1      49.090   6.191  15.972  0.00  0.00    +0.000 A 
ATOM     30  C   UNL     1      48.471   5.051  16.647  0.00  0.00    +0.000 A 
BRANCH  22  32
ATOM     31  C   UNL     1      47.135   3.477  14.187  0.00  0.00    +0.000 C 
ATOM     32  O   UNL     1      46.647   4.328  15.222  0.00  0.00    +0.000 OA
ENDBRANCH  22  32
ENDBRANCH  18  29
ENDBRANCH   1  20
TORSDOF 8
ENDMDL
MODEL 2
REMARK VINA RESULT:    -7.417      1.537      1.907
REMARK INTER + INTRA:         -12.407
REMARK INTER:                 -11.366
REMARK INTRA:                  -1.041
REMARK UNBOUND:                -1.522
REMARK  Name = 
REMARK  9 active torsions:
REMARK  status: ('A' for Active; 'I' for Inactive)
REMARK    1  A    between atoms: C_1  and  O_2
REMARK    2  A    between atoms: O_2  and  C_3
REMARK    3  A    between atoms: C_10  and  C_11
REMARK    4  A    between atoms: N_13  and  C_14
REMARK    5  A    between atoms: C_14  and  C_15
REMARK    6  A    between atoms: C_18  and  C_19
REMARK    7  A    between atoms: C_19  and  C_20
REMARK    8  A    between atoms: C_20  and  N_21
REMARK    9  A    between atoms: N_21  and  C_22
REMARK                            x       y       z     vdW  Elec       q    Type
REMARK                         _______ _______ _______ _____ _____    ______ ____
ROOT
ATOM      1  C   UNL     1      47.969   7.375  13.332  0.00  0.00    +0.000 C 
ENDROOT
BRANCH   1   2
ATOM      2  C   UNL     1      46.887   6.519  12.726  0.00  0.00    +0.000 A 
ATOM      3  C   UNL     1      46.617   5.252  13.246  0.00  0.00    +0.000 A 
ATOM      4  C   UNL     1      45.636   4.442  12.673  0.00  0.00    +0.000 A 
ATOM      5  C   UNL     1      44.886   4.886  11.574  0.00  0.00    +0.000 A 
ATOM      6  C   UNL     1      45.169   6.147  11.041  0.00  0.00    +0.000 A 
ATOM      7  C   UNL     1      46.163   6.957  11.607  0.00  0.00    +0.000 A 
BRANCH   5   8
ATOM      8  C   UNL     1      43.823   4.027  10.927  0.00  0.00    +0.000 C 
BRANCH   8   9
ATOM      9  C   UNL     1      44.317   3.030   9.864  0.00  0.00    +0.000 C 
BRANCH   9  10
ATOM     10  N   UNL     1      44.567   3.620   8.546  0.00  0.00    +0.000 NA
ATOM     11  H   UNL     1      44.942   4.563   8.640  0.00  0.00    +0.000 HD
BRANCH  10  12
ATOM     12  C   UNL     1      45.434   2.781   7.700  0.00  0.00    +0.000 C 
ATOM     13  C   UNL     1      45.949   1.511   8.395  0.00  0.00    +0.000 C 
ATOM     14  C   UNL     1      46.948   0.776   7.511  0.00  0.00    +0.000 C 
ATOM     15  O   UNL     1      48.026   1.635   7.154  0.00  0.00    +0.000 OA
ATOM     16  C   UNL     1      47.584   2.757   6.393  0.00  0.00    +0.000 C 
ATOM     17  C   UNL     1      46.620   3.618   7.201  0.00  0.00    +0.000 C 
ENDBRANCH  10  12
ENDBRANCH   9  10
ENDBRANCH   8   9
ENDBRANCH   5   8
ENDBRANCH   1   2
BRANCH   1  20
ATOM     18  C   UNL     1      49.026   7.103  15.536  0.00  0.00    +0.000 C 
ATOM     19  O   UNL     1      50.123   6.905  15.016  0.00  0.00    +0.000 OA
ATOM     20  N   UNL     1      47.913   7.343  14.769  0.00  0.00    +0.000 N 
ATOM     21  H   UNL     1      47.006   7.428  15.207  0.00  0.00    +0.000 HD
BRANCH  18  29
ATOM     22  C   UNL     1      48.873   4.593  17.875  0.00  0.00    +0.000 A 
ATOM     23  N   UNL     1      48.784   3.825  18.977  0.00  0.00    +0.000 NA
ATOM     24  C   UNL     1      48.615   4.430  20.152  0.00  0.00    +0.000 A 
ATOM     25  N   UNL     1      48.521   5.736  20.372  0.00  0.00    +0.000 NA
ATOM     26  C   UNL     1      48.618   6.467  19.248  0.00  0.00    +0.000 A 
ATOM     27  S   UNL     1      48.511   8.156  19.339  0.00  0.00    +0.000 S 
ATOM     28  C   UNL     1      48.706   8.307  17.659  0.00  0.00    +0.000 A 
ATOM     29  C   UNL     1      48.858   7.092  16.994  0.00  0.00    +0.000 A 
ATOM     30  C   UNL     1      48.803   5.992  17.955  0.00  0.00    +0.000 A 
BRANCH  22  32
ATOM     31  C   UNL     1      48.226   2.811  16.534  0.00  0.00    +0.000 C 
ATOM     32  O   UNL     1      49.069   3.953  16.669  0.00  0.00    +0.000 OA
ENDBRANCH  22  32
ENDBRANCH  18  29
ENDBRANCH   1  20
TORSDOF 8
ENDMDL
MODEL 3
REMARK VINA RESULT:    -7.265      2.069      3.569
REMARK INTER + INTRA:         -12.185
REMARK INTER:                 -10.787
REMARK INTRA:                  -1.398
REMARK UNBOUND:                -1.522
REMARK  Name = 
REMARK  9 active torsions:
REMARK  status: ('A' for Active; 'I' for Inactive)
REMARK    1  A    between atoms: C_1  and  O_2
REMARK    2  A    between atoms: O_2  and  C_3
REMARK    3  A    between atoms: C_10  and  C_11
REMARK    4  A    between atoms: N_13  and  C_14
REMARK    5  A    between atoms: C_14  and  C_15
REMARK    6  A    between atoms: C_18  and  C_19
REMARK    7  A    between atoms: C_19  and  C_20
REMARK    8  A    between atoms: C_20  and  N_21
REMARK    9  A    between atoms: N_21  and  C_22
REMARK                            x       y       z     vdW  Elec       q    Type
REMARK                         _______ _______ _______ _____ _____    ______ ____
ROOT
ATOM      1  C   UNL     1      47.291   4.024  14.976  0.00  0.00    +0.000 C 
ENDROOT
BRANCH   1   2
ATOM      2  C   UNL     1      46.456   4.290  13.750  0.00  0.00    +0.000 A 
ATOM      3  C   UNL     1      46.131   5.598  13.389  0.00  0.00    +0.000 A 
ATOM      4  C   UNL     1      45.334   5.850  12.272  0.00  0.00    +0.000 A 
ATOM      5  C   UNL     1      44.856   4.800  11.475  0.00  0.00    +0.000 A 
ATOM      6  C   UNL     1      45.165   3.488  11.847  0.00  0.00    +0.000 A 
ATOM      7  C   UNL     1      45.954   3.232  12.976  0.00  0.00    +0.000 A 
BRANCH   5   8
ATOM      8  C   UNL     1      43.983   5.042  10.264  0.00  0.00    +0.000 C 
BRANCH   8   9
ATOM      9  C   UNL     1      44.167   4.060   9.094  0.00  0.00    +0.000 C 
BRANCH   9  10
ATOM     10  N   UNL     1      45.296   4.370   8.212  0.00  0.00    +0.000 NA
ATOM     11  H   UNL     1      46.043   4.828   8.732  0.00  0.00    +0.000 HD
BRANCH  10  12
ATOM     12  C   UNL     1      45.796   3.188   7.489  0.00  0.00    +0.000 C 
ATOM     13  C   UNL     1      46.147   1.999   8.397  0.00  0.00    +0.000 C 
ATOM     14  C   UNL     1      46.789   0.874   7.596  0.00  0.00    +0.000 C 
ATOM     15  O   UNL     1      47.942   1.346   6.906  0.00  0.00    +0.000 OA
ATOM     16  C   UNL     1      47.617   2.364   5.960  0.00  0.00    +0.000 C 
ATOM     17  C   UNL     1      47.022   3.583   6.654  0.00  0.00    +0.000 C 
ENDBRANCH  10  12
ENDBRANCH   9  10
ENDBRANCH   8   9
ENDBRANCH   5   8
ENDBRANCH   1   2
BRANCH   1  20
ATOM     18  C   UNL     1      48.548   5.373  16.604  0.00  0.00    +0.000 C 
ATOM     19  O   UNL     1      49.365   4.468  16.763  0.00  0.00    +0.000 OA
ATOM     20  N   UNL     1      47.493   5.228  15.737  0.00  0.00    +0.000 N 
ATOM     21  H   UNL     1      46.788   5.950  15.673  0.00  0.00    +0.000 HD
BRANCH  18  29
ATOM     22  C   UNL     1      48.704   8.657  15.610  0.00  0.00    +0.000 A 
ATOM     23  N   UNL     1      48.779   9.996  15.502  0.00  0.00    +0.000 NA
ATOM     24  C   UNL     1      48.879  10.713  16.620  0.00  0.00    +0.000 A 
ATOM     25  N   UNL     1      48.917  10.250  17.864  0.00  0.00    +0.000 NA
ATOM     26  C   UNL     1      48.836   8.910  17.930  0.00  0.00    +0.000 A 
ATOM     27  S   UNL     1      48.877   8.144  19.442  0.00  0.00    +0.000 S 
ATOM     28  C   UNL     1      48.742   6.612  18.723  0.00  0.00    +0.000 A 
ATOM     29  C   UNL     1      48.660   6.643  17.332  0.00  0.00    +0.000 A 
ATOM     30  C   UNL     1      48.719   8.026  16.863  0.00  0.00    +0.000 A 
BRANCH  22  32
ATOM     31  C   UNL     1      49.848   7.635  13.867  0.00  0.00    +0.000 C 
ATOM     32  O   UNL     1      48.578   7.930  14.445  0.00  0.00    +0.000 OA
ENDBRANCH  22  32
ENDBRANCH  18  29
ENDBRANCH   1  20
TORSDOF 8
ENDMDL
MODEL 4
REMARK VINA RESULT:    -7.100      2.632      3.449
REMARK INTER + INTRA:         -11.943
REMARK INTER:                 -10.907
REMARK INTRA:                  -1.035
REMARK UNBOUND:                -1.522
REMARK  Name = 
REMARK  9 active torsions:
REMARK  status: ('A' for Active; 'I' for Inactive)
REMARK    1  A    between atoms: C_1  and  O_2
REMARK    2  A    between atoms: O_2  and  C_3
REMARK    3  A    between atoms: C_10  and  C_11
REMARK    4  A    between atoms: N_13  and  C_14
REMARK    5  A    between atoms: C_14  and  C_15
REMARK    6  A    between atoms: C_18  and  C_19
REMARK    7  A    between atoms: C_19  and  C_20
REMARK    8  A    between atoms: C_20  and  N_21
REMARK    9  A    between atoms: N_21  and  C_22
REMARK                            x       y       z     vdW  Elec       q    Type
REMARK                         _______ _______ _______ _____ _____    ______ ____
ROOT
ATOM      1  C   UNL     1      47.419   4.226  15.134  0.00  0.00    +0.000 C 
ENDROOT
BRANCH   1   2
ATOM      2  C   UNL     1      46.622   4.411  13.869  0.00  0.00    +0.000 A 
ATOM      3  C   UNL     1      46.420   5.688  13.344  0.00  0.00    +0.000 A 
ATOM      4  C   UNL     1      45.660   5.870  12.189  0.00  0.00    +0.000 A 
ATOM      5  C   UNL     1      45.096   4.777  11.516  0.00  0.00    +0.000 A 
ATOM      6  C   UNL     1      45.282   3.498  12.051  0.00  0.00    +0.000 A 
ATOM      7  C   UNL     1      46.035   3.314  13.219  0.00  0.00    +0.000 A 
BRANCH   5   8
ATOM      8  C   UNL     1      44.260   4.944  10.267  0.00  0.00    +0.000 C 
BRANCH   8   9
ATOM      9  C   UNL     1      44.410   3.842   9.203  0.00  0.00    +0.000 C 
BRANCH   9  10
ATOM     10  N   UNL     1      45.239   4.216   8.054  0.00  0.00    +0.000 NA
ATOM     11  H   UNL     1      45.949   4.895   8.328  0.00  0.00    +0.000 HD
BRANCH  10  12
ATOM     12  C   UNL     1      45.844   3.052   7.384  0.00  0.00    +0.000 C 
ATOM     13  C   UNL     1      46.076   1.847   8.309  0.00  0.00    +0.000 C 
ATOM     14  C   UNL     1      46.832   0.742   7.582  0.00  0.00    +0.000 C 
ATOM     15  O   UNL     1      48.065   1.234   7.068  0.00  0.00    +0.000 OA
ATOM     16  C   UNL     1      47.865   2.269   6.106  0.00  0.00    +0.000 C 
ATOM     17  C   UNL     1      47.170   3.471   6.734  0.00  0.00    +0.000 C 
ENDBRANCH  10  12
ENDBRANCH   9  10
ENDBRANCH   8   9
ENDBRANCH   5   8
ENDBRANCH   1   2
BRANCH   1  20
ATOM     18  C   UNL     1      48.618   5.727  16.670  0.00  0.00    +0.000 C 
ATOM     19  O   UNL     1      49.519   4.902  16.816  0.00  0.00    +0.000 OA
ATOM     20  N   UNL     1      47.545   5.464  15.854  0.00  0.00    +0.000 N 
ATOM     21  H   UNL     1      46.776   6.119  15.803  0.00  0.00    +0.000 HD
BRANCH  18  29
ATOM     22  C   UNL     1      47.985   6.695  19.904  0.00  0.00    +0.000 A 
ATOM     23  N   UNL     1      47.802   7.335  21.073  0.00  0.00    +0.000 NA
ATOM     24  C   UNL     1      47.990   8.654  21.104  0.00  0.00    +0.000 A 
ATOM     25  N   UNL     1      48.345   9.433  20.089  0.00  0.00    +0.000 NA
ATOM     26  C   UNL     1      48.521   8.756  18.942  0.00  0.00    +0.000 A 
ATOM     27  S   UNL     1      48.968   9.595  17.538  0.00  0.00    +0.000 S 
ATOM     28  C   UNL     1      48.978   8.162  16.627  0.00  0.00    +0.000 A 
ATOM     29  C   UNL     1      48.648   7.022  17.359  0.00  0.00    +0.000 A 
ATOM     30  C   UNL     1      48.373   7.388  18.748  0.00  0.00    +0.000 A 
BRANCH  22  32
ATOM     31  C   UNL     1      48.945   4.644  20.416  0.00  0.00    +0.000 C 
ATOM     32  O   UNL     1      47.807   5.327  19.893  0.00  0.00    +0.000 OA
ENDBRANCH  22  32
ENDBRANCH  18  29
ENDBRANCH   1  20
TORSDOF 8
ENDMDL
MODEL 5
REMARK VINA RESULT:    -6.693      2.545      3.537
REMARK INTER + INTRA:         -11.345
REMARK INTER:                 -10.101
REMARK INTRA:                  -1.245
REMARK UNBOUND:                -1.522
REMARK  Name = 
REMARK  9 active torsions:
REMARK  status: ('A' for Active; 'I' for Inactive)
REMARK    1  A    between atoms: C_1  and  O_2
REMARK    2  A    between atoms: O_2  and  C_3
REMARK    3  A    between atoms: C_10  and  C_11
REMARK    4  A    between atoms: N_13  and  C_14
REMARK    5  A    between atoms: C_14  and  C_15
REMARK    6  A    between atoms: C_18  and  C_19
REMARK    7  A    between atoms: C_19  and  C_20
REMARK    8  A    between atoms: C_20  and  N_21
REMARK    9  A    between atoms: N_21  and  C_22
REMARK                            x       y       z     vdW  Elec       q    Type
REMARK                         _______ _______ _______ _____ _____    ______ ____
ROOT
ATOM      1  C   UNL     1      47.496   4.860  14.650  0.00  0.00    +0.000 C 
ENDROOT
BRANCH   1   2
ATOM      2  C   UNL     1      46.548   4.833  13.480  0.00  0.00    +0.000 A 
ATOM      3  C   UNL     1      46.104   6.026  12.905  0.00  0.00    +0.000 A 
ATOM      4  C   UNL     1      45.204   6.010  11.840  0.00  0.00    +0.000 A 
ATOM      5  C   UNL     1      44.737   4.799  11.308  0.00  0.00    +0.000 A 
ATOM      6  C   UNL     1      45.166   3.604  11.895  0.00  0.00    +0.000 A 
ATOM      7  C   UNL     1      46.060   3.619  12.974  0.00  0.00    +0.000 A 
BRANCH   5   8
ATOM      8  C   UNL     1      43.755   4.751  10.159  0.00  0.00    +0.000 C 
BRANCH   8   9
ATOM      9  C   UNL     1      44.194   3.935   8.930  0.00  0.00    +0.000 C 
BRANCH   9  10
ATOM     10  N   UNL     1      45.337   4.496   8.205  0.00  0.00    +0.000 NA
ATOM     11  H   UNL     1      45.758   5.261   8.733  0.00  0.00    +0.000 HD
BRANCH  10  12
ATOM     12  C   UNL     1      46.341   3.479   7.847  0.00  0.00    +0.000 C 
ATOM     13  C   UNL     1      46.746   3.493   6.364  0.00  0.00    +0.000 C 
ATOM     14  C   UNL     1      47.672   2.328   6.044  0.00  0.00    +0.000 C 
ATOM     15  O   UNL     1      47.059   1.091   6.392  0.00  0.00    +0.000 OA
ATOM     16  C   UNL     1      46.793   1.004   7.791  0.00  0.00    +0.000 C 
ATOM     17  C   UNL     1      45.814   2.088   8.228  0.00  0.00    +0.000 C 
ENDBRANCH  10  12
ENDBRANCH   9  10
ENDBRANCH   8   9
ENDBRANCH   5   8
ENDBRANCH   1   2
BRANCH   1  20
ATOM     18  C   UNL     1      48.705   7.001  14.699  0.00  0.00    +0.000 C 
ATOM     19  O   UNL     1      49.510   6.596  13.862  0.00  0.00    +0.000 OA
ATOM     20  N   UNL     1      47.680   6.200  15.139  0.00  0.00    +0.000 N 
ATOM     21  H   UNL     1      47.072   6.518  15.882  0.00  0.00    +0.000 HD
BRANCH  18  29
ATOM     22  C   UNL     1      48.419   8.254  17.884  0.00  0.00    +0.000 A 
ATOM     23  N   UNL     1      48.361   8.996  19.005  0.00  0.00    +0.000 NA
ATOM     24  C   UNL     1      48.544  10.312  18.899  0.00  0.00    +0.000 A 
ATOM     25  N   UNL     1      48.783  10.997  17.787  0.00  0.00    +0.000 NA
ATOM     26  C   UNL     1      48.837  10.220  16.691  0.00  0.00    +0.000 A 
ATOM     27  S   UNL     1      49.126  10.929  15.178  0.00  0.00    +0.000 S 
ATOM     28  C   UNL     1      49.045   9.421  14.403  0.00  0.00    +0.000 A 
ATOM     29  C   UNL     1      48.802   8.352  15.263  0.00  0.00    +0.000 A 
ATOM     30  C   UNL     1      48.677   8.841  16.636  0.00  0.00    +0.000 A 
BRANCH  22  32
ATOM     31  C   UNL     1      49.473   6.236  18.336  0.00  0.00    +0.000 C 
ATOM     32  O   UNL     1      48.249   6.892  18.013  0.00  0.00    +0.000 OA
ENDBRANCH  22  32
ENDBRANCH  18  29
ENDBRANCH   1  20
TORSDOF 8
ENDMDL
MODEL 6
REMARK VINA RESULT:    -6.523      2.292      4.196
REMARK INTER + INTRA:         -11.095
REMARK INTER:                  -9.701
REMARK INTRA:                  -1.394
REMARK UNBOUND:                -1.522
REMARK  Name = 
REMARK  9 active torsions:
REMARK  status: ('A' for Active; 'I' for Inactive)
REMARK    1  A    between atoms: C_1  and  O_2
REMARK    2  A    between atoms: O_2  and  C_3
REMARK    3  A    between atoms: C_10  and  C_11
REMARK    4  A    between atoms: N_13  and  C_14
REMARK    5  A    between atoms: C_14  and  C_15
REMARK    6  A    between atoms: C_18  and  C_19
REMARK    7  A    between atoms: C_19  and  C_20
REMARK    8  A    between atoms: C_20  and  N_21
REMARK    9  A    between atoms: N_21  and  C_22
REMARK                            x       y       z     vdW  Elec       q    Type
REMARK                         _______ _______ _______ _____ _____    ______ ____
ROOT
ATOM      1  C   UNL     1      47.229   4.780  14.851  0.00  0.00    +0.000 C 
ENDROOT
BRANCH   1   2
ATOM      2  C   UNL     1      46.311   4.522  13.684  0.00  0.00    +0.000 A 
ATOM      3  C   UNL     1      46.163   3.231  13.176  0.00  0.00    +0.000 A 
ATOM      4  C   UNL     1      45.337   2.989  12.078  0.00  0.00    +0.000 A 
ATOM      5  C   UNL     1      44.621   4.031  11.470  0.00  0.00    +0.000 A 
ATOM      6  C   UNL     1      44.783   5.328  11.967  0.00  0.00    +0.000 A 
ATOM      7  C   UNL     1      45.623   5.575  13.061  0.00  0.00    +0.000 A 
BRANCH   5   8
ATOM      8  C   UNL     1      43.725   3.800  10.274  0.00  0.00    +0.000 C 
BRANCH   8   9
ATOM      9  C   UNL     1      44.220   4.384   8.939  0.00  0.00    +0.000 C 
BRANCH   9  10
ATOM     10  N   UNL     1      45.661   4.243   8.711  0.00  0.00    +0.000 NA
ATOM     11  H   UNL     1      46.157   4.141   9.596  0.00  0.00    +0.000 HD
BRANCH  10  12
ATOM     12  C   UNL     1      45.988   3.144   7.786  0.00  0.00    +0.000 C 
ATOM     13  C   UNL     1      46.205   1.788   8.475  0.00  0.00    +0.000 C 
ATOM     14  C   UNL     1      46.678   0.741   7.476  0.00  0.00    +0.000 C 
ATOM     15  O   UNL     1      47.865   1.175   6.820  0.00  0.00    +0.000 OA
ATOM     16  C   UNL     1      47.651   2.366   6.066  0.00  0.00    +0.000 C 
ATOM     17  C   UNL     1      47.234   3.519   6.972  0.00  0.00    +0.000 C 
ENDBRANCH  10  12
ENDBRANCH   9  10
ENDBRANCH   8   9
ENDBRANCH   5   8
ENDBRANCH   1   2
BRANCH   1  20
ATOM     18  C   UNL     1      48.759   6.557  15.594  0.00  0.00    +0.000 C 
ATOM     19  O   UNL     1      49.427   5.750  16.237  0.00  0.00    +0.000 OA
ATOM     20  N   UNL     1      47.656   6.153  14.882  0.00  0.00    +0.000 N 
ATOM     21  H   UNL     1      47.073   6.838  14.420  0.00  0.00    +0.000 HD
BRANCH  18  29
ATOM     22  C   UNL     1      49.716   8.690  13.078  0.00  0.00    +0.000 A 
ATOM     23  N   UNL     1      50.098   9.721  12.301  0.00  0.00    +0.000 NA
ATOM     24  C   UNL     1      50.284  10.907  12.878  0.00  0.00    +0.000 A 
ATOM     25  N   UNL     1      50.134  11.201  14.164  0.00  0.00    +0.000 NA
ATOM     26  C   UNL     1      49.749  10.148  14.904  0.00  0.00    +0.000 A 
ATOM     27  S   UNL     1      49.517  10.339  16.573  0.00  0.00    +0.000 S 
ATOM     28  C   UNL     1      49.087   8.706  16.749  0.00  0.00    +0.000 A 
ATOM     29  C   UNL     1      49.107   7.982  15.558  0.00  0.00    +0.000 A 
ATOM     30  C   UNL     1      49.506   8.855  14.455  0.00  0.00    +0.000 A 
BRANCH  22  32
ATOM     31  C   UNL     1      48.370   7.506  11.602  0.00  0.00    +0.000 C 
ATOM     32  O   UNL     1      49.507   7.474  12.462  0.00  0.00    +0.000 OA
ENDBRANCH  22  32
ENDBRANCH  18  29
ENDBRANCH   1  20
TORSDOF 8
ENDMDL
MODEL 7
REMARK VINA RESULT:    -5.989      3.584      9.266
REMARK INTER + INTRA:         -10.313
REMARK INTER:                  -8.659
REMARK INTRA:                  -1.653
REMARK UNBOUND:                -1.522
REMARK  Name = 
REMARK  9 active torsions:
REMARK  status: ('A' for Active; 'I' for Inactive)
REMARK    1  A    between atoms: C_1  and  O_2
REMARK    2  A    between atoms: O_2  and  C_3
REMARK    3  A    between atoms: C_10  and  C_11
REMARK    4  A    between atoms: N_13  and  C_14
REMARK    5  A    between atoms: C_14  and  C_15
REMARK    6  A    between atoms: C_18  and  C_19
REMARK    7  A    between atoms: C_19  and  C_20
REMARK    8  A    between atoms: C_20  and  N_21
REMARK    9  A    between atoms: N_21  and  C_22
REMARK                            x       y       z     vdW  Elec       q    Type
REMARK                         _______ _______ _______ _____ _____    ______ ____
ROOT
ATOM      1  C   UNL     1      47.479   3.490  16.509  0.00  0.00    +0.000 C 
ENDROOT
BRANCH   1   2
ATOM      2  C   UNL     1      48.386   4.107  17.542  0.00  0.00    +0.000 A 
ATOM      3  C   UNL     1      49.430   4.948  17.152  0.00  0.00    +0.000 A 
ATOM      4  C   UNL     1      50.291   5.500  18.100  0.00  0.00    +0.000 A 
ATOM      5  C   UNL     1      50.120   5.241  19.468  0.00  0.00    +0.000 A 
ATOM      6  C   UNL     1      49.086   4.384  19.859  0.00  0.00    +0.000 A 
ATOM      7  C   UNL     1      48.228   3.817  18.906  0.00  0.00    +0.000 A 
BRANCH   5   8
ATOM      8  C   UNL     1      51.043   5.818  20.517  0.00  0.00    +0.000 C 
BRANCH   8   9
ATOM      9  C   UNL     1      51.125   7.354  20.571  0.00  0.00    +0.000 C 
BRANCH   9  10
ATOM     10  N   UNL     1      49.859   8.020  20.888  0.00  0.00    +0.000 NA
ATOM     11  H   UNL     1      49.930   8.528  21.769  0.00  0.00    +0.000 HD
BRANCH  10  12
ATOM     12  C   UNL     1      49.389   8.897  19.802  0.00  0.00    +0.000 C 
ATOM     13  C   UNL     1      48.145   8.374  19.067  0.00  0.00    +0.000 C 
ATOM     14  C   UNL     1      47.807   9.258  17.874  0.00  0.00    +0.000 C 
ATOM     15  O   UNL     1      48.920   9.350  16.989  0.00  0.00    +0.000 OA
ATOM     16  C   UNL     1      50.049   9.956  17.616  0.00  0.00    +0.000 C 
ATOM     17  C   UNL     1      50.529   9.122  18.798  0.00  0.00    +0.000 C 
ENDBRANCH  10  12
ENDBRANCH   9  10
ENDBRANCH   8   9
ENDBRANCH   5   8
ENDBRANCH   1   2
BRANCH   1  20
ATOM     18  C   UNL     1      46.851   4.299  14.273  0.00  0.00    +0.000 C 
ATOM     19  O   UNL     1      47.239   3.253  13.756  0.00  0.00    +0.000 OA
ATOM     20  N   UNL     1      46.937   4.491  15.630  0.00  0.00    +0.000 N 
ATOM     21  H   UNL     1      46.684   5.384  16.032  0.00  0.00    +0.000 HD
BRANCH  18  29
ATOM     22  C   UNL     1      43.887   4.677  12.579  0.00  0.00    +0.000 A 
ATOM     23  N   UNL     1      42.831   5.083  11.850  0.00  0.00    +0.000 NA
ATOM     24  C   UNL     1      42.878   6.294  11.296  0.00  0.00    +0.000 A 
ATOM     25  N   UNL     1      43.871   7.172  11.379  0.00  0.00    +0.000 NA
ATOM     26  C   UNL     1      44.903   6.730  12.118  0.00  0.00    +0.000 A 
ATOM     27  S   UNL     1      46.265   7.720  12.325  0.00  0.00    +0.000 S 
ATOM     28  C   UNL     1      47.032   6.545  13.281  0.00  0.00    +0.000 A 
ATOM     29  C   UNL     1      46.281   5.386  13.468  0.00  0.00    +0.000 A 
ATOM     30  C   UNL     1      45.005   5.504  12.765  0.00  0.00    +0.000 A 
BRANCH  22  32
ATOM     31  C   UNL     1      43.519   2.415  12.207  0.00  0.00    +0.000 C 
ATOM     32  O   UNL     1      43.815   3.430  13.163  0.00  0.00    +0.000 OA
ENDBRANCH  22  32
ENDBRANCH  18  29
ENDBRANCH   1  20
TORSDOF 8
ENDMDL
