MODEL 1
REMARK VINA RESULT:    -8.003      0.000      0.000
REMARK INTER + INTRA:         -12.989
REMARK INTER:                 -11.746
REMARK INTRA:                  -1.243
REMARK UNBOUND:                -1.243
REMARK  Name = 
REMARK  9 active torsions:
REMARK  status: ('A' for Active; 'I' for Inactive)
REMARK    1  A    between atoms: C_1  and  C_2
REMARK    2  A    between atoms: C_5  and  O_6
REMARK    3  A    between atoms: O_6  and  C_7
REMARK    4  A    between atoms: C_9  and  C_10
REMARK    5  A    between atoms: C_10  and  C_11
REMARK    6  A    between atoms: C_16  and  O_17
REMARK    7  A    between atoms: O_17  and  C_18
REMARK    8  A    between atoms: C_18  and  C_19
REMARK    9  A    between atoms: C_19  and  C_22
REMARK                            x       y       z     vdW  Elec       q    Type
REMARK                         _______ _______ _______ _____ _____    ______ ____
ROOT
ATOM      1  C   UNL     1      46.721   4.772  14.296  0.00  0.00    +0.000 A 
ATOM      2  C   UNL     1      47.702   5.737  14.066  0.00  0.00    +0.000 A 
ATOM      3  C   UNL     1      47.696   6.481  12.877  0.00  0.00    +0.000 A 
ATOM      4  C   UNL     1      46.682   6.261  11.933  0.00  0.00    +0.000 A 
ATOM      5  C   UNL     1      45.686   5.312  12.163  0.00  0.00    +0.000 A 
ATOM      6  C   UNL     1      45.708   4.575  13.351  0.00  0.00    +0.000 A 
ENDROOT
BRANCH   1   7
ATOM      7  O   UNL     1      46.667   3.984  15.424  0.00  0.00    +0.000 OA
BRANCH   7  12
ATOM      8  C   UNL     1      47.736   5.800  18.352  0.00  0.00    +0.000 C 
ATOM      9  C   UNL     1      47.369   4.420  17.839  0.00  0.00    +0.000 C 
ATOM     10  N   UNL     1      48.341   3.403  18.307  0.00  0.00    +0.000 NA
ATOM     11  C   UNL     1      48.274   2.747  16.988  0.00  0.00    +0.000 C 
ATOM     12  C   UNL     1      47.762   4.073  16.373  0.00  0.00    +0.000 C 
ATOM     13  H   UNL     1      48.014   2.829  19.083  0.00  0.00    +0.000 HD
ENDBRANCH   7  12
ENDBRANCH   1   7
BRANCH   3  14
ATOM     14  C   UNL     1      48.790   7.478  12.586  0.00  0.00    +0.000 C 
BRANCH  14  15
ATOM     15  C   UNL     1      48.401   8.930  12.842  0.00  0.00    +0.000 C 
ATOM     16  F   UNL     1      47.251   9.064  13.535  0.00  0.00    +0.000 F 
ATOM     17  F   UNL     1      49.369   9.562  13.547  0.00  0.00    +0.000 F 
ATOM     18  F   UNL     1      48.252   9.597  11.674  0.00  0.00    +0.000 F 
ENDBRANCH  14  15
ENDBRANCH   3  14
BRANCH   5  19
ATOM     19  O   UNL     1      44.659   5.022  11.299  0.00  0.00    +0.000 OA
BRANCH  19  20
ATOM     20  C   UNL     1      44.820   3.847  10.490  0.00  0.00    +0.000 C 
BRANCH  20  21
ATOM     21  C   UNL     1      45.044   4.186   9.009  0.00  0.00    +0.000 C 
ATOM     22  F   UNL     1      43.834   4.449   8.432  0.00  0.00    +0.000 F 
ATOM     23  F   UNL     1      45.710   5.385   8.975  0.00  0.00    +0.000 F 
BRANCH  21  24
ATOM     24  C   UNL     1      45.811   3.115   8.285  0.00  0.00    +0.000 A 
ATOM     25  C   UNL     1      46.675   3.407   7.223  0.00  0.00    +0.000 A 
ATOM     26  C   UNL     1      47.374   2.378   6.601  0.00  0.00    +0.000 A 
ATOM     27  C   UNL     1      47.188   1.086   7.064  0.00  0.00    +0.000 A 
ATOM     28  N   UNL     1      46.365   0.769   8.085  0.00  0.00    +0.000 NA
ATOM     29  C   UNL     1      45.696   1.784   8.672  0.00  0.00    +0.000 A 
ENDBRANCH  21  24
ENDBRANCH  20  21
ENDBRANCH  19  20
ENDBRANCH   5  19
TORSDOF 8
ENDMDL
MODEL 2
REMARK VINA RESULT:    -7.660      1.506      2.133
REMARK INTER + INTRA:         -12.485
REMARK INTER:                 -11.149
REMARK INTRA:                  -1.336
REMARK UNBOUND:                -1.243
REMARK  Name = 
REMARK  9 active torsions:
REMARK  status: ('A' for Active; 'I' for Inactive)
REMARK    1  A    between atoms: C_1  and  C_2
REMARK    2  A    between atoms: C_5  and  O_6
REMARK    3  A    between atoms: O_6  and  C_7
REMARK    4  A    between atoms: C_9  and  C_10
REMARK    5  A    between atoms: C_10  and  C_11
REMARK    6  A    between atoms: C_16  and  O_17
REMARK    7  A    between atoms: O_17  and  C_18
REMARK    8  A    between atoms: C_18  and  C_19
REMARK    9  A    between atoms: C_19  and  C_22
REMARK                            x       y       z     vdW  Elec       q    Type
REMARK                         _______ _______ _______ _____ _____    ______ ____
ROOT
ATOM      1  C   UNL     1      47.901   5.846  14.510  0.00  0.00    +0.000 A 
ATOM      2  C   UNL     1      48.537   6.741  13.649  0.00  0.00    +0.000 A 
ATOM      3  C   UNL     1      47.958   7.062  12.413  0.00  0.00    +0.000 A 
ATOM      4  C   UNL     1      46.725   6.494  12.061  0.00  0.00    +0.000 A 
ATOM      5  C   UNL     1      46.073   5.614  12.924  0.00  0.00    +0.000 A 
ATOM      6  C   UNL     1      46.664   5.299  14.152  0.00  0.00    +0.000 A 
ENDROOT
BRANCH   1   7
ATOM      7  O   UNL     1      48.410   5.458  15.730  0.00  0.00    +0.000 OA
BRANCH   7  12
ATOM      8  C   UNL     1      49.097   2.034  16.637  0.00  0.00    +0.000 C 
ATOM      9  C   UNL     1      48.781   3.406  17.203  0.00  0.00    +0.000 C 
ATOM     10  N   UNL     1      47.752   3.318  18.267  0.00  0.00    +0.000 NA
ATOM     11  C   UNL     1      47.133   4.556  17.758  0.00  0.00    +0.000 C 
ATOM     12  C   UNL     1      47.811   4.311  16.387  0.00  0.00    +0.000 C 
ATOM     13  H   UNL     1      48.117   3.386  19.216  0.00  0.00    +0.000 HD
ENDBRANCH   7  12
ENDBRANCH   1   7
BRANCH   3  14
ATOM     14  C   UNL     1      48.669   7.974  11.443  0.00  0.00    +0.000 C 
BRANCH  14  15
ATOM     15  C   UNL     1      48.730   9.433  11.883  0.00  0.00    +0.000 C 
ATOM     16  F   UNL     1      47.775   9.766  12.776  0.00  0.00    +0.000 F 
ATOM     17  F   UNL     1      49.927   9.705  12.457  0.00  0.00    +0.000 F 
ATOM     18  F   UNL     1      48.597  10.259  10.820  0.00  0.00    +0.000 F 
ENDBRANCH  14  15
ENDBRANCH   3  14
BRANCH   5  19
ATOM     19  O   UNL     1      44.870   5.004  12.667  0.00  0.00    +0.000 OA
BRANCH  19  20
ATOM     20  C   UNL     1      44.926   3.628  12.261  0.00  0.00    +0.000 C 
BRANCH  20  21
ATOM     21  C   UNL     1      44.082   3.355  11.008  0.00  0.00    +0.000 C 
ATOM     22  F   UNL     1      43.398   2.186  11.187  0.00  0.00    +0.000 F 
ATOM     23  F   UNL     1      43.108   4.321  10.970  0.00  0.00    +0.000 F 
BRANCH  21  24
ATOM     24  C   UNL     1      44.904   3.360   9.750  0.00  0.00    +0.000 A 
ATOM     25  C   UNL     1      45.317   2.177   9.126  0.00  0.00    +0.000 A 
ATOM     26  C   UNL     1      46.062   2.241   7.953  0.00  0.00    +0.000 A 
ATOM     27  C   UNL     1      46.369   3.490   7.439  0.00  0.00    +0.000 A 
ATOM     28  N   UNL     1      45.987   4.650   8.014  0.00  0.00    +0.000 NA
ATOM     29  C   UNL     1      45.266   4.562   9.152  0.00  0.00    +0.000 A 
ENDBRANCH  21  24
ENDBRANCH  20  21
ENDBRANCH  19  20
ENDBRANCH   5  19
TORSDOF 8
ENDMDL
MODEL 3
REMARK VINA RESULT:    -7.208      3.341      7.642
REMARK INTER + INTRA:         -11.822
REMARK INTER:                 -10.548
REMARK INTRA:                  -1.273
REMARK UNBOUND:                -1.243
REMARK  Name = 
REMARK  9 active torsions:
REMARK  status: ('A' for Active; 'I' for Inactive)
REMARK    1  A    between atoms: C_1  and  C_2
REMARK    2  A    between atoms: C_5  and  O_6
REMARK    3  A    between atoms: O_6  and  C_7
REMARK    4  A    between atoms: C_9  and  C_10
REMARK    5  A    between atoms: C_10  and  C_11
REMARK    6  A    between atoms: C_16  and  O_17
REMARK    7  A    between atoms: O_17  and  C_18
REMARK    8  A    between atoms: C_18  and  C_19
REMARK    9  A    between atoms: C_19  and  C_22
REMARK                            x       y       z     vdW  Elec       q    Type
REMARK                         _______ _______ _______ _____ _____    ______ ____
ROOT
ATOM      1  C   UNL     1      45.958   6.041  11.880  0.00  0.00    +0.000 A 
ATOM      2  C   UNL     1      45.109   5.298  11.060  0.00  0.00    +0.000 A 
ATOM      3  C   UNL     1      44.812   3.964  11.374  0.00  0.00    +0.000 A 
ATOM      4  C   UNL     1      45.359   3.392  12.533  0.00  0.00    +0.000 A 
ATOM      5  C   UNL     1      46.193   4.132  13.369  0.00  0.00    +0.000 A 
ATOM      6  C   UNL     1      46.483   5.460  13.041  0.00  0.00    +0.000 A 
ENDROOT
BRANCH   1   7
ATOM      7  O   UNL     1      46.320   7.346  11.633  0.00  0.00    +0.000 OA
BRANCH   7  12
ATOM      8  C   UNL     1      49.922   7.527  11.736  0.00  0.00    +0.000 C 
ATOM      9  C   UNL     1      48.662   8.361  11.595  0.00  0.00    +0.000 C 
ATOM     10  N   UNL     1      48.732   9.577  12.440  0.00  0.00    +0.000 NA
ATOM     11  C   UNL     1      47.308   9.410  12.783  0.00  0.00    +0.000 C 
ATOM     12  C   UNL     1      47.411   7.911  12.406  0.00  0.00    +0.000 C 
ATOM     13  H   UNL     1      48.948  10.434  11.932  0.00  0.00    +0.000 HD
ENDBRANCH   7  12
ENDBRANCH   1   7
BRANCH   3  14
ATOM     14  C   UNL     1      43.951   3.130  10.458  0.00  0.00    +0.000 C 
BRANCH  14  15
ATOM     15  C   UNL     1      44.675   2.599   9.226  0.00  0.00    +0.000 C 
ATOM     16  F   UNL     1      44.280   1.361   8.862  0.00  0.00    +0.000 F 
ATOM     17  F   UNL     1      44.464   3.414   8.165  0.00  0.00    +0.000 F 
ATOM     18  F   UNL     1      46.010   2.553   9.440  0.00  0.00    +0.000 F 
ENDBRANCH  14  15
ENDBRANCH   3  14
BRANCH   5  19
ATOM     19  O   UNL     1      46.778   3.660  14.518  0.00  0.00    +0.000 OA
BRANCH  19  20
ATOM     20  C   UNL     1      47.395   4.640  15.367  0.00  0.00    +0.000 C 
BRANCH  20  21
ATOM     21  C   UNL     1      47.583   4.129  16.804  0.00  0.00    +0.000 C 
ATOM     22  F   UNL     1      47.326   5.154  17.670  0.00  0.00    +0.000 F 
ATOM     23  F   UNL     1      46.578   3.223  17.036  0.00  0.00    +0.000 F 
BRANCH  21  24
ATOM     24  C   UNL     1      48.935   3.511  17.021  0.00  0.00    +0.000 A 
ATOM     25  C   UNL     1      49.998   4.225  17.588  0.00  0.00    +0.000 A 
ATOM     26  C   UNL     1      51.224   3.597  17.782  0.00  0.00    +0.000 A 
ATOM     27  C   UNL     1      51.348   2.271  17.403  0.00  0.00    +0.000 A 
ATOM     28  N   UNL     1      50.346   1.553  16.855  0.00  0.00    +0.000 NA
ATOM     29  C   UNL     1      49.166   2.184  16.675  0.00  0.00    +0.000 A 
ENDBRANCH  21  24
ENDBRANCH  20  21
ENDBRANCH  19  20
ENDBRANCH   5  19
TORSDOF 8
ENDMDL
MODEL 4
REMARK VINA RESULT:    -7.093      3.616      7.919
REMARK INTER + INTRA:         -11.653
REMARK INTER:                 -10.380
REMARK INTRA:                  -1.273
REMARK UNBOUND:                -1.243
REMARK  Name = 
REMARK  9 active torsions:
REMARK  status: ('A' for Active; 'I' for Inactive)
REMARK    1  A    between atoms: C_1  and  C_2
REMARK    2  A    between atoms: C_5  and  O_6
REMARK    3  A    between atoms: O_6  and  C_7
REMARK    4  A    between atoms: C_9  and  C_10
REMARK    5  A    between atoms: C_10  and  C_11
REMARK    6  A    between atoms: C_16  and  O_17
REMARK    7  A    between atoms: O_17  and  C_18
REMARK    8  A    between atoms: C_18  and  C_19
REMARK    9  A    between atoms: C_19  and  C_22
REMARK                            x       y       z     vdW  Elec       q    Type
REMARK                         _______ _______ _______ _____ _____    ______ ____
ROOT
ATOM      1  C   UNL     1      46.109   5.992  12.294  0.00  0.00    +0.000 A 
ATOM      2  C   UNL     1      45.186   5.367  11.455  0.00  0.00    +0.000 A 
ATOM      3  C   UNL     1      44.957   3.988  11.560  0.00  0.00    +0.000 A 
ATOM      4  C   UNL     1      45.648   3.247  12.531  0.00  0.00    +0.000 A 
ATOM      5  C   UNL     1      46.559   3.866  13.386  0.00  0.00    +0.000 A 
ATOM      6  C   UNL     1      46.780   5.242  13.267  0.00  0.00    +0.000 A 
ENDROOT
BRANCH   1   7
ATOM      7  O   UNL     1      46.411   7.334  12.241  0.00  0.00    +0.000 OA
BRANCH   7  12
ATOM      8  C   UNL     1      49.927   7.626  11.482  0.00  0.00    +0.000 C 
ATOM      9  C   UNL     1      48.683   8.424  11.830  0.00  0.00    +0.000 C 
ATOM     10  N   UNL     1      48.979   9.449  12.858  0.00  0.00    +0.000 NA
ATOM     11  C   UNL     1      47.684   9.164  13.503  0.00  0.00    +0.000 C 
ATOM     12  C   UNL     1      47.668   7.775  12.818  0.00  0.00    +0.000 C 
ATOM     13  H   UNL     1      49.073  10.398  12.496  0.00  0.00    +0.000 HD
ENDBRANCH   7  12
ENDBRANCH   1   7
BRANCH   3  14
ATOM     14  C   UNL     1      44.012   3.289  10.614  0.00  0.00    +0.000 C 
BRANCH  14  15
ATOM     15  C   UNL     1      44.575   3.069   9.214  0.00  0.00    +0.000 C 
ATOM     16  F   UNL     1      45.923   3.064   9.171  0.00  0.00    +0.000 F 
ATOM     17  F   UNL     1      44.154   1.882   8.716  0.00  0.00    +0.000 F 
ATOM     18  F   UNL     1      44.146   4.035   8.369  0.00  0.00    +0.000 F 
ENDBRANCH  14  15
ENDBRANCH   3  14
BRANCH   5  19
ATOM     19  O   UNL     1      47.285   3.228  14.361  0.00  0.00    +0.000 OA
BRANCH  19  20
ATOM     20  C   UNL     1      47.442   3.931  15.603  0.00  0.00    +0.000 C 
BRANCH  20  21
ATOM     21  C   UNL     1      48.083   3.056  16.691  0.00  0.00    +0.000 C 
ATOM     22  F   UNL     1      47.092   2.530  17.470  0.00  0.00    +0.000 F 
ATOM     23  F   UNL     1      48.632   1.973  16.053  0.00  0.00    +0.000 F 
BRANCH  21  24
ATOM     24  C   UNL     1      49.116   3.801  17.489  0.00  0.00    +0.000 A 
ATOM     25  C   UNL     1      50.435   3.346  17.608  0.00  0.00    +0.000 A 
ATOM     26  C   UNL     1      51.355   4.085  18.345  0.00  0.00    +0.000 A 
ATOM     27  C   UNL     1      50.925   5.259  18.940  0.00  0.00    +0.000 A 
ATOM     28  N   UNL     1      49.663   5.727  18.846  0.00  0.00    +0.000 NA
ATOM     29  C   UNL     1      48.788   4.992  18.126  0.00  0.00    +0.000 A 
ENDBRANCH  21  24
ENDBRANCH  20  21
ENDBRANCH  19  20
ENDBRANCH   5  19
TORSDOF 8
ENDMDL
MODEL 5
REMARK VINA RESULT:    -7.056      2.445      7.219
REMARK INTER + INTRA:         -11.599
REMARK INTER:                 -10.781
REMARK INTRA:                  -0.818
REMARK UNBOUND:                -1.243
REMARK  Name = 
REMARK  9 active torsions:
REMARK  status: ('A' for Active; 'I' for Inactive)
REMARK    1  A    between atoms: C_1  and  C_2
REMARK    2  A    between atoms: C_5  and  O_6
REMARK    3  A    between atoms: O_6  and  C_7
REMARK    4  A    between atoms: C_9  and  C_10
REMARK    5  A    between atoms: C_10  and  C_11
REMARK    6  A    between atoms: C_16  and  O_17
REMARK    7  A    between atoms: O_17  and  C_18
REMARK    8  A    between atoms: C_18  and  C_19
REMARK    9  A    between atoms: C_19  and  C_22
REMARK                            x       y       z     vdW  Elec       q    Type
REMARK                         _______ _______ _______ _____ _____    ______ ____
ROOT
ATOM      1  C   UNL     1      44.955   5.558  12.205  0.00  0.00    +0.000 A 
ATOM      2  C   UNL     1      45.902   6.387  11.601  0.00  0.00    +0.000 A 
ATOM      3  C   UNL     1      47.177   6.530  12.167  0.00  0.00    +0.000 A 
ATOM      4  C   UNL     1      47.498   5.816  13.331  0.00  0.00    +0.000 A 
ATOM      5  C   UNL     1      46.565   4.970  13.930  0.00  0.00    +0.000 A 
ATOM      6  C   UNL     1      45.296   4.841  13.356  0.00  0.00    +0.000 A 
ENDROOT
BRANCH   1   7
ATOM      7  O   UNL     1      43.675   5.379  11.729  0.00  0.00    +0.000 OA
BRANCH   7  12
ATOM      8  C   UNL     1      44.708   3.962   8.576  0.00  0.00    +0.000 C 
ATOM      9  C   UNL     1      44.658   3.705  10.071  0.00  0.00    +0.000 C 
ATOM     10  N   UNL     1      44.188   2.329  10.357  0.00  0.00    +0.000 NA
ATOM     11  C   UNL     1      43.403   2.844  11.494  0.00  0.00    +0.000 C 
ATOM     12  C   UNL     1      43.425   4.252  10.850  0.00  0.00    +0.000 C 
ATOM     13  H   UNL     1      44.926   1.674  10.614  0.00  0.00    +0.000 HD
ENDBRANCH   7  12
ENDBRANCH   1   7
BRANCH   3  14
ATOM     14  C   UNL     1      48.186   7.476  11.563  0.00  0.00    +0.000 C 
BRANCH  14  15
ATOM     15  C   UNL     1      48.162   8.881  12.154  0.00  0.00    +0.000 C 
ATOM     16  F   UNL     1      46.917   9.379  12.306  0.00  0.00    +0.000 F 
ATOM     17  F   UNL     1      48.749   8.891  13.375  0.00  0.00    +0.000 F 
ATOM     18  F   UNL     1      48.850   9.742  11.369  0.00  0.00    +0.000 F 
ENDBRANCH  14  15
ENDBRANCH   3  14
BRANCH   5  19
ATOM     19  O   UNL     1      46.783   4.236  15.069  0.00  0.00    +0.000 OA
BRANCH  19  20
ATOM     20  C   UNL     1      47.619   4.843  16.067  0.00  0.00    +0.000 C 
BRANCH  20  21
ATOM     21  C   UNL     1      47.800   3.944  17.300  0.00  0.00    +0.000 C 
ATOM     22  F   UNL     1      47.327   4.605  18.397  0.00  0.00    +0.000 F 
ATOM     23  F   UNL     1      46.945   2.882  17.143  0.00  0.00    +0.000 F 
BRANCH  21  24
ATOM     24  C   UNL     1      49.220   3.480  17.467  0.00  0.00    +0.000 A 
ATOM     25  C   UNL     1      49.642   2.210  17.056  0.00  0.00    +0.000 A 
ATOM     26  C   UNL     1      50.973   1.840  17.219  0.00  0.00    +0.000 A 
ATOM     27  C   UNL     1      51.842   2.756  17.788  0.00  0.00    +0.000 A 
ATOM     28  N   UNL     1      51.470   3.987  18.196  0.00  0.00    +0.000 NA
ATOM     29  C   UNL     1      50.173   4.323  18.028  0.00  0.00    +0.000 A 
ENDBRANCH  21  24
ENDBRANCH  20  21
ENDBRANCH  19  20
ENDBRANCH   5  19
TORSDOF 8
ENDMDL
MODEL 6
REMARK VINA RESULT:    -7.049      3.483      5.023
REMARK INTER + INTRA:         -11.589
REMARK INTER:                 -10.282
REMARK INTRA:                  -1.307
REMARK UNBOUND:                -1.243
REMARK  Name = 
REMARK  9 active torsions:
REMARK  status: ('A' for Active; 'I' for Inactive)
REMARK    1  A    between atoms: C_1  and  C_2
REMARK    2  A    between atoms: C_5  and  O_6
REMARK    3  A    between atoms: O_6  and  C_7
REMARK    4  A    between atoms: C_9  and  C_10
REMARK    5  A    between atoms: C_10  and  C_11
REMARK    6  A    between atoms: C_16  and  O_17
REMARK    7  A    between atoms: O_17  and  C_18
REMARK    8  A    between atoms: C_18  and  C_19
REMARK    9  A    between atoms: C_19  and  C_22
REMARK                            x       y       z     vdW  Elec       q    Type
REMARK                         _______ _______ _______ _____ _____    ______ ____
ROOT
ATOM      1  C   UNL     1      48.225   6.287  13.867  0.00  0.00    +0.000 A 
ATOM      2  C   UNL     1      48.283   5.961  15.222  0.00  0.00    +0.000 A 
ATOM      3  C   UNL     1      47.523   4.895  15.725  0.00  0.00    +0.000 A 
ATOM      4  C   UNL     1      46.722   4.147  14.850  0.00  0.00    +0.000 A 
ATOM      5  C   UNL     1      46.673   4.453  13.490  0.00  0.00    +0.000 A 
ATOM      6  C   UNL     1      47.433   5.521  13.004  0.00  0.00    +0.000 A 
ENDROOT
BRANCH   1   7
ATOM      7  O   UNL     1      48.919   7.330  13.297  0.00  0.00    +0.000 OA
BRANCH   7  12
ATOM      8  C   UNL     1      45.565   8.620  12.962  0.00  0.00    +0.000 C 
ATOM      9  C   UNL     1      46.966   8.970  13.430  0.00  0.00    +0.000 C 
ATOM     10  N   UNL     1      47.364  10.316  12.956  0.00  0.00    +0.000 NA
ATOM     11  C   UNL     1      48.724   9.812  12.694  0.00  0.00    +0.000 C 
ATOM     12  C   UNL     1      48.159   8.371  12.628  0.00  0.00    +0.000 C 
ATOM     13  H   UNL     1      47.312  11.048  13.664  0.00  0.00    +0.000 HD
ENDBRANCH   7  12
ENDBRANCH   1   7
BRANCH   3  14
ATOM     14  C   UNL     1      47.524   4.577  17.201  0.00  0.00    +0.000 C 
BRANCH  14  15
ATOM     15  C   UNL     1      47.904   3.138  17.532  0.00  0.00    +0.000 C 
ATOM     16  F   UNL     1      48.635   2.539  16.569  0.00  0.00    +0.000 F 
ATOM     17  F   UNL     1      48.631   3.091  18.673  0.00  0.00    +0.000 F 
ATOM     18  F   UNL     1      46.797   2.384  17.728  0.00  0.00    +0.000 F 
ENDBRANCH  14  15
ENDBRANCH   3  14
BRANCH   5  19
ATOM     19  O   UNL     1      45.918   3.785  12.559  0.00  0.00    +0.000 OA
BRANCH  19  20
ATOM     20  C   UNL     1      44.505   4.042  12.581  0.00  0.00    +0.000 C 
BRANCH  20  21
ATOM     21  C   UNL     1      44.001   4.641  11.259  0.00  0.00    +0.000 C 
ATOM     22  F   UNL     1      42.641   4.517  11.213  0.00  0.00    +0.000 F 
ATOM     23  F   UNL     1      44.221   5.994  11.330  0.00  0.00    +0.000 F 
BRANCH  21  24
ATOM     24  C   UNL     1      44.680   4.040  10.061  0.00  0.00    +0.000 A 
ATOM     25  C   UNL     1      44.630   2.668   9.787  0.00  0.00    +0.000 A 
ATOM     26  C   UNL     1      45.263   2.168   8.653  0.00  0.00    +0.000 A 
ATOM     27  C   UNL     1      45.926   3.059   7.827  0.00  0.00    +0.000 A 
ATOM     28  N   UNL     1      45.994   4.387   8.060  0.00  0.00    +0.000 NA
ATOM     29  C   UNL     1      45.373   4.848   9.166  0.00  0.00    +0.000 A 
ENDBRANCH  21  24
ENDBRANCH  20  21
ENDBRANCH  19  20
ENDBRANCH   5  19
TORSDOF 8
ENDMDL
MODEL 7
REMARK VINA RESULT:    -6.856      3.411      6.913
REMARK INTER + INTRA:         -11.305
REMARK INTER:                 -10.118
REMARK INTRA:                  -1.187
REMARK UNBOUND:                -1.243
REMARK  Name = 
REMARK  9 active torsions:
REMARK  status: ('A' for Active; 'I' for Inactive)
REMARK    1  A    between atoms: C_1  and  C_2
REMARK    2  A    between atoms: C_5  and  O_6
REMARK    3  A    between atoms: O_6  and  C_7
REMARK    4  A    between atoms: C_9  and  C_10
REMARK    5  A    between atoms: C_10  and  C_11
REMARK    6  A    between atoms: C_16  and  O_17
REMARK    7  A    between atoms: O_17  and  C_18
REMARK    8  A    between atoms: C_18  and  C_19
REMARK    9  A    between atoms: C_19  and  C_22
REMARK                            x       y       z     vdW  Elec       q    Type
REMARK                         _______ _______ _______ _____ _____    ______ ____
ROOT
ATOM      1  C   UNL     1      46.645   5.839  12.070  0.00  0.00    +0.000 A 
ATOM      2  C   UNL     1      47.257   7.018  11.645  0.00  0.00    +0.000 A 
ATOM      3  C   UNL     1      48.158   7.688  12.485  0.00  0.00    +0.000 A 
ATOM      4  C   UNL     1      48.455   7.150  13.746  0.00  0.00    +0.000 A 
ATOM      5  C   UNL     1      47.863   5.962  14.172  0.00  0.00    +0.000 A 
ATOM      6  C   UNL     1      46.963   5.307  13.325  0.00  0.00    +0.000 A 
ENDROOT
BRANCH   1   7
ATOM      7  O   UNL     1      45.732   5.132  11.320  0.00  0.00    +0.000 OA
BRANCH   7  12
ATOM      8  C   UNL     1      42.205   5.732  11.786  0.00  0.00    +0.000 C 
ATOM      9  C   UNL     1      43.211   4.739  11.235  0.00  0.00    +0.000 C 
ATOM     10  N   UNL     1      42.870   3.355  11.645  0.00  0.00    +0.000 NA
ATOM     11  C   UNL     1      44.303   3.074  11.852  0.00  0.00    +0.000 C 
ATOM     12  C   UNL     1      44.564   4.594  11.993  0.00  0.00    +0.000 C 
ATOM     13  H   UNL     1      42.429   2.794  10.917  0.00  0.00    +0.000 HD
ENDBRANCH   7  12
ENDBRANCH   1   7
BRANCH   3  14
ATOM     14  C   UNL     1      48.774   9.000  12.064  0.00  0.00    +0.000 C 
BRANCH  14  15
ATOM     15  C   UNL     1      50.273   8.933  11.798  0.00  0.00    +0.000 C 
ATOM     16  F   UNL     1      51.020   8.967  12.921  0.00  0.00    +0.000 F 
ATOM     17  F   UNL     1      50.588   7.790  11.143  0.00  0.00    +0.000 F 
ATOM     18  F   UNL     1      50.667   9.966  11.018  0.00  0.00    +0.000 F 
ENDBRANCH  14  15
ENDBRANCH   3  14
BRANCH   5  19
ATOM     19  O   UNL     1      48.084   5.361  15.386  0.00  0.00    +0.000 OA
BRANCH  19  20
ATOM     20  C   UNL     1      47.086   4.428  15.827  0.00  0.00    +0.000 C 
BRANCH  20  21
ATOM     21  C   UNL     1      47.433   3.801  17.186  0.00  0.00    +0.000 C 
ATOM     22  F   UNL     1      47.176   4.715  18.168  0.00  0.00    +0.000 F 
ATOM     23  F   UNL     1      46.523   2.797  17.402  0.00  0.00    +0.000 F 
BRANCH  21  24
ATOM     24  C   UNL     1      48.842   3.279  17.232  0.00  0.00    +0.000 A 
ATOM     25  C   UNL     1      49.856   3.936  17.940  0.00  0.00    +0.000 A 
ATOM     26  C   UNL     1      51.139   3.397  17.964  0.00  0.00    +0.000 A 
ATOM     27  C   UNL     1      51.366   2.216  17.279  0.00  0.00    +0.000 A 
ATOM     28  N   UNL     1      50.413   1.556  16.588  0.00  0.00    +0.000 NA
ATOM     29  C   UNL     1      49.176   2.098  16.578  0.00  0.00    +0.000 A 
ENDBRANCH  21  24
ENDBRANCH  20  21
ENDBRANCH  19  20
ENDBRANCH   5  19
TORSDOF 8
ENDMDL
MODEL 8
REMARK VINA RESULT:    -6.431      3.635      5.085
REMARK INTER + INTRA:         -10.682
REMARK INTER:                  -9.549
REMARK INTRA:                  -1.133
REMARK UNBOUND:                -1.243
REMARK  Name = 
REMARK  9 active torsions:
REMARK  status: ('A' for Active; 'I' for Inactive)
REMARK    1  A    between atoms: C_1  and  C_2
REMARK    2  A    between atoms: C_5  and  O_6
REMARK    3  A    between atoms: O_6  and  C_7
REMARK    4  A    between atoms: C_9  and  C_10
REMARK    5  A    between atoms: C_10  and  C_11
REMARK    6  A    between atoms: C_16  and  O_17
REMARK    7  A    between atoms: O_17  and  C_18
REMARK    8  A    between atoms: C_18  and  C_19
REMARK    9  A    between atoms: C_19  and  C_22
REMARK                            x       y       z     vdW  Elec       q    Type
REMARK                         _______ _______ _______ _____ _____    ______ ____
ROOT
ATOM      1  C   UNL     1      48.365   6.571  14.090  0.00  0.00    +0.000 A 
ATOM      2  C   UNL     1      48.509   6.169  15.417  0.00  0.00    +0.000 A 
ATOM      3  C   UNL     1      47.779   5.076  15.907  0.00  0.00    +0.000 A 
ATOM      4  C   UNL     1      46.921   4.379  15.044  0.00  0.00    +0.000 A 
ATOM      5  C   UNL     1      46.785   4.762  13.710  0.00  0.00    +0.000 A 
ATOM      6  C   UNL     1      47.516   5.856  13.237  0.00  0.00    +0.000 A 
ENDROOT
BRANCH   1   7
ATOM      7  O   UNL     1      49.024   7.645  13.535  0.00  0.00    +0.000 OA
BRANCH   7  12
ATOM      8  C   UNL     1      52.327   8.015  14.942  0.00  0.00    +0.000 C 
ATOM      9  C   UNL     1      51.301   8.684  14.046  0.00  0.00    +0.000 C 
ATOM     10  N   UNL     1      51.171  10.125  14.369  0.00  0.00    +0.000 NA
ATOM     11  C   UNL     1      49.713  10.028  14.174  0.00  0.00    +0.000 C 
ATOM     12  C   UNL     1      49.799   8.501  14.417  0.00  0.00    +0.000 C 
ATOM     13  H   UNL     1      51.646  10.749  13.717  0.00  0.00    +0.000 HD
ENDBRANCH   7  12
ENDBRANCH   1   7
BRANCH   3  14
ATOM     14  C   UNL     1      47.874   4.674  17.359  0.00  0.00    +0.000 C 
BRANCH  14  15
ATOM     15  C   UNL     1      47.965   3.170  17.589  0.00  0.00    +0.000 C 
ATOM     16  F   UNL     1      46.774   2.541  17.510  0.00  0.00    +0.000 F 
ATOM     17  F   UNL     1      48.781   2.599  16.671  0.00  0.00    +0.000 F 
ATOM     18  F   UNL     1      48.484   2.904  18.810  0.00  0.00    +0.000 F 
ENDBRANCH  14  15
ENDBRANCH   3  14
BRANCH   5  19
ATOM     19  O   UNL     1      45.969   4.148  12.793  0.00  0.00    +0.000 OA
BRANCH  19  20
ATOM     20  C   UNL     1      44.579   4.503  12.838  0.00  0.00    +0.000 C 
BRANCH  20  21
ATOM     21  C   UNL     1      44.133   5.275  11.587  0.00  0.00    +0.000 C 
ATOM     22  F   UNL     1      42.772   5.391  11.606  0.00  0.00    +0.000 F 
ATOM     23  F   UNL     1      44.591   6.561  11.733  0.00  0.00    +0.000 F 
BRANCH  21  24
ATOM     24  C   UNL     1      44.646   4.654  10.318  0.00  0.00    +0.000 A 
ATOM     25  C   UNL     1      44.234   3.387   9.890  0.00  0.00    +0.000 A 
ATOM     26  C   UNL     1      44.727   2.868   8.697  0.00  0.00    +0.000 A 
ATOM     27  C   UNL     1      45.618   3.637   7.968  0.00  0.00    +0.000 A 
ATOM     28  N   UNL     1      46.036   4.862   8.350  0.00  0.00    +0.000 NA
ATOM     29  C   UNL     1      45.544   5.344   9.511  0.00  0.00    +0.000 A 
ENDBRANCH  21  24
ENDBRANCH  20  21
ENDBRANCH  19  20
ENDBRANCH   5  19
TORSDOF 8
ENDMDL
MODEL 9
REMARK VINA RESULT:    -6.353      2.704      6.646
REMARK INTER + INTRA:         -10.567
REMARK INTER:                  -9.356
REMARK INTRA:                  -1.211
REMARK UNBOUND:                -1.243
REMARK  Name = 
REMARK  9 active torsions:
REMARK  status: ('A' for Active; 'I' for Inactive)
REMARK    1  A    between atoms: C_1  and  C_2
REMARK    2  A    between atoms: C_5  and  O_6
REMARK    3  A    between atoms: O_6  and  C_7
REMARK    4  A    between atoms: C_9  and  C_10
REMARK    5  A    between atoms: C_10  and  C_11
REMARK    6  A    between atoms: C_16  and  O_17
REMARK    7  A    between atoms: O_17  and  C_18
REMARK    8  A    between atoms: C_18  and  C_19
REMARK    9  A    between atoms: C_19  and  C_22
REMARK                            x       y       z     vdW  Elec       q    Type
REMARK                         _______ _______ _______ _____ _____    ______ ____
ROOT
ATOM      1  C   UNL     1      46.535   4.021  13.220  0.00  0.00    +0.000 A 
ATOM      2  C   UNL     1      45.724   3.211  12.424  0.00  0.00    +0.000 A 
ATOM      3  C   UNL     1      44.946   3.778  11.405  0.00  0.00    +0.000 A 
ATOM      4  C   UNL     1      45.008   5.161  11.178  0.00  0.00    +0.000 A 
ATOM      5  C   UNL     1      45.831   5.975  11.955  0.00  0.00    +0.000 A 
ATOM      6  C   UNL     1      46.598   5.396  12.971  0.00  0.00    +0.000 A 
ENDROOT
BRANCH   1   7
ATOM      7  O   UNL     1      47.312   3.550  14.255  0.00  0.00    +0.000 OA
BRANCH   7  12
ATOM      8  C   UNL     1      47.193   2.810  17.785  0.00  0.00    +0.000 C 
ATOM      9  C   UNL     1      47.986   3.543  16.718  0.00  0.00    +0.000 C 
ATOM     10  N   UNL     1      48.362   4.902  17.174  0.00  0.00    +0.000 NA
ATOM     11  C   UNL     1      48.088   5.422  15.822  0.00  0.00    +0.000 C 
ATOM     12  C   UNL     1      47.185   4.193  15.551  0.00  0.00    +0.000 C 
ATOM     13  H   UNL     1      49.332   4.995  17.476  0.00  0.00    +0.000 HD
ENDBRANCH   7  12
ENDBRANCH   1   7
BRANCH   3  14
ATOM     14  C   UNL     1      44.012   2.923  10.583  0.00  0.00    +0.000 C 
BRANCH  14  15
ATOM     15  C   UNL     1      44.619   2.398   9.286  0.00  0.00    +0.000 C 
ATOM     16  F   UNL     1      44.253   3.103   8.197  0.00  0.00    +0.000 F 
ATOM     17  F   UNL     1      45.972   2.432   9.349  0.00  0.00    +0.000 F 
ATOM     18  F   UNL     1      44.258   1.111   9.077  0.00  0.00    +0.000 F 
ENDBRANCH  14  15
ENDBRANCH   3  14
BRANCH   5  19
ATOM     19  O   UNL     1      45.955   7.335  11.814  0.00  0.00    +0.000 OA
BRANCH  19  20
ATOM     20  C   UNL     1      46.357   8.063  12.985  0.00  0.00    +0.000 C 
BRANCH  20  21
ATOM     21  C   UNL     1      47.673   8.826  12.773  0.00  0.00    +0.000 C 
ATOM     22  F   UNL     1      48.221   8.432  11.585  0.00  0.00    +0.000 F 
ATOM     23  F   UNL     1      47.338  10.143  12.577  0.00  0.00    +0.000 F 
BRANCH  21  24
ATOM     24  C   UNL     1      48.619   8.670  13.930  0.00  0.00    +0.000 A 
ATOM     25  C   UNL     1      48.311   9.141  15.212  0.00  0.00    +0.000 A 
ATOM     26  C   UNL     1      49.217   8.953  16.251  0.00  0.00    +0.000 A 
ATOM     27  C   UNL     1      50.405   8.298  15.973  0.00  0.00    +0.000 A 
ATOM     28  N   UNL     1      50.734   7.831  14.751  0.00  0.00    +0.000 NA
ATOM     29  C   UNL     1      49.839   8.026  13.759  0.00  0.00    +0.000 A 
ENDBRANCH  21  24
ENDBRANCH  20  21
ENDBRANCH  19  20
ENDBRANCH   5  19
TORSDOF 8
ENDMDL
