MODEL 1
REMARK VINA RESULT:    -7.614      0.000      0.000
REMARK INTER + INTRA:         -10.206
REMARK INTER:                  -9.617
REMARK INTRA:                  -0.589
REMARK UNBOUND:                -0.589
REMARK  Name = 
REMARK  5 active torsions:
REMARK  status: ('A' for Active; 'I' for Inactive)
REMARK    1  A    between atoms: N_1  and  C_2
REMARK    2  A    between atoms: C_2  and  C_3
REMARK    3  A    between atoms: C_3  and  C_4
REMARK    4  A    between atoms: C_7  and  C_8
REMARK    5  A    between atoms: C_8  and  N_9
REMARK                            x       y       z     vdW  Elec       q    Type
REMARK                         _______ _______ _______ _____ _____    ______ ____
ROOT
ATOM      1  C   UNL     1      45.852   2.606   8.254  0.00  0.00    +0.000 A 
ATOM      2  C   UNL     1      45.937   4.004   8.219  0.00  0.00    +0.000 A 
ATOM      3  C   UNL     1      45.164   4.785   9.082  0.00  0.00    +0.000 A 
ATOM      4  C   UNL     1      44.290   4.183   9.998  0.00  0.00    +0.000 A 
ATOM      5  C   UNL     1      44.227   2.782  10.047  0.00  0.00    +0.000 A 
ATOM      6  C   UNL     1      45.003   2.002   9.188  0.00  0.00    +0.000 A 
ENDROOT
BRANCH   1   7
ATOM      7  C   UNL     1      46.655   1.764   7.296  0.00  0.00    +0.000 C 
BRANCH   7   8
ATOM      8  C   UNL     1      47.882   2.517   6.763  0.00  0.00    +0.000 C 
BRANCH   8   9
ATOM      9  N   UNL     1      48.499   1.797   5.650  0.00  0.00    +0.000 NA
ATOM     10  H   UNL     1      49.502   1.740   5.804  0.00  0.00    +0.000 HD
ATOM     11  H   UNL     1      48.371   2.326   4.787  0.00  0.00    +0.000 HD
ENDBRANCH   8   9
ENDBRANCH   7   8
ENDBRANCH   1   7
BRANCH   4  12
ATOM     12  C   UNL     1      43.318   5.017  10.809  0.00  0.00    +0.000 C 
BRANCH  12  13
ATOM     13  N   UNL     1      44.061   5.957  11.633  0.00  0.00    +0.000 N 
ATOM     14  N   UNL     1      44.112   7.258  11.271  0.00  0.00    +0.000 NA
ATOM     15  N   UNL     1      45.274   7.738  11.699  0.00  0.00    +0.000 NA
ATOM     16  C   UNL     1      45.905   6.751  12.409  0.00  0.00    +0.000 A 
ATOM     17  C   UNL     1      47.185   6.700  12.974  0.00  0.00    +0.000 A 
ATOM     18  C   UNL     1      47.564   5.541  13.665  0.00  0.00    +0.000 A 
ATOM     19  C   UNL     1      46.677   4.472  13.819  0.00  0.00    +0.000 A 
ATOM     20  C   UNL     1      45.406   4.494  13.235  0.00  0.00    +0.000 A 
ATOM     21  C   UNL     1      45.075   5.640  12.506  0.00  0.00    +0.000 A 
ENDBRANCH  12  13
ENDBRANCH   4  12
TORSDOF 5
ENDMDL
MODEL 2
REMARK VINA RESULT:    -7.463      1.642      2.511
REMARK INTER + INTRA:         -10.015
REMARK INTER:                  -9.503
REMARK INTRA:                  -0.512
REMARK UNBOUND:                -0.589
REMARK  Name = 
REMARK  5 active torsions:
REMARK  status: ('A' for Active; 'I' for Inactive)
REMARK    1  A    between atoms: N_1  and  C_2
REMARK    2  A    between atoms: C_2  and  C_3
REMARK    3  A    between atoms: C_3  and  C_4
REMARK    4  A    between atoms: C_7  and  C_8
REMARK    5  A    between atoms: C_8  and  N_9
REMARK                            x       y       z     vdW  Elec       q    Type
REMARK                         _______ _______ _______ _____ _____    ______ ____
ROOT
ATOM      1  C   UNL     1      45.871   3.168   7.807  0.00  0.00    +0.000 A 
ATOM      2  C   UNL     1      45.277   2.334   8.762  0.00  0.00    +0.000 A 
ATOM      3  C   UNL     1      44.836   2.852   9.982  0.00  0.00    +0.000 A 
ATOM      4  C   UNL     1      44.981   4.216  10.272  0.00  0.00    +0.000 A 
ATOM      5  C   UNL     1      45.553   5.053   9.301  0.00  0.00    +0.000 A 
ATOM      6  C   UNL     1      45.989   4.535   8.081  0.00  0.00    +0.000 A 
ENDROOT
BRANCH   1   7
ATOM      7  C   UNL     1      46.383   2.603   6.507  0.00  0.00    +0.000 C 
BRANCH   7   8
ATOM      8  C   UNL     1      47.580   1.667   6.722  0.00  0.00    +0.000 C 
BRANCH   8   9
ATOM      9  N   UNL     1      48.596   1.866   5.690  0.00  0.00    +0.000 NA
ATOM     10  H   UNL     1      48.478   1.162   4.965  0.00  0.00    +0.000 HD
ATOM     11  H   UNL     1      49.523   1.715   6.088  0.00  0.00    +0.000 HD
ENDBRANCH   8   9
ENDBRANCH   7   8
ENDBRANCH   1   7
BRANCH   4  12
ATOM     12  C   UNL     1      44.675   4.754  11.656  0.00  0.00    +0.000 C 
BRANCH  12  13
ATOM     13  N   UNL     1      45.839   4.577  12.510  0.00  0.00    +0.000 N 
ATOM     14  N   UNL     1      45.823   3.616  13.459  0.00  0.00    +0.000 NA
ATOM     15  N   UNL     1      46.587   4.040  14.459  0.00  0.00    +0.000 NA
ATOM     16  C   UNL     1      47.150   5.232  14.086  0.00  0.00    +0.000 A 
ATOM     17  C   UNL     1      47.939   6.140  14.803  0.00  0.00    +0.000 A 
ATOM     18  C   UNL     1      48.390   7.295  14.148  0.00  0.00    +0.000 A 
ATOM     19  C   UNL     1      48.091   7.522  12.801  0.00  0.00    +0.000 A 
ATOM     20  C   UNL     1      47.280   6.640  12.079  0.00  0.00    +0.000 A 
ATOM     21  C   UNL     1      46.799   5.526  12.773  0.00  0.00    +0.000 A 
ENDBRANCH  12  13
ENDBRANCH   4  12
TORSDOF 5
ENDMDL
MODEL 3
REMARK VINA RESULT:    -6.802      1.579      2.623
REMARK INTER + INTRA:          -9.180
REMARK INTER:                  -8.719
REMARK INTRA:                  -0.461
REMARK UNBOUND:                -0.589
REMARK  Name = 
REMARK  5 active torsions:
REMARK  status: ('A' for Active; 'I' for Inactive)
REMARK    1  A    between atoms: N_1  and  C_2
REMARK    2  A    between atoms: C_2  and  C_3
REMARK    3  A    between atoms: C_3  and  C_4
REMARK    4  A    between atoms: C_7  and  C_8
REMARK    5  A    between atoms: C_8  and  N_9
REMARK                            x       y       z     vdW  Elec       q    Type
REMARK                         _______ _______ _______ _____ _____    ______ ____
ROOT
ATOM      1  C   UNL     1      45.891   2.525   7.967  0.00  0.00    +0.000 A 
ATOM      2  C   UNL     1      45.155   1.890   8.975  0.00  0.00    +0.000 A 
ATOM      3  C   UNL     1      44.558   2.635   9.995  0.00  0.00    +0.000 A 
ATOM      4  C   UNL     1      44.685   4.030  10.027  0.00  0.00    +0.000 A 
ATOM      5  C   UNL     1      45.402   4.664   9.001  0.00  0.00    +0.000 A 
ATOM      6  C   UNL     1      45.995   3.921   7.980  0.00  0.00    +0.000 A 
ENDROOT
BRANCH   1   7
ATOM      7  C   UNL     1      46.570   1.720   6.888  0.00  0.00    +0.000 C 
BRANCH   7   8
ATOM      8  C   UNL     1      48.034   2.140   6.696  0.00  0.00    +0.000 C 
BRANCH   8   9
ATOM      9  N   UNL     1      48.471   1.908   5.320  0.00  0.00    +0.000 NA
ATOM     10  H   UNL     1      47.940   2.508   4.695  0.00  0.00    +0.000 HD
ATOM     11  H   UNL     1      48.255   0.949   5.049  0.00  0.00    +0.000 HD
ENDBRANCH   8   9
ENDBRANCH   7   8
ENDBRANCH   1   7
BRANCH   4  12
ATOM     12  C   UNL     1      44.198   4.829  11.221  0.00  0.00    +0.000 C 
BRANCH  12  13
ATOM     13  N   UNL     1      45.249   5.737  11.653  0.00  0.00    +0.000 N 
ATOM     14  N   UNL     1      46.186   5.299  12.523  0.00  0.00    +0.000 NA
ATOM     15  N   UNL     1      46.573   6.345  13.243  0.00  0.00    +0.000 NA
ATOM     16  C   UNL     1      45.934   7.454  12.754  0.00  0.00    +0.000 A 
ATOM     17  C   UNL     1      45.905   8.777  13.216  0.00  0.00    +0.000 A 
ATOM     18  C   UNL     1      45.160   9.719  12.495  0.00  0.00    +0.000 A 
ATOM     19  C   UNL     1      44.488   9.361  11.322  0.00  0.00    +0.000 A 
ATOM     20  C   UNL     1      44.482   8.040  10.863  0.00  0.00    +0.000 A 
ATOM     21  C   UNL     1      45.189   7.111  11.633  0.00  0.00    +0.000 A 
ENDBRANCH  12  13
ENDBRANCH   4  12
TORSDOF 5
ENDMDL
MODEL 4
REMARK VINA RESULT:    -6.730      2.188      5.972
REMARK INTER + INTRA:          -9.089
REMARK INTER:                  -8.474
REMARK INTRA:                  -0.615
REMARK UNBOUND:                -0.589
REMARK  Name = 
REMARK  5 active torsions:
REMARK  status: ('A' for Active; 'I' for Inactive)
REMARK    1  A    between atoms: N_1  and  C_2
REMARK    2  A    between atoms: C_2  and  C_3
REMARK    3  A    between atoms: C_3  and  C_4
REMARK    4  A    between atoms: C_7  and  C_8
REMARK    5  A    between atoms: C_8  and  N_9
REMARK                            x       y       z     vdW  Elec       q    Type
REMARK                         _______ _______ _______ _____ _____    ______ ____
ROOT
ATOM      1  C   UNL     1      47.620   6.310  12.971  0.00  0.00    +0.000 A 
ATOM      2  C   UNL     1      46.770   5.323  13.485  0.00  0.00    +0.000 A 
ATOM      3  C   UNL     1      45.547   5.047  12.867  0.00  0.00    +0.000 A 
ATOM      4  C   UNL     1      45.151   5.752  11.723  0.00  0.00    +0.000 A 
ATOM      5  C   UNL     1      46.018   6.722  11.196  0.00  0.00    +0.000 A 
ATOM      6  C   UNL     1      47.241   6.995  11.811  0.00  0.00    +0.000 A 
ENDROOT
BRANCH   1   7
ATOM      7  C   UNL     1      48.921   6.637  13.659  0.00  0.00    +0.000 C 
BRANCH   7   8
ATOM      8  C   UNL     1      48.726   6.883  15.162  0.00  0.00    +0.000 C 
BRANCH   8   9
ATOM      9  N   UNL     1      49.438   5.882  15.956  0.00  0.00    +0.000 NA
ATOM     10  H   UNL     1      49.136   4.954  15.671  0.00  0.00    +0.000 HD
ATOM     11  H   UNL     1      49.182   5.978  16.938  0.00  0.00    +0.000 HD
ENDBRANCH   8   9
ENDBRANCH   7   8
ENDBRANCH   1   7
BRANCH   4  12
ATOM     12  C   UNL     1      43.756   5.590  11.153  0.00  0.00    +0.000 C 
BRANCH  12  13
ATOM     13  N   UNL     1      43.655   4.302  10.485  0.00  0.00    +0.000 N 
ATOM     14  N   UNL     1      43.100   3.258  11.141  0.00  0.00    +0.000 NA
ATOM     15  N   UNL     1      43.681   2.155  10.683  0.00  0.00    +0.000 NA
ATOM     16  C   UNL     1      44.536   2.513   9.676  0.00  0.00    +0.000 A 
ATOM     17  C   UNL     1      45.460   1.757   8.942  0.00  0.00    +0.000 A 
ATOM     18  C   UNL     1      46.208   2.401   7.946  0.00  0.00    +0.000 A 
ATOM     19  C   UNL     1      46.014   3.756   7.663  0.00  0.00    +0.000 A 
ATOM     20  C   UNL     1      45.118   4.532   8.405  0.00  0.00    +0.000 A 
ATOM     21  C   UNL     1      44.426   3.876   9.429  0.00  0.00    +0.000 A 
ENDBRANCH  12  13
ENDBRANCH   4  12
TORSDOF 5
ENDMDL
MODEL 5
REMARK VINA RESULT:    -6.483      2.469      6.003
REMARK INTER + INTRA:          -8.777
REMARK INTER:                  -8.811
REMARK INTRA:                   0.034
REMARK UNBOUND:                -0.589
REMARK  Name = 
REMARK  5 active torsions:
REMARK  status: ('A' for Active; 'I' for Inactive)
REMARK    1  A    between atoms: N_1  and  C_2
REMARK    2  A    between atoms: C_2  and  C_3
REMARK    3  A    between atoms: C_3  and  C_4
REMARK    4  A    between atoms: C_7  and  C_8
REMARK    5  A    between atoms: C_8  and  N_9
REMARK                            x       y       z     vdW  Elec       q    Type
REMARK                         _______ _______ _______ _____ _____    ______ ____
ROOT
ATOM      1  C   UNL     1      46.387   5.021  12.815  0.00  0.00    +0.000 A 
ATOM      2  C   UNL     1      46.488   5.994  11.812  0.00  0.00    +0.000 A 
ATOM      3  C   UNL     1      45.741   5.883  10.636  0.00  0.00    +0.000 A 
ATOM      4  C   UNL     1      44.878   4.796  10.440  0.00  0.00    +0.000 A 
ATOM      5  C   UNL     1      44.761   3.837  11.458  0.00  0.00    +0.000 A 
ATOM      6  C   UNL     1      45.504   3.951  12.633  0.00  0.00    +0.000 A 
ENDROOT
BRANCH   1   7
ATOM      7  C   UNL     1      47.221   5.119  14.066  0.00  0.00    +0.000 C 
BRANCH   7   8
ATOM      8  C   UNL     1      46.867   4.019  15.077  0.00  0.00    +0.000 C 
BRANCH   8   9
ATOM      9  N   UNL     1      47.903   2.988  15.118  0.00  0.00    +0.000 NA
ATOM     10  H   UNL     1      48.530   3.176  15.896  0.00  0.00    +0.000 HD
ATOM     11  H   UNL     1      48.472   3.041  14.273  0.00  0.00    +0.000 HD
ENDBRANCH   8   9
ENDBRANCH   7   8
ENDBRANCH   1   7
BRANCH   4  12
ATOM     12  C   UNL     1      44.205   4.570   9.100  0.00  0.00    +0.000 C 
BRANCH  12  13
ATOM     13  N   UNL     1      44.552   3.248   8.603  0.00  0.00    +0.000 N 
ATOM     14  N   UNL     1      44.158   2.156   9.295  0.00  0.00    +0.000 NA
ATOM     15  N   UNL     1      45.068   1.211   9.088  0.00  0.00    +0.000 NA
ATOM     16  C   UNL     1      45.984   1.694   8.192  0.00  0.00    +0.000 A 
ATOM     17  C   UNL     1      47.187   1.151   7.723  0.00  0.00    +0.000 A 
ATOM     18  C   UNL     1      47.927   1.880   6.782  0.00  0.00    +0.000 A 
ATOM     19  C   UNL     1      47.463   3.105   6.294  0.00  0.00    +0.000 A 
ATOM     20  C   UNL     1      46.280   3.676   6.772  0.00  0.00    +0.000 A 
ATOM     21  C   UNL     1      45.590   2.952   7.751  0.00  0.00    +0.000 A 
ENDBRANCH  12  13
ENDBRANCH   4  12
TORSDOF 5
ENDMDL
MODEL 6
REMARK VINA RESULT:    -5.655      3.049      4.450
REMARK INTER + INTRA:          -7.731
REMARK INTER:                  -7.229
REMARK INTRA:                  -0.502
REMARK UNBOUND:                -0.589
REMARK  Name = 
REMARK  5 active torsions:
REMARK  status: ('A' for Active; 'I' for Inactive)
REMARK    1  A    between atoms: N_1  and  C_2
REMARK    2  A    between atoms: C_2  and  C_3
REMARK    3  A    between atoms: C_3  and  C_4
REMARK    4  A    between atoms: C_7  and  C_8
REMARK    5  A    between atoms: C_8  and  N_9
REMARK                            x       y       z     vdW  Elec       q    Type
REMARK                         _______ _______ _______ _____ _____    ______ ____
ROOT
ATOM      1  C   UNL     1      44.876   3.825  11.001  0.00  0.00    +0.000 A 
ATOM      2  C   UNL     1      45.201   5.038  10.382  0.00  0.00    +0.000 A 
ATOM      3  C   UNL     1      45.850   6.049  11.096  0.00  0.00    +0.000 A 
ATOM      4  C   UNL     1      46.186   5.866  12.445  0.00  0.00    +0.000 A 
ATOM      5  C   UNL     1      45.882   4.639  13.054  0.00  0.00    +0.000 A 
ATOM      6  C   UNL     1      45.238   3.628  12.339  0.00  0.00    +0.000 A 
ENDROOT
BRANCH   1   7
ATOM      7  C   UNL     1      44.141   2.749  10.244  0.00  0.00    +0.000 C 
BRANCH   7   8
ATOM      8  C   UNL     1      44.736   2.526   8.847  0.00  0.00    +0.000 C 
BRANCH   8   9
ATOM      9  N   UNL     1      45.621   1.362   8.832  0.00  0.00    +0.000 NA
ATOM     10  H   UNL     1      46.326   1.487   8.109  0.00  0.00    +0.000 HD
ATOM     11  H   UNL     1      45.090   0.530   8.574  0.00  0.00    +0.000 HD
ENDBRANCH   8   9
ENDBRANCH   7   8
ENDBRANCH   1   7
BRANCH   4  12
ATOM     12  C   UNL     1      46.723   7.015  13.276  0.00  0.00    +0.000 C 
BRANCH  12  13
ATOM     13  N   UNL     1      48.147   6.824  13.499  0.00  0.00    +0.000 N 
ATOM     14  N   UNL     1      48.572   6.338  14.686  0.00  0.00    +0.000 NA
ATOM     15  N   UNL     1      49.777   6.850  14.911  0.00  0.00    +0.000 NA
ATOM     16  C   UNL     1      50.135   7.587  13.813  0.00  0.00    +0.000 A 
ATOM     17  C   UNL     1      51.244   8.411  13.582  0.00  0.00    +0.000 A 
ATOM     18  C   UNL     1      51.356   9.045  12.336  0.00  0.00    +0.000 A 
ATOM     19  C   UNL     1      50.405   8.834  11.333  0.00  0.00    +0.000 A 
ATOM     20  C   UNL     1      49.277   8.038  11.557  0.00  0.00    +0.000 A 
ATOM     21  C   UNL     1      49.163   7.463  12.827  0.00  0.00    +0.000 A 
ENDBRANCH  12  13
ENDBRANCH   4  12
TORSDOF 5
ENDMDL
MODEL 7
REMARK VINA RESULT:    -5.529      4.965      7.684
REMARK INTER + INTRA:          -7.572
REMARK INTER:                  -7.285
REMARK INTRA:                  -0.288
REMARK UNBOUND:                -0.589
REMARK  Name = 
REMARK  5 active torsions:
REMARK  status: ('A' for Active; 'I' for Inactive)
REMARK    1  A    between atoms: N_1  and  C_2
REMARK    2  A    between atoms: C_2  and  C_3
REMARK    3  A    between atoms: C_3  and  C_4
REMARK    4  A    between atoms: C_7  and  C_8
REMARK    5  A    between atoms: C_8  and  N_9
REMARK                            x       y       z     vdW  Elec       q    Type
REMARK                         _______ _______ _______ _____ _____    ______ ____
ROOT
ATOM      1  C   UNL     1      50.962   2.810  17.555  0.00  0.00    +0.000 A 
ATOM      2  C   UNL     1      50.588   4.141  17.780  0.00  0.00    +0.000 A 
ATOM      3  C   UNL     1      49.339   4.609  17.364  0.00  0.00    +0.000 A 
ATOM      4  C   UNL     1      48.439   3.754  16.712  0.00  0.00    +0.000 A 
ATOM      5  C   UNL     1      48.808   2.415  16.512  0.00  0.00    +0.000 A 
ATOM      6  C   UNL     1      50.053   1.947  16.932  0.00  0.00    +0.000 A 
ENDROOT
BRANCH   1   7
ATOM      7  C   UNL     1      52.324   2.315  17.968  0.00  0.00    +0.000 C 
BRANCH   7   8
ATOM      8  C   UNL     1      52.662   0.964  17.322  0.00  0.00    +0.000 C 
BRANCH   8   9
ATOM      9  N   UNL     1      52.589  -0.120  18.300  0.00  0.00    +0.000 NA
ATOM     10  H   UNL     1      51.629  -0.452  18.361  0.00  0.00    +0.000 HD
ATOM     11  H   UNL     1      52.828   0.237  19.225  0.00  0.00    +0.000 HD
ENDBRANCH   8   9
ENDBRANCH   7   8
ENDBRANCH   1   7
BRANCH   4  12
ATOM     12  C   UNL     1      47.162   4.293  16.097  0.00  0.00    +0.000 C 
BRANCH  12  13
ATOM     13  N   UNL     1      47.450   4.813  14.769  0.00  0.00    +0.000 N 
ATOM     14  N   UNL     1      48.119   5.981  14.647  0.00  0.00    +0.000 NA
ATOM     15  N   UNL     1      47.701   6.556  13.525  0.00  0.00    +0.000 NA
ATOM     16  C   UNL     1      46.834   5.696  12.906  0.00  0.00    +0.000 A 
ATOM     17  C   UNL     1      46.039   5.857  11.764  0.00  0.00    +0.000 A 
ATOM     18  C   UNL     1      45.241   4.781  11.350  0.00  0.00    +0.000 A 
ATOM     19  C   UNL     1      45.262   3.563  12.035  0.00  0.00    +0.000 A 
ATOM     20  C   UNL     1      46.028   3.395  13.193  0.00  0.00    +0.000 A 
ATOM     21  C   UNL     1      46.771   4.502  13.615  0.00  0.00    +0.000 A 
ENDBRANCH  12  13
ENDBRANCH   4  12
TORSDOF 5
ENDMDL
MODEL 8
REMARK VINA RESULT:    -5.135      2.982      4.163
REMARK INTER + INTRA:          -7.075
REMARK INTER:                  -6.482
REMARK INTRA:                  -0.594
REMARK UNBOUND:                -0.589
REMARK  Name = 
REMARK  5 active torsions:
REMARK  status: ('A' for Active; 'I' for Inactive)
REMARK    1  A    between atoms: N_1  and  C_2
REMARK    2  A    between atoms: C_2  and  C_3
REMARK    3  A    between atoms: C_3  and  C_4
REMARK    4  A    between atoms: C_7  and  C_8
REMARK    5  A    between atoms: C_8  and  N_9
REMARK                            x       y       z     vdW  Elec       q    Type
REMARK                         _______ _______ _______ _____ _____    ______ ____
ROOT
ATOM      1  C   UNL     1      44.746   4.263   9.424  0.00  0.00    +0.000 A 
ATOM      2  C   UNL     1      45.869   5.097   9.483  0.00  0.00    +0.000 A 
ATOM      3  C   UNL     1      46.034   5.992  10.543  0.00  0.00    +0.000 A 
ATOM      4  C   UNL     1      45.078   6.071  11.565  0.00  0.00    +0.000 A 
ATOM      5  C   UNL     1      43.967   5.215  11.515  0.00  0.00    +0.000 A 
ATOM      6  C   UNL     1      43.805   4.318  10.458  0.00  0.00    +0.000 A 
ENDROOT
BRANCH   1   7
ATOM      7  C   UNL     1      44.547   3.325   8.261  0.00  0.00    +0.000 C 
BRANCH   7   8
ATOM      8  C   UNL     1      45.768   2.423   8.038  0.00  0.00    +0.000 C 
BRANCH   8   9
ATOM      9  N   UNL     1      45.631   1.163   8.768  0.00  0.00    +0.000 NA
ATOM     10  H   UNL     1      45.012   1.303   9.563  0.00  0.00    +0.000 HD
ATOM     11  H   UNL     1      46.535   0.890   9.153  0.00  0.00    +0.000 HD
ENDBRANCH   8   9
ENDBRANCH   7   8
ENDBRANCH   1   7
BRANCH   4  12
ATOM     12  C   UNL     1      45.153   7.159  12.618  0.00  0.00    +0.000 C 
BRANCH  12  13
ATOM     13  N   UNL     1      45.304   8.451  11.967  0.00  0.00    +0.000 N 
ATOM     14  N   UNL     1      46.341   9.247  12.307  0.00  0.00    +0.000 NA
ATOM     15  N   UNL     1      45.941  10.503  12.144  0.00  0.00    +0.000 NA
ATOM     16  C   UNL     1      44.678  10.479  11.614  0.00  0.00    +0.000 A 
ATOM     17  C   UNL     1      43.771  11.515  11.353  0.00  0.00    +0.000 A 
ATOM     18  C   UNL     1      42.531  11.189  10.788  0.00  0.00    +0.000 A 
ATOM     19  C   UNL     1      42.215   9.868  10.457  0.00  0.00    +0.000 A 
ATOM     20  C   UNL     1      43.096   8.819  10.737  0.00  0.00    +0.000 A 
ATOM     21  C   UNL     1      44.304   9.167  11.352  0.00  0.00    +0.000 A 
ENDBRANCH  12  13
ENDBRANCH   4  12
TORSDOF 5
ENDMDL
