MODEL 1
REMARK VINA RESULT:    -7.954      0.000      0.000
REMARK INTER + INTRA:         -11.435
REMARK INTER:                 -10.512
REMARK INTRA:                  -0.923
REMARK UNBOUND:                -0.923
REMARK  Name = 
REMARK  8 active torsions:
REMARK  status: ('A' for Active; 'I' for Inactive)
REMARK    1  A    between atoms: C_1  and  C_2
REMARK    2  A    between atoms: C_2  and  C_3
REMARK    3  A    between atoms: C_2  and  C_4
REMARK    4  A    between atoms: C_2  and  C_19
REMARK    5  A    between atoms: C_5  and  C_6
REMARK    6  A    between atoms: C_10  and  N_11
REMARK    7  A    between atoms: C_14  and  O_15
REMARK    8  A    between atoms: C_22  and  C_23
REMARK                            x       y       z     vdW  Elec       q    Type
REMARK                         _______ _______ _______ _____ _____    ______ ____
ROOT
ATOM      1  C   UNL     1      47.003   5.034  13.963  0.00  0.00    +0.000 A 
ATOM      2  C   UNL     1      47.710   6.135  13.498  0.00  0.00    +0.000 A 
ATOM      3  C   UNL     1      48.550   6.792  14.378  0.00  0.00    +0.000 A 
ATOM      4  C   UNL     1      48.650   6.328  15.680  0.00  0.00    +0.000 A 
ATOM      5  C   UNL     1      47.918   5.214  16.101  0.00  0.00    +0.000 A 
ATOM      6  N   UNL     1      47.088   4.584  15.238  0.00  0.00    +0.000 NA
ENDROOT
BRANCH   5   7
ATOM      7  N   UNL     1      48.012   4.748  17.396  0.00  0.00    +0.000 N 
ATOM      8  C   UNL     1      49.072   3.815  17.755  0.00  0.00    +0.000 C 
ATOM      9  C   UNL     1      49.898   4.375  18.908  0.00  0.00    +0.000 C 
ATOM     10  C   UNL     1      49.020   4.832  20.073  0.00  0.00    +0.000 C 
ATOM     11  C   UNL     1      47.896   5.758  19.618  0.00  0.00    +0.000 C 
ATOM     12  C   UNL     1      47.103   5.179  18.450  0.00  0.00    +0.000 C 
BRANCH  10  13
ATOM     13  O   UNL     1      48.484   3.710  20.777  0.00  0.00    +0.000 OA
ATOM     14  H   UNL     1      49.215   3.210  21.178  0.00  0.00    +0.000 HD
ENDBRANCH  10  13
ENDBRANCH   5   7
BRANCH   1  16
ATOM     15  C   UNL     1      44.917   4.790  12.597  0.00  0.00    +0.000 C 
ATOM     16  C   UNL     1      46.100   4.330  13.041  0.00  0.00    +0.000 C 
BRANCH  15  18
ATOM     17  C   UNL     1      43.467   2.731  12.138  0.00  0.00    +0.000 C 
ATOM     18  C   UNL     1      43.982   4.086  11.603  0.00  0.00    +0.000 C 
ATOM     19  C   UNL     1      42.753   5.006  11.414  0.00  0.00    +0.000 C 
BRANCH  18  20
ATOM     20  C   UNL     1      44.672   3.839  10.243  0.00  0.00    +0.000 A 
ATOM     21  C   UNL     1      45.233   4.888   9.505  0.00  0.00    +0.000 A 
ATOM     22  C   UNL     1      45.842   4.620   8.276  0.00  0.00    +0.000 A 
ATOM     23  C   UNL     1      45.899   3.311   7.809  0.00  0.00    +0.000 A 
ATOM     24  C   UNL     1      45.354   2.321   8.606  0.00  0.00    +0.000 A 
ATOM     25  N   UNL     1      44.757   2.556   9.801  0.00  0.00    +0.000 NA
BRANCH  23  26
ATOM     26  C   UNL     1      46.500   2.991   6.555  0.00  0.00    +0.000 C 
ATOM     27  N   UNL     1      46.992   2.729   5.534  0.00  0.00    +0.000 NA
ENDBRANCH  23  26
ENDBRANCH  18  20
ENDBRANCH  15  18
ENDBRANCH   1  16
TORSDOF 6
ENDMDL
MODEL 2
REMARK VINA RESULT:    -7.080      2.803      4.330
REMARK INTER + INTRA:         -10.280
REMARK INTER:                  -9.330
REMARK INTRA:                  -0.950
REMARK UNBOUND:                -0.923
REMARK  Name = 
REMARK  8 active torsions:
REMARK  status: ('A' for Active; 'I' for Inactive)
REMARK    1  A    between atoms: C_1  and  C_2
REMARK    2  A    between atoms: C_2  and  C_3
REMARK    3  A    between atoms: C_2  and  C_4
REMARK    4  A    between atoms: C_2  and  C_19
REMARK    5  A    between atoms: C_5  and  C_6
REMARK    6  A    between atoms: C_10  and  N_11
REMARK    7  A    between atoms: C_14  and  O_15
REMARK    8  A    between atoms: C_22  and  C_23
REMARK                            x       y       z     vdW  Elec       q    Type
REMARK                         _______ _______ _______ _____ _____    ______ ____
ROOT
ATOM      1  C   UNL     1      46.910   4.963  14.147  0.00  0.00    +0.000 A 
ATOM      2  C   UNL     1      47.182   4.437  15.402  0.00  0.00    +0.000 A 
ATOM      3  C   UNL     1      48.089   5.102  16.207  0.00  0.00    +0.000 A 
ATOM      4  C   UNL     1      48.686   6.258  15.729  0.00  0.00    +0.000 A 
ATOM      5  C   UNL     1      48.378   6.748  14.457  0.00  0.00    +0.000 A 
ATOM      6  N   UNL     1      47.500   6.085  13.670  0.00  0.00    +0.000 NA
ENDROOT
BRANCH   5   7
ATOM      7  N   UNL     1      48.971   7.897  13.974  0.00  0.00    +0.000 N 
ATOM      8  C   UNL     1      50.059   7.799  13.009  0.00  0.00    +0.000 C 
ATOM      9  C   UNL     1      49.716   8.587  11.749  0.00  0.00    +0.000 C 
ATOM     10  C   UNL     1      49.263  10.011  12.068  0.00  0.00    +0.000 C 
ATOM     11  C   UNL     1      48.165  10.043  13.128  0.00  0.00    +0.000 C 
ATOM     12  C   UNL     1      48.529   9.229  14.366  0.00  0.00    +0.000 C 
BRANCH  10  13
ATOM     13  O   UNL     1      50.369  10.818  12.477  0.00  0.00    +0.000 OA
ATOM     14  H   UNL     1      50.719  11.289  11.702  0.00  0.00    +0.000 HD
ENDBRANCH  10  13
ENDBRANCH   5   7
BRANCH   1  16
ATOM     15  C   UNL     1      45.120   4.846  12.398  0.00  0.00    +0.000 C 
ATOM     16  C   UNL     1      45.953   4.262  13.277  0.00  0.00    +0.000 C 
BRANCH  15  18
ATOM     17  C   UNL     1      43.554   2.845  12.082  0.00  0.00    +0.000 C 
ATOM     18  C   UNL     1      44.144   4.127  11.454  0.00  0.00    +0.000 C 
ATOM     19  C   UNL     1      42.970   5.101  11.196  0.00  0.00    +0.000 C 
BRANCH  18  20
ATOM     20  C   UNL     1      44.818   3.746  10.116  0.00  0.00    +0.000 A 
ATOM     21  C   UNL     1      44.918   2.414   9.699  0.00  0.00    +0.000 A 
ATOM     22  C   UNL     1      45.540   2.115   8.484  0.00  0.00    +0.000 A 
ATOM     23  C   UNL     1      46.038   3.148   7.695  0.00  0.00    +0.000 A 
ATOM     24  C   UNL     1      45.875   4.441   8.154  0.00  0.00    +0.000 A 
ATOM     25  N   UNL     1      45.275   4.757   9.329  0.00  0.00    +0.000 NA
BRANCH  23  26
ATOM     26  C   UNL     1      46.692   2.889   6.453  0.00  0.00    +0.000 C 
ATOM     27  N   UNL     1      47.223   2.678   5.440  0.00  0.00    +0.000 NA
ENDBRANCH  23  26
ENDBRANCH  18  20
ENDBRANCH  15  18
ENDBRANCH   1  16
TORSDOF 6
ENDMDL
MODEL 3
REMARK VINA RESULT:    -6.834      3.341      9.187
REMARK INTER + INTRA:          -9.954
REMARK INTER:                  -9.112
REMARK INTRA:                  -0.842
REMARK UNBOUND:                -0.923
REMARK  Name = 
REMARK  8 active torsions:
REMARK  status: ('A' for Active; 'I' for Inactive)
REMARK    1  A    between atoms: C_1  and  C_2
REMARK    2  A    between atoms: C_2  and  C_3
REMARK    3  A    between atoms: C_2  and  C_4
REMARK    4  A    between atoms: C_2  and  C_19
REMARK    5  A    between atoms: C_5  and  C_6
REMARK    6  A    between atoms: C_10  and  N_11
REMARK    7  A    between atoms: C_14  and  O_15
REMARK    8  A    between atoms: C_22  and  C_23
REMARK                            x       y       z     vdW  Elec       q    Type
REMARK                         _______ _______ _______ _____ _____    ______ ____
ROOT
ATOM      1  C   UNL     1      45.173   4.836  12.210  0.00  0.00    +0.000 A 
ATOM      2  C   UNL     1      44.142   4.252  12.931  0.00  0.00    +0.000 A 
ATOM      3  C   UNL     1      43.403   3.253  12.325  0.00  0.00    +0.000 A 
ATOM      4  C   UNL     1      43.719   2.881  11.027  0.00  0.00    +0.000 A 
ATOM      5  C   UNL     1      44.768   3.500  10.342  0.00  0.00    +0.000 A 
ATOM      6  N   UNL     1      45.478   4.485  10.937  0.00  0.00    +0.000 NA
ENDROOT
BRANCH   5   7
ATOM      7  N   UNL     1      45.087   3.135   9.050  0.00  0.00    +0.000 N 
ATOM      8  C   UNL     1      45.338   4.165   8.049  0.00  0.00    +0.000 C 
ATOM      9  C   UNL     1      46.719   3.971   7.431  0.00  0.00    +0.000 C 
ATOM     10  C   UNL     1      46.935   2.537   6.948  0.00  0.00    +0.000 C 
ATOM     11  C   UNL     1      46.597   1.510   8.025  0.00  0.00    +0.000 C 
ATOM     12  C   UNL     1      45.219   1.744   8.639  0.00  0.00    +0.000 C 
BRANCH  10  13
ATOM     13  O   UNL     1      46.180   2.278   5.763  0.00  0.00    +0.000 OA
ATOM     14  H   UNL     1      46.392   1.386   5.442  0.00  0.00    +0.000 HD
ENDBRANCH  10  13
ENDBRANCH   5   7
BRANCH   1  16
ATOM     15  C   UNL     1      47.302   5.920  12.967  0.00  0.00    +0.000 C 
ATOM     16  C   UNL     1      45.963   5.905  12.839  0.00  0.00    +0.000 C 
BRANCH  15  18
ATOM     17  C   UNL     1      49.407   7.361  12.754  0.00  0.00    +0.000 C 
ATOM     18  C   UNL     1      48.144   7.045  13.585  0.00  0.00    +0.000 C 
ATOM     19  C   UNL     1      47.262   8.316  13.589  0.00  0.00    +0.000 C 
BRANCH  18  20
ATOM     20  C   UNL     1      48.585   6.704  15.027  0.00  0.00    +0.000 A 
ATOM     21  C   UNL     1      49.248   7.638  15.831  0.00  0.00    +0.000 A 
ATOM     22  C   UNL     1      49.634   7.285  17.126  0.00  0.00    +0.000 A 
ATOM     23  C   UNL     1      49.339   6.013  17.607  0.00  0.00    +0.000 A 
ATOM     24  C   UNL     1      48.653   5.153  16.770  0.00  0.00    +0.000 A 
ATOM     25  N   UNL     1      48.269   5.472  15.509  0.00  0.00    +0.000 NA
BRANCH  23  26
ATOM     26  C   UNL     1      49.724   5.603  18.920  0.00  0.00    +0.000 C 
ATOM     27  N   UNL     1      50.040   5.268  19.987  0.00  0.00    +0.000 NA
ENDBRANCH  23  26
ENDBRANCH  18  20
ENDBRANCH  15  18
ENDBRANCH   1  16
TORSDOF 6
ENDMDL
MODEL 4
REMARK VINA RESULT:    -6.783      3.293      8.594
REMARK INTER + INTRA:          -9.886
REMARK INTER:                  -8.982
REMARK INTRA:                  -0.905
REMARK UNBOUND:                -0.923
REMARK  Name = 
REMARK  8 active torsions:
REMARK  status: ('A' for Active; 'I' for Inactive)
REMARK    1  A    between atoms: C_1  and  C_2
REMARK    2  A    between atoms: C_2  and  C_3
REMARK    3  A    between atoms: C_2  and  C_4
REMARK    4  A    between atoms: C_2  and  C_19
REMARK    5  A    between atoms: C_5  and  C_6
REMARK    6  A    between atoms: C_10  and  N_11
REMARK    7  A    between atoms: C_14  and  O_15
REMARK    8  A    between atoms: C_22  and  C_23
REMARK                            x       y       z     vdW  Elec       q    Type
REMARK                         _______ _______ _______ _____ _____    ______ ____
ROOT
ATOM      1  C   UNL     1      48.223   6.648  14.063  0.00  0.00    +0.000 A 
ATOM      2  C   UNL     1      48.702   7.633  13.211  0.00  0.00    +0.000 A 
ATOM      3  C   UNL     1      48.106   7.773  11.972  0.00  0.00    +0.000 A 
ATOM      4  C   UNL     1      47.062   6.927  11.632  0.00  0.00    +0.000 A 
ATOM      5  C   UNL     1      46.615   5.950  12.525  0.00  0.00    +0.000 A 
ATOM      6  N   UNL     1      47.211   5.810  13.731  0.00  0.00    +0.000 NA
ENDROOT
BRANCH   5   7
ATOM      7  N   UNL     1      45.577   5.103  12.192  0.00  0.00    +0.000 N 
ATOM      8  C   UNL     1      44.722   4.559  13.241  0.00  0.00    +0.000 C 
ATOM      9  C   UNL     1      43.264   4.908  12.963  0.00  0.00    +0.000 C 
ATOM     10  C   UNL     1      42.848   4.543  11.538  0.00  0.00    +0.000 C 
ATOM     11  C   UNL     1      43.819   5.092  10.496  0.00  0.00    +0.000 C 
ATOM     12  C   UNL     1      45.271   4.745  10.814  0.00  0.00    +0.000 C 
BRANCH  10  13
ATOM     13  O   UNL     1      42.715   3.128  11.393  0.00  0.00    +0.000 OA
ATOM     14  H   UNL     1      43.140   2.692  12.151  0.00  0.00    +0.000 HD
ENDBRANCH  10  13
ENDBRANCH   5   7
BRANCH   1  16
ATOM     15  C   UNL     1      48.473   5.604  16.327  0.00  0.00    +0.000 C 
ATOM     16  C   UNL     1      48.852   6.483  15.382  0.00  0.00    +0.000 C 
BRANCH  15  18
ATOM     17  C   UNL     1      49.934   6.633  18.160  0.00  0.00    +0.000 C 
ATOM     18  C   UNL     1      49.144   5.392  17.692  0.00  0.00    +0.000 C 
ATOM     19  C   UNL     1      48.009   5.151  18.717  0.00  0.00    +0.000 C 
BRANCH  18  20
ATOM     20  C   UNL     1      50.106   4.182  17.676  0.00  0.00    +0.000 A 
ATOM     21  C   UNL     1      49.675   2.908  17.289  0.00  0.00    +0.000 A 
ATOM     22  C   UNL     1      50.578   1.842  17.295  0.00  0.00    +0.000 A 
ATOM     23  C   UNL     1      51.900   2.064  17.669  0.00  0.00    +0.000 A 
ATOM     24  C   UNL     1      52.263   3.354  18.008  0.00  0.00    +0.000 A 
ATOM     25  N   UNL     1      51.405   4.405  18.010  0.00  0.00    +0.000 NA
BRANCH  23  26
ATOM     26  C   UNL     1      52.854   1.003  17.702  0.00  0.00    +0.000 C 
ATOM     27  N   UNL     1      53.634   0.140  17.729  0.00  0.00    +0.000 NA
ENDBRANCH  23  26
ENDBRANCH  18  20
ENDBRANCH  15  18
ENDBRANCH   1  16
TORSDOF 6
ENDMDL
MODEL 5
REMARK VINA RESULT:    -6.570      1.708      2.018
REMARK INTER + INTRA:          -9.605
REMARK INTER:                  -8.683
REMARK INTRA:                  -0.923
REMARK UNBOUND:                -0.923
REMARK  Name = 
REMARK  8 active torsions:
REMARK  status: ('A' for Active; 'I' for Inactive)
REMARK    1  A    between atoms: C_1  and  C_2
REMARK    2  A    between atoms: C_2  and  C_3
REMARK    3  A    between atoms: C_2  and  C_4
REMARK    4  A    between atoms: C_2  and  C_19
REMARK    5  A    between atoms: C_5  and  C_6
REMARK    6  A    between atoms: C_10  and  N_11
REMARK    7  A    between atoms: C_14  and  O_15
REMARK    8  A    between atoms: C_22  and  C_23
REMARK                            x       y       z     vdW  Elec       q    Type
REMARK                         _______ _______ _______ _____ _____    ______ ____
ROOT
ATOM      1  C   UNL     1      47.041   6.265  13.459  0.00  0.00    +0.000 A 
ATOM      2  C   UNL     1      46.877   7.592  13.087  0.00  0.00    +0.000 A 
ATOM      3  C   UNL     1      47.661   8.547  13.707  0.00  0.00    +0.000 A 
ATOM      4  C   UNL     1      48.571   8.142  14.671  0.00  0.00    +0.000 A 
ATOM      5  C   UNL     1      48.700   6.793  15.011  0.00  0.00    +0.000 A 
ATOM      6  N   UNL     1      47.921   5.866  14.409  0.00  0.00    +0.000 NA
ENDROOT
BRANCH   5   7
ATOM      7  N   UNL     1      49.603   6.383  15.971  0.00  0.00    +0.000 N 
ATOM      8  C   UNL     1      50.957   6.923  15.968  0.00  0.00    +0.000 C 
ATOM      9  C   UNL     1      51.269   7.568  17.314  0.00  0.00    +0.000 C 
ATOM     10  C   UNL     1      50.949   6.636  18.483  0.00  0.00    +0.000 C 
ATOM     11  C   UNL     1      49.539   6.061  18.392  0.00  0.00    +0.000 C 
ATOM     12  C   UNL     1      49.250   5.444  17.026  0.00  0.00    +0.000 C 
BRANCH  10  13
ATOM     13  O   UNL     1      51.909   5.583  18.573  0.00  0.00    +0.000 OA
ATOM     14  H   UNL     1      51.456   4.763  18.830  0.00  0.00    +0.000 HD
ENDBRANCH  10  13
ENDBRANCH   5   7
BRANCH   1  16
ATOM     15  C   UNL     1      45.156   5.474  12.011  0.00  0.00    +0.000 C 
ATOM     16  C   UNL     1      46.209   5.239  12.813  0.00  0.00    +0.000 C 
BRANCH  15  18
ATOM     17  C   UNL     1      43.961   3.219  12.211  0.00  0.00    +0.000 C 
ATOM     18  C   UNL     1      44.302   4.416  11.297  0.00  0.00    +0.000 C 
ATOM     19  C   UNL     1      42.969   5.100  10.911  0.00  0.00    +0.000 C 
BRANCH  18  20
ATOM     20  C   UNL     1      45.003   3.873  10.030  0.00  0.00    +0.000 A 
ATOM     21  C   UNL     1      45.588   4.731   9.092  0.00  0.00    +0.000 A 
ATOM     22  C   UNL     1      46.206   4.197   7.958  0.00  0.00    +0.000 A 
ATOM     23  C   UNL     1      46.247   2.817   7.785  0.00  0.00    +0.000 A 
ATOM     24  C   UNL     1      45.678   2.029   8.768  0.00  0.00    +0.000 A 
ATOM     25  N   UNL     1      45.072   2.524   9.876  0.00  0.00    +0.000 NA
BRANCH  23  26
ATOM     26  C   UNL     1      46.857   2.227   6.637  0.00  0.00    +0.000 C 
ATOM     27  N   UNL     1      47.353   1.744   5.703  0.00  0.00    +0.000 NA
ENDBRANCH  23  26
ENDBRANCH  18  20
ENDBRANCH  15  18
ENDBRANCH   1  16
TORSDOF 6
ENDMDL
MODEL 6
REMARK VINA RESULT:    -6.518      3.568      8.910
REMARK INTER + INTRA:          -9.537
REMARK INTER:                  -8.670
REMARK INTRA:                  -0.867
REMARK UNBOUND:                -0.923
REMARK  Name = 
REMARK  8 active torsions:
REMARK  status: ('A' for Active; 'I' for Inactive)
REMARK    1  A    between atoms: C_1  and  C_2
REMARK    2  A    between atoms: C_2  and  C_3
REMARK    3  A    between atoms: C_2  and  C_4
REMARK    4  A    between atoms: C_2  and  C_19
REMARK    5  A    between atoms: C_5  and  C_6
REMARK    6  A    between atoms: C_10  and  N_11
REMARK    7  A    between atoms: C_14  and  O_15
REMARK    8  A    between atoms: C_22  and  C_23
REMARK                            x       y       z     vdW  Elec       q    Type
REMARK                         _______ _______ _______ _____ _____    ______ ____
ROOT
ATOM      1  C   UNL     1      47.019   5.443  13.885  0.00  0.00    +0.000 A 
ATOM      2  C   UNL     1      47.535   6.730  13.827  0.00  0.00    +0.000 A 
ATOM      3  C   UNL     1      47.361   7.453  12.662  0.00  0.00    +0.000 A 
ATOM      4  C   UNL     1      46.685   6.864  11.604  0.00  0.00    +0.000 A 
ATOM      5  C   UNL     1      46.183   5.564  11.711  0.00  0.00    +0.000 A 
ATOM      6  N   UNL     1      46.368   4.859  12.850  0.00  0.00    +0.000 NA
ENDROOT
BRANCH   5   7
ATOM      7  N   UNL     1      45.511   4.972  10.662  0.00  0.00    +0.000 N 
ATOM      8  C   UNL     1      45.738   5.440   9.300  0.00  0.00    +0.000 C 
ATOM      9  C   UNL     1      46.190   4.283   8.416  0.00  0.00    +0.000 C 
ATOM     10  C   UNL     1      45.263   3.073   8.535  0.00  0.00    +0.000 C 
ATOM     11  C   UNL     1      45.021   2.675   9.988  0.00  0.00    +0.000 C 
ATOM     12  C   UNL     1      44.592   3.857  10.852  0.00  0.00    +0.000 C 
BRANCH  10  13
ATOM     13  O   UNL     1      44.020   3.317   7.875  0.00  0.00    +0.000 OA
ATOM     14  H   UNL     1      44.190   3.479   6.931  0.00  0.00    +0.000 HD
ENDBRANCH  10  13
ENDBRANCH   5   7
BRANCH   1  16
ATOM     15  C   UNL     1      48.032   4.971  16.128  0.00  0.00    +0.000 C 
ATOM     16  C   UNL     1      47.202   4.660  15.116  0.00  0.00    +0.000 C 
BRANCH  15  18
ATOM     17  C   UNL     1      47.944   5.057  18.685  0.00  0.00    +0.000 C 
ATOM     18  C   UNL     1      48.206   4.186  17.436  0.00  0.00    +0.000 C 
ATOM     19  C   UNL     1      47.146   3.059  17.427  0.00  0.00    +0.000 C 
BRANCH  18  20
ATOM     20  C   UNL     1      49.622   3.579  17.557  0.00  0.00    +0.000 A 
ATOM     21  C   UNL     1      50.665   4.271  18.183  0.00  0.00    +0.000 A 
ATOM     22  C   UNL     1      51.932   3.686  18.264  0.00  0.00    +0.000 A 
ATOM     23  C   UNL     1      52.136   2.415  17.736  0.00  0.00    +0.000 A 
ATOM     24  C   UNL     1      51.052   1.777  17.162  0.00  0.00    +0.000 A 
ATOM     25  N   UNL     1      49.814   2.324  17.071  0.00  0.00    +0.000 NA
BRANCH  23  26
ATOM     26  C   UNL     1      53.415   1.783  17.785  0.00  0.00    +0.000 C 
ATOM     27  N   UNL     1      54.457   1.269  17.827  0.00  0.00    +0.000 NA
ENDBRANCH  23  26
ENDBRANCH  18  20
ENDBRANCH  15  18
ENDBRANCH   1  16
TORSDOF 6
ENDMDL
MODEL 7
REMARK VINA RESULT:    -6.158      2.131      2.801
REMARK INTER + INTRA:          -9.061
REMARK INTER:                  -8.163
REMARK INTRA:                  -0.897
REMARK UNBOUND:                -0.923
REMARK  Name = 
REMARK  8 active torsions:
REMARK  status: ('A' for Active; 'I' for Inactive)
REMARK    1  A    between atoms: C_1  and  C_2
REMARK    2  A    between atoms: C_2  and  C_3
REMARK    3  A    between atoms: C_2  and  C_4
REMARK    4  A    between atoms: C_2  and  C_19
REMARK    5  A    between atoms: C_5  and  C_6
REMARK    6  A    between atoms: C_10  and  N_11
REMARK    7  A    between atoms: C_14  and  O_15
REMARK    8  A    between atoms: C_22  and  C_23
REMARK                            x       y       z     vdW  Elec       q    Type
REMARK                         _______ _______ _______ _____ _____    ______ ____
ROOT
ATOM      1  C   UNL     1      47.153   4.886  14.452  0.00  0.00    +0.000 A 
ATOM      2  C   UNL     1      47.111   3.561  14.859  0.00  0.00    +0.000 A 
ATOM      3  C   UNL     1      47.810   3.203  15.997  0.00  0.00    +0.000 A 
ATOM      4  C   UNL     1      48.522   4.178  16.678  0.00  0.00    +0.000 A 
ATOM      5  C   UNL     1      48.534   5.501  16.228  0.00  0.00    +0.000 A 
ATOM      6  N   UNL     1      47.858   5.840  15.107  0.00  0.00    +0.000 NA
ENDROOT
BRANCH   5   7
ATOM      7  N   UNL     1      49.242   6.476  16.901  0.00  0.00    +0.000 N 
ATOM      8  C   UNL     1      50.574   6.849  16.442  0.00  0.00    +0.000 C 
ATOM      9  C   UNL     1      50.632   8.346  16.158  0.00  0.00    +0.000 C 
ATOM     10  C   UNL     1      50.098   9.172  17.328  0.00  0.00    +0.000 C 
ATOM     11  C   UNL     1      48.728   8.690  17.796  0.00  0.00    +0.000 C 
ATOM     12  C   UNL     1      48.697   7.186  18.050  0.00  0.00    +0.000 C 
BRANCH  10  13
ATOM     13  O   UNL     1      51.023   9.170  18.417  0.00  0.00    +0.000 OA
ATOM     14  H   UNL     1      51.746   9.789  18.219  0.00  0.00    +0.000 HD
ENDBRANCH  10  13
ENDBRANCH   5   7
BRANCH   1  16
ATOM     15  C   UNL     1      45.171   4.898  12.918  0.00  0.00    +0.000 C 
ATOM     16  C   UNL     1      46.420   5.280  13.239  0.00  0.00    +0.000 C 
BRANCH  15  18
ATOM     17  C   UNL     1      42.867   5.037  11.811  0.00  0.00    +0.000 C 
ATOM     18  C   UNL     1      44.377   5.331  11.677  0.00  0.00    +0.000 C 
ATOM     19  C   UNL     1      44.542   6.865  11.553  0.00  0.00    +0.000 C 
BRANCH  18  20
ATOM     20  C   UNL     1      44.895   4.639  10.396  0.00  0.00    +0.000 A 
ATOM     21  C   UNL     1      44.599   3.300  10.115  0.00  0.00    +0.000 A 
ATOM     22  C   UNL     1      45.093   2.713   8.948  0.00  0.00    +0.000 A 
ATOM     23  C   UNL     1      45.859   3.473   8.068  0.00  0.00    +0.000 A 
ATOM     24  C   UNL     1      46.083   4.798   8.393  0.00  0.00    +0.000 A 
ATOM     25  N   UNL     1      45.616   5.390   9.520  0.00  0.00    +0.000 NA
BRANCH  23  26
ATOM     26  C   UNL     1      46.394   2.913   6.869  0.00  0.00    +0.000 C 
ATOM     27  N   UNL     1      46.829   2.458   5.891  0.00  0.00    +0.000 NA
ENDBRANCH  23  26
ENDBRANCH  18  20
ENDBRANCH  15  18
ENDBRANCH   1  16
TORSDOF 6
ENDMDL
MODEL 8
REMARK VINA RESULT:    -5.981      3.377      8.884
REMARK INTER + INTRA:          -8.827
REMARK INTER:                  -7.875
REMARK INTRA:                  -0.953
REMARK UNBOUND:                -0.923
REMARK  Name = 
REMARK  8 active torsions:
REMARK  status: ('A' for Active; 'I' for Inactive)
REMARK    1  A    between atoms: C_1  and  C_2
REMARK    2  A    between atoms: C_2  and  C_3
REMARK    3  A    between atoms: C_2  and  C_4
REMARK    4  A    between atoms: C_2  and  C_19
REMARK    5  A    between atoms: C_5  and  C_6
REMARK    6  A    between atoms: C_10  and  N_11
REMARK    7  A    between atoms: C_14  and  O_15
REMARK    8  A    between atoms: C_22  and  C_23
REMARK                            x       y       z     vdW  Elec       q    Type
REMARK                         _______ _______ _______ _____ _____    ______ ____
ROOT
ATOM      1  C   UNL     1      46.321   8.443  13.133  0.00  0.00    +0.000 A 
ATOM      2  C   UNL     1      45.954   9.514  12.330  0.00  0.00    +0.000 A 
ATOM      3  C   UNL     1      44.960   9.316  11.390  0.00  0.00    +0.000 A 
ATOM      4  C   UNL     1      44.375   8.063  11.288  0.00  0.00    +0.000 A 
ATOM      5  C   UNL     1      44.779   7.016  12.121  0.00  0.00    +0.000 A 
ATOM      6  N   UNL     1      45.762   7.213  13.029  0.00  0.00    +0.000 NA
ENDROOT
BRANCH   5   7
ATOM      7  N   UNL     1      44.203   5.766  12.024  0.00  0.00    +0.000 N 
ATOM      8  C   UNL     1      43.251   5.489  10.955  0.00  0.00    +0.000 C 
ATOM      9  C   UNL     1      43.716   4.290  10.135  0.00  0.00    +0.000 C 
ATOM     10  C   UNL     1      44.061   3.091  11.017  0.00  0.00    +0.000 C 
ATOM     11  C   UNL     1      45.014   3.464  12.149  0.00  0.00    +0.000 C 
ATOM     12  C   UNL     1      44.532   4.679  12.937  0.00  0.00    +0.000 C 
BRANCH  10  13
ATOM     13  O   UNL     1      42.878   2.488  11.543  0.00  0.00    +0.000 OA
ATOM     14  H   UNL     1      42.924   1.527  11.404  0.00  0.00    +0.000 HD
ENDBRANCH  10  13
ENDBRANCH   5   7
BRANCH   1  16
ATOM     15  C   UNL     1      48.451   7.838  14.307  0.00  0.00    +0.000 C 
ATOM     16  C   UNL     1      47.383   8.637  14.131  0.00  0.00    +0.000 C 
BRANCH  15  18
ATOM     17  C   UNL     1      50.966   7.652  14.744  0.00  0.00    +0.000 C 
ATOM     18  C   UNL     1      49.588   8.048  15.318  0.00  0.00    +0.000 C 
ATOM     19  C   UNL     1      49.634   9.562  15.632  0.00  0.00    +0.000 C 
BRANCH  18  20
ATOM     20  C   UNL     1      49.354   7.246  16.618  0.00  0.00    +0.000 A 
ATOM     21  C   UNL     1      48.912   7.864  17.792  0.00  0.00    +0.000 A 
ATOM     22  C   UNL     1      48.720   7.101  18.946  0.00  0.00    +0.000 A 
ATOM     23  C   UNL     1      48.955   5.729  18.909  0.00  0.00    +0.000 A 
ATOM     24  C   UNL     1      49.358   5.180  17.706  0.00  0.00    +0.000 A 
ATOM     25  N   UNL     1      49.552   5.900  16.573  0.00  0.00    +0.000 NA
BRANCH  23  26
ATOM     26  C   UNL     1      48.784   4.911  20.066  0.00  0.00    +0.000 C 
ATOM     27  N   UNL     1      48.646   4.246  21.009  0.00  0.00    +0.000 NA
ENDBRANCH  23  26
ENDBRANCH  18  20
ENDBRANCH  15  18
ENDBRANCH   1  16
TORSDOF 6
ENDMDL
MODEL 9
REMARK VINA RESULT:    -5.785      3.912      8.432
REMARK INTER + INTRA:          -8.568
REMARK INTER:                  -7.633
REMARK INTRA:                  -0.935
REMARK UNBOUND:                -0.923
REMARK  Name = 
REMARK  8 active torsions:
REMARK  status: ('A' for Active; 'I' for Inactive)
REMARK    1  A    between atoms: C_1  and  C_2
REMARK    2  A    between atoms: C_2  and  C_3
REMARK    3  A    between atoms: C_2  and  C_4
REMARK    4  A    between atoms: C_2  and  C_19
REMARK    5  A    between atoms: C_5  and  C_6
REMARK    6  A    between atoms: C_10  and  N_11
REMARK    7  A    between atoms: C_14  and  O_15
REMARK    8  A    between atoms: C_22  and  C_23
REMARK                            x       y       z     vdW  Elec       q    Type
REMARK                         _______ _______ _______ _____ _____    ______ ____
ROOT
ATOM      1  C   UNL     1      46.938   5.010  13.887  0.00  0.00    +0.000 A 
ATOM      2  C   UNL     1      45.876   4.600  13.093  0.00  0.00    +0.000 A 
ATOM      3  C   UNL     1      45.650   5.271  11.906  0.00  0.00    +0.000 A 
ATOM      4  C   UNL     1      46.488   6.320  11.561  0.00  0.00    +0.000 A 
ATOM      5  C   UNL     1      47.545   6.695  12.394  0.00  0.00    +0.000 A 
ATOM      6  N   UNL     1      47.751   6.042  13.561  0.00  0.00    +0.000 NA
ENDROOT
BRANCH   5   7
ATOM      7  N   UNL     1      48.381   7.740  12.058  0.00  0.00    +0.000 N 
ATOM      8  C   UNL     1      47.870   9.105  12.060  0.00  0.00    +0.000 C 
ATOM      9  C   UNL     1      48.713   9.981  12.981  0.00  0.00    +0.000 C 
ATOM     10  C   UNL     1      50.207   9.852  12.685  0.00  0.00    +0.000 C 
ATOM     11  C   UNL     1      50.662   8.396  12.639  0.00  0.00    +0.000 C 
ATOM     12  C   UNL     1      49.785   7.542  11.726  0.00  0.00    +0.000 C 
BRANCH  10  13
ATOM     13  O   UNL     1      50.543  10.515  11.465  0.00  0.00    +0.000 OA
ATOM     14  H   UNL     1      49.775  11.026  11.161  0.00  0.00    +0.000 HD
ENDBRANCH  10  13
ENDBRANCH   5   7
BRANCH   1  16
ATOM     15  C   UNL     1      47.950   4.762  16.166  0.00  0.00    +0.000 C 
ATOM     16  C   UNL     1      47.185   4.310  15.157  0.00  0.00    +0.000 C 
BRANCH  15  18
ATOM     17  C   UNL     1      47.976   5.011  18.714  0.00  0.00    +0.000 C 
ATOM     18  C   UNL     1      48.187   4.063  17.513  0.00  0.00    +0.000 C 
ATOM     19  C   UNL     1      47.134   2.934  17.623  0.00  0.00    +0.000 C 
BRANCH  18  20
ATOM     20  C   UNL     1      49.610   3.469  17.608  0.00  0.00    +0.000 A 
ATOM     21  C   UNL     1      49.893   2.169  17.175  0.00  0.00    +0.000 A 
ATOM     22  C   UNL     1      51.193   1.670  17.286  0.00  0.00    +0.000 A 
ATOM     23  C   UNL     1      52.196   2.480  17.809  0.00  0.00    +0.000 A 
ATOM     24  C   UNL     1      51.853   3.765  18.185  0.00  0.00    +0.000 A 
ATOM     25  N   UNL     1      50.598   4.271  18.089  0.00  0.00    +0.000 NA
BRANCH  23  26
ATOM     26  C   UNL     1      53.537   2.010  17.952  0.00  0.00    +0.000 C 
ATOM     27  N   UNL     1      54.628   1.625  18.067  0.00  0.00    +0.000 NA
ENDBRANCH  23  26
ENDBRANCH  18  20
ENDBRANCH  15  18
ENDBRANCH   1  16
TORSDOF 6
ENDMDL
