MODEL 1
REMARK VINA RESULT:    -7.784      0.000      0.000
REMARK INTER + INTRA:          -9.642
REMARK INTER:                  -9.149
REMARK INTRA:                  -0.493
REMARK UNBOUND:                -0.493
REMARK  Name = 
REMARK  3 active torsions:
REMARK  status: ('A' for Active; 'I' for Inactive)
REMARK    1  A    between atoms: N_6  and  C_7
REMARK    2  A    between atoms: C_7  and  C_8
REMARK    3  A    between atoms: C_12  and  C_13
REMARK                            x       y       z     vdW  Elec       q    Type
REMARK                         _______ _______ _______ _____ _____    ______ ____
ROOT
ATOM      1  C   UNL     1      44.899   4.088  11.433  0.00  0.00    +0.000 A 
ATOM      2  C   UNL     1      45.345   3.273  12.462  0.00  0.00    +0.000 A 
ATOM      3  N   UNL     1      46.266   3.647  13.373  0.00  0.00    +0.000 NA
ATOM      4  C   UNL     1      46.762   4.903  13.262  0.00  0.00    +0.000 A 
ATOM      5  C   UNL     1      46.401   5.827  12.278  0.00  0.00    +0.000 A 
ATOM      6  C   UNL     1      45.440   5.382  11.354  0.00  0.00    +0.000 A 
ENDROOT
BRANCH   5   7
ATOM      7  C   UNL     1      46.980   7.181  12.225  0.00  0.00    +0.000 A 
ATOM      8  C   UNL     1      46.278   8.334  12.548  0.00  0.00    +0.000 A 
ATOM      9  N   UNL     1      46.776   9.590  12.487  0.00  0.00    +0.000 NA
ATOM     10  C   UNL     1      48.051   9.689  12.090  0.00  0.00    +0.000 A 
ATOM     11  N   UNL     1      48.848   8.665  11.758  0.00  0.00    +0.000 NA
ATOM     12  C   UNL     1      48.285   7.437  11.834  0.00  0.00    +0.000 A 
ENDBRANCH   5   7
BRANCH   1  13
ATOM     13  C   UNL     1      43.879   3.598  10.441  0.00  0.00    +0.000 C 
BRANCH  13  19
ATOM     14 CL   UNL     1      47.864   2.441   5.370  0.00  0.00    +0.000 Cl
ATOM     15  C   UNL     1      46.797   2.403   6.703  0.00  0.00    +0.000 A 
ATOM     16  C   UNL     1      46.817   1.400   7.641  0.00  0.00    +0.000 A 
ATOM     17  N   UNL     1      45.987   1.357   8.711  0.00  0.00    +0.000 NA
ATOM     18  C   UNL     1      45.097   2.351   8.833  0.00  0.00    +0.000 A 
ATOM     19  N   UNL     1      44.250   2.293   9.933  0.00  0.00    +0.000 N 
ATOM     20  N   UNL     1      45.007   3.375   7.969  0.00  0.00    +0.000 NA
ATOM     21  C   UNL     1      45.859   3.378   6.919  0.00  0.00    +0.000 A 
ATOM     22  H   UNL     1      44.675   1.658  10.597  0.00  0.00    +0.000 HD
ENDBRANCH  13  19
ENDBRANCH   1  13
TORSDOF 3
ENDMDL
MODEL 2
REMARK VINA RESULT:    -7.089      2.756      6.542
REMARK INTER + INTRA:          -8.825
REMARK INTER:                  -8.437
REMARK INTRA:                  -0.389
REMARK UNBOUND:                -0.493
REMARK  Name = 
REMARK  3 active torsions:
REMARK  status: ('A' for Active; 'I' for Inactive)
REMARK    1  A    between atoms: N_6  and  C_7
REMARK    2  A    between atoms: C_7  and  C_8
REMARK    3  A    between atoms: C_12  and  C_13
REMARK                            x       y       z     vdW  Elec       q    Type
REMARK                         _______ _______ _______ _____ _____    ______ ____
ROOT
ATOM      1  C   UNL     1      44.603   4.407  12.243  0.00  0.00    +0.000 A 
ATOM      2  C   UNL     1      43.554   3.549  12.534  0.00  0.00    +0.000 A 
ATOM      3  N   UNL     1      43.137   2.565  11.712  0.00  0.00    +0.000 NA
ATOM      4  C   UNL     1      43.805   2.419  10.543  0.00  0.00    +0.000 A 
ATOM      5  C   UNL     1      44.879   3.210  10.125  0.00  0.00    +0.000 A 
ATOM      6  C   UNL     1      45.268   4.222  11.020  0.00  0.00    +0.000 A 
ENDROOT
BRANCH   5   7
ATOM      7  C   UNL     1      45.563   2.986   8.840  0.00  0.00    +0.000 A 
ATOM      8  C   UNL     1      46.041   1.751   8.424  0.00  0.00    +0.000 A 
ATOM      9  N   UNL     1      46.691   1.520   7.261  0.00  0.00    +0.000 NA
ATOM     10  C   UNL     1      46.862   2.588   6.471  0.00  0.00    +0.000 A 
ATOM     11  N   UNL     1      46.447   3.832   6.738  0.00  0.00    +0.000 NA
ATOM     12  C   UNL     1      45.809   3.995   7.921  0.00  0.00    +0.000 A 
ENDBRANCH   5   7
BRANCH   1  13
ATOM     13  C   UNL     1      45.005   5.496  13.202  0.00  0.00    +0.000 C 
BRANCH  13  19
ATOM     14 CL   UNL     1      50.711   8.689  12.793  0.00  0.00    +0.000 Cl
ATOM     15  C   UNL     1      49.396   7.646  13.105  0.00  0.00    +0.000 A 
ATOM     16  C   UNL     1      49.218   7.016  14.312  0.00  0.00    +0.000 A 
ATOM     17  N   UNL     1      48.177   6.193  14.584  0.00  0.00    +0.000 NA
ATOM     18  C   UNL     1      47.290   5.988  13.601  0.00  0.00    +0.000 A 
ATOM     19  N   UNL     1      46.228   5.140  13.891  0.00  0.00    +0.000 N 
ATOM     20  N   UNL     1      47.377   6.564  12.391  0.00  0.00    +0.000 NA
ATOM     21  C   UNL     1      48.431   7.381  12.168  0.00  0.00    +0.000 A 
ATOM     22  H   UNL     1      46.172   5.075  14.900  0.00  0.00    +0.000 HD
ENDBRANCH  13  19
ENDBRANCH   1  13
TORSDOF 3
ENDMDL
MODEL 3
REMARK VINA RESULT:    -7.010      4.079      7.475
REMARK INTER + INTRA:          -8.733
REMARK INTER:                  -8.418
REMARK INTRA:                  -0.314
REMARK UNBOUND:                -0.493
REMARK  Name = 
REMARK  3 active torsions:
REMARK  status: ('A' for Active; 'I' for Inactive)
REMARK    1  A    between atoms: N_6  and  C_7
REMARK    2  A    between atoms: C_7  and  C_8
REMARK    3  A    between atoms: C_12  and  C_13
REMARK                            x       y       z     vdW  Elec       q    Type
REMARK                         _______ _______ _______ _____ _____    ______ ____
ROOT
ATOM      1  C   UNL     1      45.136   4.955  12.809  0.00  0.00    +0.000 A 
ATOM      2  C   UNL     1      43.772   5.199  12.843  0.00  0.00    +0.000 A 
ATOM      3  N   UNL     1      42.942   4.977  11.803  0.00  0.00    +0.000 NA
ATOM      4  C   UNL     1      43.497   4.476  10.673  0.00  0.00    +0.000 A 
ATOM      5  C   UNL     1      44.854   4.182  10.504  0.00  0.00    +0.000 A 
ATOM      6  C   UNL     1      45.671   4.437  11.618  0.00  0.00    +0.000 A 
ENDROOT
BRANCH   5   7
ATOM      7  C   UNL     1      45.383   3.631   9.245  0.00  0.00    +0.000 A 
ATOM      8  C   UNL     1      45.546   2.273   9.004  0.00  0.00    +0.000 A 
ATOM      9  N   UNL     1      46.050   1.740   7.868  0.00  0.00    +0.000 NA
ATOM     10  C   UNL     1      46.401   2.620   6.921  0.00  0.00    +0.000 A 
ATOM     11  N   UNL     1      46.292   3.951   7.012  0.00  0.00    +0.000 NA
ATOM     12  C   UNL     1      45.786   4.419   8.177  0.00  0.00    +0.000 A 
ENDBRANCH   5   7
BRANCH   1  13
ATOM     13  C   UNL     1      46.006   5.243  14.004  0.00  0.00    +0.000 C 
BRANCH  13  19
ATOM     14 CL   UNL     1      49.872   4.748  19.271  0.00  0.00    +0.000 Cl
ATOM     15  C   UNL     1      48.871   4.536  17.904  0.00  0.00    +0.000 A 
ATOM     16  C   UNL     1      47.991   3.489  17.783  0.00  0.00    +0.000 A 
ATOM     17  N   UNL     1      47.181   3.308  16.712  0.00  0.00    +0.000 NA
ATOM     18  C   UNL     1      47.269   4.207  15.722  0.00  0.00    +0.000 A 
ATOM     19  N   UNL     1      46.435   4.009  14.629  0.00  0.00    +0.000 N 
ATOM     20  N   UNL     1      48.096   5.266  15.754  0.00  0.00    +0.000 NA
ATOM     21  C   UNL     1      48.882   5.407  16.845  0.00  0.00    +0.000 A 
ATOM     22  H   UNL     1      45.701   3.380  14.930  0.00  0.00    +0.000 HD
ENDBRANCH  13  19
ENDBRANCH   1  13
TORSDOF 3
ENDMDL
MODEL 4
REMARK VINA RESULT:    -6.251      2.304      4.013
REMARK INTER + INTRA:          -7.841
REMARK INTER:                  -7.332
REMARK INTRA:                  -0.509
REMARK UNBOUND:                -0.493
REMARK  Name = 
REMARK  3 active torsions:
REMARK  status: ('A' for Active; 'I' for Inactive)
REMARK    1  A    between atoms: N_6  and  C_7
REMARK    2  A    between atoms: C_7  and  C_8
REMARK    3  A    between atoms: C_12  and  C_13
REMARK                            x       y       z     vdW  Elec       q    Type
REMARK                         _______ _______ _______ _____ _____    ______ ____
ROOT
ATOM      1  C   UNL     1      46.552   6.506  11.721  0.00  0.00    +0.000 A 
ATOM      2  C   UNL     1      47.731   7.141  11.361  0.00  0.00    +0.000 A 
ATOM      3  N   UNL     1      48.822   7.204  12.151  0.00  0.00    +0.000 NA
ATOM      4  C   UNL     1      48.740   6.596  13.359  0.00  0.00    +0.000 A 
ATOM      5  C   UNL     1      47.617   5.920  13.845  0.00  0.00    +0.000 A 
ATOM      6  C   UNL     1      46.510   5.888  12.981  0.00  0.00    +0.000 A 
ENDROOT
BRANCH   5   7
ATOM      7  C   UNL     1      47.606   5.274  15.169  0.00  0.00    +0.000 A 
ATOM      8  C   UNL     1      48.376   5.700  16.243  0.00  0.00    +0.000 A 
ATOM      9  N   UNL     1      48.402   5.113  17.461  0.00  0.00    +0.000 NA
ATOM     10  C   UNL     1      47.604   4.047  17.609  0.00  0.00    +0.000 A 
ATOM     11  N   UNL     1      46.804   3.534  16.667  0.00  0.00    +0.000 NA
ATOM     12  C   UNL     1      46.830   4.164  15.469  0.00  0.00    +0.000 A 
ENDBRANCH   5   7
BRANCH   1  13
ATOM     13  C   UNL     1      45.366   6.488  10.793  0.00  0.00    +0.000 C 
BRANCH  13  19
ATOM     14 CL   UNL     1      46.713   1.568   6.681  0.00  0.00    +0.000 Cl
ATOM     15  C   UNL     1      46.131   2.635   7.880  0.00  0.00    +0.000 A 
ATOM     16  C   UNL     1      45.696   2.204   9.110  0.00  0.00    +0.000 A 
ATOM     17  N   UNL     1      45.241   3.034  10.079  0.00  0.00    +0.000 NA
ATOM     18  C   UNL     1      45.210   4.343   9.795  0.00  0.00    +0.000 A 
ATOM     19  N   UNL     1      44.738   5.183  10.796  0.00  0.00    +0.000 N 
ATOM     20  N   UNL     1      45.618   4.857   8.623  0.00  0.00    +0.000 NA
ATOM     21  C   UNL     1      46.069   3.991   7.689  0.00  0.00    +0.000 A 
ATOM     22  H   UNL     1      44.789   4.663  11.664  0.00  0.00    +0.000 HD
ENDBRANCH  13  19
ENDBRANCH   1  13
TORSDOF 3
ENDMDL
MODEL 5
REMARK VINA RESULT:    -6.242      4.462      7.969
REMARK INTER + INTRA:          -7.830
REMARK INTER:                  -7.512
REMARK INTRA:                  -0.317
REMARK UNBOUND:                -0.493
REMARK  Name = 
REMARK  3 active torsions:
REMARK  status: ('A' for Active; 'I' for Inactive)
REMARK    1  A    between atoms: N_6  and  C_7
REMARK    2  A    between atoms: C_7  and  C_8
REMARK    3  A    between atoms: C_12  and  C_13
REMARK                            x       y       z     vdW  Elec       q    Type
REMARK                         _______ _______ _______ _____ _____    ______ ____
ROOT
ATOM      1  C   UNL     1      46.873   6.694  13.274  0.00  0.00    +0.000 A 
ATOM      2  C   UNL     1      46.226   7.915  13.161  0.00  0.00    +0.000 A 
ATOM      3  N   UNL     1      45.319   8.199  12.205  0.00  0.00    +0.000 NA
ATOM      4  C   UNL     1      45.032   7.214  11.320  0.00  0.00    +0.000 A 
ATOM      5  C   UNL     1      45.607   5.939  11.320  0.00  0.00    +0.000 A 
ATOM      6  C   UNL     1      46.547   5.701  12.336  0.00  0.00    +0.000 A 
ENDROOT
BRANCH   5   7
ATOM      7  C   UNL     1      45.238   4.915  10.328  0.00  0.00    +0.000 A 
ATOM      8  C   UNL     1      45.624   4.956   8.996  0.00  0.00    +0.000 A 
ATOM      9  N   UNL     1      45.282   4.042   8.059  0.00  0.00    +0.000 NA
ATOM     10  C   UNL     1      44.518   3.030   8.489  0.00  0.00    +0.000 A 
ATOM     11  N   UNL     1      44.081   2.858   9.742  0.00  0.00    +0.000 NA
ATOM     12  C   UNL     1      44.453   3.811  10.628  0.00  0.00    +0.000 A 
ENDBRANCH   5   7
BRANCH   1  13
ATOM     13  C   UNL     1      47.889   6.452  14.359  0.00  0.00    +0.000 C 
BRANCH  13  19
ATOM     14 CL   UNL     1      50.475   4.898  20.176  0.00  0.00    +0.000 Cl
ATOM     15  C   UNL     1      49.604   5.030  18.712  0.00  0.00    +0.000 A 
ATOM     16  C   UNL     1      48.282   4.678  18.601  0.00  0.00    +0.000 A 
ATOM     17  N   UNL     1      47.570   4.784  17.453  0.00  0.00    +0.000 NA
ATOM     18  C   UNL     1      48.217   5.249  16.376  0.00  0.00    +0.000 A 
ATOM     19  N   UNL     1      47.477   5.351  15.204  0.00  0.00    +0.000 N 
ATOM     20  N   UNL     1      49.507   5.622  16.390  0.00  0.00    +0.000 NA
ATOM     21  C   UNL     1      50.175   5.503  17.559  0.00  0.00    +0.000 A 
ATOM     22  H   UNL     1      46.500   5.332  15.472  0.00  0.00    +0.000 HD
ENDBRANCH  13  19
ENDBRANCH   1  13
TORSDOF 3
ENDMDL
MODEL 6
REMARK VINA RESULT:    -5.930      4.302      7.946
REMARK INTER + INTRA:          -7.463
REMARK INTER:                  -7.003
REMARK INTRA:                  -0.460
REMARK UNBOUND:                -0.493
REMARK  Name = 
REMARK  3 active torsions:
REMARK  status: ('A' for Active; 'I' for Inactive)
REMARK    1  A    between atoms: N_6  and  C_7
REMARK    2  A    between atoms: C_7  and  C_8
REMARK    3  A    between atoms: C_12  and  C_13
REMARK                            x       y       z     vdW  Elec       q    Type
REMARK                         _______ _______ _______ _____ _____    ______ ____
ROOT
ATOM      1  C   UNL     1      46.975   8.078  13.158  0.00  0.00    +0.000 A 
ATOM      2  C   UNL     1      46.373   9.149  12.515  0.00  0.00    +0.000 A 
ATOM      3  N   UNL     1      45.271   9.041  11.745  0.00  0.00    +0.000 NA
ATOM      4  C   UNL     1      44.733   7.804  11.616  0.00  0.00    +0.000 A 
ATOM      5  C   UNL     1      45.234   6.642  12.210  0.00  0.00    +0.000 A 
ATOM      6  C   UNL     1      46.385   6.814  12.998  0.00  0.00    +0.000 A 
ENDROOT
BRANCH   5   7
ATOM      7  C   UNL     1      44.588   5.331  12.030  0.00  0.00    +0.000 A 
ATOM      8  C   UNL     1      43.994   4.919  10.844  0.00  0.00    +0.000 A 
ATOM      9  N   UNL     1      43.375   3.731  10.657  0.00  0.00    +0.000 NA
ATOM     10  C   UNL     1      43.361   2.912  11.717  0.00  0.00    +0.000 A 
ATOM     11  N   UNL     1      43.900   3.172  12.914  0.00  0.00    +0.000 NA
ATOM     12  C   UNL     1      44.499   4.380  13.036  0.00  0.00    +0.000 A 
ENDBRANCH   5   7
BRANCH   1  13
ATOM     13  C   UNL     1      48.215   8.270  13.990  0.00  0.00    +0.000 C 
BRANCH  13  19
ATOM     14 CL   UNL     1      48.477   5.309  19.830  0.00  0.00    +0.000 Cl
ATOM     15  C   UNL     1      48.589   5.812  18.201  0.00  0.00    +0.000 A 
ATOM     16  C   UNL     1      48.596   4.928  17.150  0.00  0.00    +0.000 A 
ATOM     17  N   UNL     1      48.674   5.307  15.851  0.00  0.00    +0.000 NA
ATOM     18  C   UNL     1      48.761   6.620  15.603  0.00  0.00    +0.000 A 
ATOM     19  N   UNL     1      48.843   6.995  14.268  0.00  0.00    +0.000 N 
ATOM     20  N   UNL     1      48.757   7.558  16.565  0.00  0.00    +0.000 NA
ATOM     21  C   UNL     1      48.673   7.133  17.846  0.00  0.00    +0.000 A 
ATOM     22  H   UNL     1      48.518   6.206  13.722  0.00  0.00    +0.000 HD
ENDBRANCH  13  19
ENDBRANCH   1  13
TORSDOF 3
ENDMDL
MODEL 7
REMARK VINA RESULT:    -5.768      5.601      7.761
REMARK INTER + INTRA:          -7.273
REMARK INTER:                  -6.938
REMARK INTRA:                  -0.334
REMARK UNBOUND:                -0.493
REMARK  Name = 
REMARK  3 active torsions:
REMARK  status: ('A' for Active; 'I' for Inactive)
REMARK    1  A    between atoms: N_6  and  C_7
REMARK    2  A    between atoms: C_7  and  C_8
REMARK    3  A    between atoms: C_12  and  C_13
REMARK                            x       y       z     vdW  Elec       q    Type
REMARK                         _______ _______ _______ _____ _____    ______ ____
ROOT
ATOM      1  C   UNL     1      48.407   4.521  16.911  0.00  0.00    +0.000 A 
ATOM      2  C   UNL     1      48.545   5.703  17.622  0.00  0.00    +0.000 A 
ATOM      3  N   UNL     1      49.601   5.986  18.412  0.00  0.00    +0.000 NA
ATOM      4  C   UNL     1      50.575   5.049  18.491  0.00  0.00    +0.000 A 
ATOM      5  C   UNL     1      50.565   3.819  17.827  0.00  0.00    +0.000 A 
ATOM      6  C   UNL     1      49.440   3.576  17.021  0.00  0.00    +0.000 A 
ENDROOT
BRANCH   5   7
ATOM      7  C   UNL     1      51.669   2.851  17.956  0.00  0.00    +0.000 A 
ATOM      8  C   UNL     1      52.866   3.127  18.602  0.00  0.00    +0.000 A 
ATOM      9  N   UNL     1      53.903   2.267  18.716  0.00  0.00    +0.000 NA
ATOM     10  C   UNL     1      53.722   1.063  18.158  0.00  0.00    +0.000 A 
ATOM     11  N   UNL     1      52.620   0.657  17.515  0.00  0.00    +0.000 NA
ATOM     12  C   UNL     1      51.623   1.568  17.430  0.00  0.00    +0.000 A 
ENDBRANCH   5   7
BRANCH   1  13
ATOM     13  C   UNL     1      47.192   4.265  16.060  0.00  0.00    +0.000 C 
BRANCH  13  19
ATOM     14 CL   UNL     1      43.975   3.542  10.397  0.00  0.00    +0.000 Cl
ATOM     15  C   UNL     1      44.895   4.037  11.748  0.00  0.00    +0.000 A 
ATOM     16  C   UNL     1      44.944   5.341  12.175  0.00  0.00    +0.000 A 
ATOM     17  N   UNL     1      45.659   5.753  13.250  0.00  0.00    +0.000 NA
ATOM     18  C   UNL     1      46.359   4.821  13.910  0.00  0.00    +0.000 A 
ATOM     19  N   UNL     1      47.089   5.257  15.009  0.00  0.00    +0.000 N 
ATOM     20  N   UNL     1      46.368   3.522  13.570  0.00  0.00    +0.000 NA
ATOM     21  C   UNL     1      45.636   3.157  12.493  0.00  0.00    +0.000 A 
ATOM     22  H   UNL     1      46.708   6.156  15.276  0.00  0.00    +0.000 HD
ENDBRANCH  13  19
ENDBRANCH   1  13
TORSDOF 3
ENDMDL
MODEL 8
REMARK VINA RESULT:    -5.758      5.724      7.426
REMARK INTER + INTRA:          -7.260
REMARK INTER:                  -6.852
REMARK INTRA:                  -0.409
REMARK UNBOUND:                -0.493
REMARK  Name = 
REMARK  3 active torsions:
REMARK  status: ('A' for Active; 'I' for Inactive)
REMARK    1  A    between atoms: N_6  and  C_7
REMARK    2  A    between atoms: C_7  and  C_8
REMARK    3  A    between atoms: C_12  and  C_13
REMARK                            x       y       z     vdW  Elec       q    Type
REMARK                         _______ _______ _______ _____ _____    ______ ____
ROOT
ATOM      1  C   UNL     1      48.436   3.522  16.708  0.00  0.00    +0.000 A 
ATOM      2  C   UNL     1      48.807   2.252  16.295  0.00  0.00    +0.000 A 
ATOM      3  N   UNL     1      49.994   1.682  16.590  0.00  0.00    +0.000 NA
ATOM      4  C   UNL     1      50.853   2.410  17.343  0.00  0.00    +0.000 A 
ATOM      5  C   UNL     1      50.607   3.699  17.827  0.00  0.00    +0.000 A 
ATOM      6  C   UNL     1      49.357   4.243  17.486  0.00  0.00    +0.000 A 
ENDROOT
BRANCH   5   7
ATOM      7  C   UNL     1      51.588   4.427  18.648  0.00  0.00    +0.000 A 
ATOM      8  C   UNL     1      52.901   4.014  18.830  0.00  0.00    +0.000 A 
ATOM      9  N   UNL     1      53.817   4.649  19.596  0.00  0.00    +0.000 NA
ATOM     10  C   UNL     1      53.391   5.764  20.204  0.00  0.00    +0.000 A 
ATOM     11  N   UNL     1      52.161   6.282  20.112  0.00  0.00    +0.000 NA
ATOM     12  C   UNL     1      51.291   5.594  19.335  0.00  0.00    +0.000 A 
ENDBRANCH   5   7
BRANCH   1  13
ATOM     13  C   UNL     1      47.100   4.102  16.327  0.00  0.00    +0.000 C 
BRANCH  13  19
ATOM     14 CL   UNL     1      44.226   3.972  10.440  0.00  0.00    +0.000 Cl
ATOM     15  C   UNL     1      45.119   4.292  11.860  0.00  0.00    +0.000 A 
ATOM     16  C   UNL     1      45.373   5.566  12.306  0.00  0.00    +0.000 A 
ATOM     17  N   UNL     1      46.070   5.842  13.434  0.00  0.00    +0.000 NA
ATOM     18  C   UNL     1      46.540   4.799  14.131  0.00  0.00    +0.000 A 
ATOM     19  N   UNL     1      47.256   5.095  15.284  0.00  0.00    +0.000 N 
ATOM     20  N   UNL     1      46.338   3.519  13.776  0.00  0.00    +0.000 NA
ATOM     21  C   UNL     1      45.633   3.293  12.645  0.00  0.00    +0.000 A 
ATOM     22  H   UNL     1      47.026   6.049  15.535  0.00  0.00    +0.000 HD
ENDBRANCH  13  19
ENDBRANCH   1  13
TORSDOF 3
ENDMDL
