MODEL 1
REMARK VINA RESULT:    -6.759      0.000      0.000
REMARK INTER + INTRA:          -9.590
REMARK INTER:                  -8.933
REMARK INTRA:                  -0.657
REMARK UNBOUND:                -0.657
REMARK  Name = 
REMARK  6 active torsions:
REMARK  status: ('A' for Active; 'I' for Inactive)
REMARK    1  A    between atoms: N_1  and  C_2
REMARK    2  A    between atoms: C_2  and  C_3
REMARK    3  A    between atoms: C_3  and  N_4
REMARK    4  A    between atoms: C_7  and  C_8
REMARK    5  A    between atoms: C_8  and  N_9
REMARK    6  A    between atoms: C_15  and  C_16
REMARK                            x       y       z     vdW  Elec       q    Type
REMARK                         _______ _______ _______ _____ _____    ______ ____
ROOT
ATOM      1  N   UNL     1      44.167   5.264  11.172  0.00  0.00    +0.000 N 
ATOM      2  C   UNL     1      43.197   4.609  11.883  0.00  0.00    +0.000 A 
ATOM      3  N   UNL     1      43.041   3.373  11.470  0.00  0.00    +0.000 NA
ATOM      4  C   UNL     1      43.912   3.235  10.427  0.00  0.00    +0.000 A 
ATOM      5  N   UNL     1      44.064   2.122   9.678  0.00  0.00    +0.000 NA
ATOM      6  C   UNL     1      44.965   2.246   8.670  0.00  0.00    +0.000 A 
ATOM      7  C   UNL     1      45.713   3.388   8.370  0.00  0.00    +0.000 A 
ATOM      8  C   UNL     1      45.554   4.525   9.166  0.00  0.00    +0.000 A 
ATOM      9  C   UNL     1      44.624   4.410  10.203  0.00  0.00    +0.000 A 
ENDROOT
BRANCH   7  10
ATOM     10  C   UNL     1      46.628   3.334   7.205  0.00  0.00    +0.000 C 
ATOM     11  N   UNL     1      47.559   2.335   7.147  0.00  0.00    +0.000 N 
ATOM     12  O   UNL     1      46.566   4.167   6.306  0.00  0.00    +0.000 OA
ATOM     13  H   UNL     1      47.687   1.603   7.825  0.00  0.00    +0.000 HD
ATOM     14  H   UNL     1      48.175   2.339   6.340  0.00  0.00    +0.000 HD
ENDBRANCH   7  10
BRANCH   1  15
ATOM     15  C   UNL     1      44.557   6.647  11.364  0.00  0.00    +0.000 C 
BRANCH  15  19
ATOM     16  N   UNL     1      47.952   7.647  12.485  0.00  0.00    +0.000 NA
ATOM     17  C   UNL     1      46.909   8.600  12.081  0.00  0.00    +0.000 C 
ATOM     18  C   UNL     1      45.636   8.407  12.901  0.00  0.00    +0.000 C 
ATOM     19  C   UNL     1      45.087   6.983  12.774  0.00  0.00    +0.000 C 
ATOM     20  C   UNL     1      46.205   6.008  13.180  0.00  0.00    +0.000 C 
ATOM     21  C   UNL     1      47.502   6.248  12.399  0.00  0.00    +0.000 C 
BRANCH  16  22
ATOM     22  C   UNL     1      49.196   7.825  11.703  0.00  0.00    +0.000 C 
BRANCH  22  23
ATOM     23  C   UNL     1      50.392   8.345  12.529  0.00  0.00    +0.000 C 
BRANCH  23  24
ATOM     24  N   UNL     1      50.573   7.588  13.770  0.00  0.00    +0.000 NA
ATOM     25  H   UNL     1      50.318   8.187  14.555  0.00  0.00    +0.000 HD
ATOM     26  H   UNL     1      51.562   7.372  13.894  0.00  0.00    +0.000 HD
ENDBRANCH  23  24
ENDBRANCH  22  23
ENDBRANCH  16  22
ENDBRANCH  15  19
ENDBRANCH   1  15
TORSDOF 6
ENDMDL
MODEL 2
REMARK VINA RESULT:    -6.620      1.998      6.111
REMARK INTER + INTRA:          -9.405
REMARK INTER:                  -8.745
REMARK INTRA:                  -0.661
REMARK UNBOUND:                -0.657
REMARK  Name = 
REMARK  6 active torsions:
REMARK  status: ('A' for Active; 'I' for Inactive)
REMARK    1  A    between atoms: N_1  and  C_2
REMARK    2  A    between atoms: C_2  and  C_3
REMARK    3  A    between atoms: C_3  and  N_4
REMARK    4  A    between atoms: C_7  and  C_8
REMARK    5  A    between atoms: C_8  and  N_9
REMARK    6  A    between atoms: C_15  and  C_16
REMARK                            x       y       z     vdW  Elec       q    Type
REMARK                         _______ _______ _______ _____ _____    ______ ____
ROOT
ATOM      1  N   UNL     1      44.764   4.781  11.890  0.00  0.00    +0.000 N 
ATOM      2  C   UNL     1      43.579   5.124  12.485  0.00  0.00    +0.000 A 
ATOM      3  N   UNL     1      43.627   6.327  13.007  0.00  0.00    +0.000 NA
ATOM      4  C   UNL     1      44.901   6.764  12.778  0.00  0.00    +0.000 A 
ATOM      5  N   UNL     1      45.403   7.952  13.177  0.00  0.00    +0.000 NA
ATOM      6  C   UNL     1      46.711   8.137  12.865  0.00  0.00    +0.000 A 
ATOM      7  C   UNL     1      47.533   7.231  12.188  0.00  0.00    +0.000 A 
ATOM      8  C   UNL     1      46.991   6.014  11.770  0.00  0.00    +0.000 A 
ATOM      9  C   UNL     1      45.647   5.810  12.091  0.00  0.00    +0.000 A 
ENDROOT
BRANCH   7  10
ATOM     10  C   UNL     1      48.950   7.609  11.966  0.00  0.00    +0.000 C 
ATOM     11  N   UNL     1      49.911   7.042  12.755  0.00  0.00    +0.000 N 
ATOM     12  O   UNL     1      49.266   8.417  11.100  0.00  0.00    +0.000 OA
ATOM     13  H   UNL     1      49.758   6.367  13.485  0.00  0.00    +0.000 HD
ATOM     14  H   UNL     1      50.867   7.335  12.581  0.00  0.00    +0.000 HD
ENDBRANCH   7  10
BRANCH   1  15
ATOM     15  C   UNL     1      45.043   3.511  11.249  0.00  0.00    +0.000 C 
BRANCH  15  19
ATOM     16  N   UNL     1      45.822   3.053   7.649  0.00  0.00    +0.000 NA
ATOM     17  C   UNL     1      45.832   1.963   8.633  0.00  0.00    +0.000 C 
ATOM     18  C   UNL     1      44.491   1.858   9.355  0.00  0.00    +0.000 C 
ATOM     19  C   UNL     1      44.120   3.166  10.061  0.00  0.00    +0.000 C 
ATOM     20  C   UNL     1      44.140   4.290   9.013  0.00  0.00    +0.000 C 
ATOM     21  C   UNL     1      45.467   4.350   8.246  0.00  0.00    +0.000 C 
BRANCH  16  22
ATOM     22  C   UNL     1      47.114   3.164   6.935  0.00  0.00    +0.000 C 
BRANCH  22  23
ATOM     23  C   UNL     1      47.882   1.830   6.806  0.00  0.00    +0.000 C 
BRANCH  23  24
ATOM     24  N   UNL     1      48.596   1.729   5.532  0.00  0.00    +0.000 NA
ATOM     25  H   UNL     1      49.570   1.990   5.684  0.00  0.00    +0.000 HD
ATOM     26  H   UNL     1      48.222   2.415   4.878  0.00  0.00    +0.000 HD
ENDBRANCH  23  24
ENDBRANCH  22  23
ENDBRANCH  16  22
ENDBRANCH  15  19
ENDBRANCH   1  15
TORSDOF 6
ENDMDL
MODEL 3
REMARK VINA RESULT:    -6.148      3.755      7.498
REMARK INTER + INTRA:          -8.782
REMARK INTER:                  -8.131
REMARK INTRA:                  -0.651
REMARK UNBOUND:                -0.657
REMARK  Name = 
REMARK  6 active torsions:
REMARK  status: ('A' for Active; 'I' for Inactive)
REMARK    1  A    between atoms: N_1  and  C_2
REMARK    2  A    between atoms: C_2  and  C_3
REMARK    3  A    between atoms: C_3  and  N_4
REMARK    4  A    between atoms: C_7  and  C_8
REMARK    5  A    between atoms: C_8  and  N_9
REMARK    6  A    between atoms: C_15  and  C_16
REMARK                            x       y       z     vdW  Elec       q    Type
REMARK                         _______ _______ _______ _____ _____    ______ ____
ROOT
ATOM      1  N   UNL     1      47.888   6.459  13.632  0.00  0.00    +0.000 N 
ATOM      2  C   UNL     1      48.536   7.664  13.591  0.00  0.00    +0.000 A 
ATOM      3  N   UNL     1      49.144   7.930  14.723  0.00  0.00    +0.000 NA
ATOM      4  C   UNL     1      48.846   6.878  15.541  0.00  0.00    +0.000 A 
ATOM      5  N   UNL     1      49.244   6.749  16.825  0.00  0.00    +0.000 NA
ATOM      6  C   UNL     1      48.783   5.631  17.442  0.00  0.00    +0.000 A 
ATOM      7  C   UNL     1      47.971   4.649  16.869  0.00  0.00    +0.000 A 
ATOM      8  C   UNL     1      47.583   4.792  15.535  0.00  0.00    +0.000 A 
ATOM      9  C   UNL     1      48.046   5.942  14.892  0.00  0.00    +0.000 A 
ENDROOT
BRANCH   7  10
ATOM     10  C   UNL     1      47.548   3.511  17.721  0.00  0.00    +0.000 C 
ATOM     11  N   UNL     1      48.315   3.182  18.804  0.00  0.00    +0.000 N 
ATOM     12  O   UNL     1      46.537   2.866  17.467  0.00  0.00    +0.000 OA
ATOM     13  H   UNL     1      49.155   3.649  19.101  0.00  0.00    +0.000 HD
ATOM     14  H   UNL     1      47.999   2.390  19.355  0.00  0.00    +0.000 HD
ENDBRANCH   7  10
BRANCH   1  15
ATOM     15  C   UNL     1      47.102   5.892  12.554  0.00  0.00    +0.000 C 
BRANCH  15  19
ATOM     16  N   UNL     1      44.153   4.125  11.152  0.00  0.00    +0.000 NA
ATOM     17  C   UNL     1      44.656   3.923  12.518  0.00  0.00    +0.000 C 
ATOM     18  C   UNL     1      44.721   5.242  13.283  0.00  0.00    +0.000 C 
ATOM     19  C   UNL     1      45.605   6.271  12.573  0.00  0.00    +0.000 C 
ATOM     20  C   UNL     1      45.071   6.445  11.142  0.00  0.00    +0.000 C 
ATOM     21  C   UNL     1      44.947   5.110  10.399  0.00  0.00    +0.000 C 
BRANCH  16  22
ATOM     22  C   UNL     1      44.079   2.854  10.397  0.00  0.00    +0.000 C 
BRANCH  22  23
ATOM     23  C   UNL     1      45.054   2.772   9.202  0.00  0.00    +0.000 C 
BRANCH  23  24
ATOM     24  N   UNL     1      45.428   1.390   8.894  0.00  0.00    +0.000 NA
ATOM     25  H   UNL     1      44.919   1.094   8.061  0.00  0.00    +0.000 HD
ATOM     26  H   UNL     1      45.113   0.778   9.646  0.00  0.00    +0.000 HD
ENDBRANCH  23  24
ENDBRANCH  22  23
ENDBRANCH  16  22
ENDBRANCH  15  19
ENDBRANCH   1  15
TORSDOF 6
ENDMDL
MODEL 4
REMARK VINA RESULT:    -5.678      1.490      1.585
REMARK INTER + INTRA:          -8.161
REMARK INTER:                  -7.593
REMARK INTRA:                  -0.568
REMARK UNBOUND:                -0.657
REMARK  Name = 
REMARK  6 active torsions:
REMARK  status: ('A' for Active; 'I' for Inactive)
REMARK    1  A    between atoms: N_1  and  C_2
REMARK    2  A    between atoms: C_2  and  C_3
REMARK    3  A    between atoms: C_3  and  N_4
REMARK    4  A    between atoms: C_7  and  C_8
REMARK    5  A    between atoms: C_8  and  N_9
REMARK    6  A    between atoms: C_15  and  C_16
REMARK                            x       y       z     vdW  Elec       q    Type
REMARK                         _______ _______ _______ _____ _____    ______ ____
ROOT
ATOM      1  N   UNL     1      44.632   5.827  11.870  0.00  0.00    +0.000 N 
ATOM      2  C   UNL     1      43.649   5.619  12.800  0.00  0.00    +0.000 A 
ATOM      3  N   UNL     1      43.094   4.438  12.666  0.00  0.00    +0.000 NA
ATOM      4  C   UNL     1      43.710   3.876  11.584  0.00  0.00    +0.000 A 
ATOM      5  N   UNL     1      43.426   2.662  11.066  0.00  0.00    +0.000 NA
ATOM      6  C   UNL     1      44.149   2.344   9.962  0.00  0.00    +0.000 A 
ATOM      7  C   UNL     1      45.124   3.143   9.357  0.00  0.00    +0.000 A 
ATOM      8  C   UNL     1      45.415   4.389   9.917  0.00  0.00    +0.000 A 
ATOM      9  C   UNL     1      44.672   4.729  11.050  0.00  0.00    +0.000 A 
ENDROOT
BRANCH   7  10
ATOM     10  C   UNL     1      45.786   2.627   8.134  0.00  0.00    +0.000 C 
ATOM     11  N   UNL     1      45.844   3.431   7.030  0.00  0.00    +0.000 N 
ATOM     12  O   UNL     1      46.271   1.501   8.099  0.00  0.00    +0.000 OA
ATOM     13  H   UNL     1      45.485   4.368   6.959  0.00  0.00    +0.000 HD
ATOM     14  H   UNL     1      46.294   3.037   6.210  0.00  0.00    +0.000 HD
ENDBRANCH   7  10
BRANCH   1  15
ATOM     15  C   UNL     1      45.414   7.041  11.733  0.00  0.00    +0.000 C 
BRANCH  15  19
ATOM     16  N   UNL     1      48.931   7.995  12.437  0.00  0.00    +0.000 NA
ATOM     17  C   UNL     1      47.902   8.939  11.982  0.00  0.00    +0.000 C 
ATOM     18  C   UNL     1      46.695   8.933  12.917  0.00  0.00    +0.000 C 
ATOM     19  C   UNL     1      46.074   7.538  13.037  0.00  0.00    +0.000 C 
ATOM     20  C   UNL     1      47.178   6.568  13.490  0.00  0.00    +0.000 C 
ATOM     21  C   UNL     1      48.414   6.625  12.585  0.00  0.00    +0.000 C 
BRANCH  16  22
ATOM     22  C   UNL     1      50.112   7.993  11.544  0.00  0.00    +0.000 C 
BRANCH  22  23
ATOM     23  C   UNL     1      51.022   9.232  11.698  0.00  0.00    +0.000 C 
BRANCH  23  24
ATOM     24  N   UNL     1      52.344   9.019  11.106  0.00  0.00    +0.000 NA
ATOM     25  H   UNL     1      52.978   9.735  11.460  0.00  0.00    +0.000 HD
ATOM     26  H   UNL     1      52.292   9.166  10.098  0.00  0.00    +0.000 HD
ENDBRANCH  23  24
ENDBRANCH  22  23
ENDBRANCH  16  22
ENDBRANCH  15  19
ENDBRANCH   1  15
TORSDOF 6
ENDMDL
MODEL 5
REMARK VINA RESULT:    -5.661      4.321      5.963
REMARK INTER + INTRA:          -8.139
REMARK INTER:                  -7.947
REMARK INTRA:                  -0.191
REMARK UNBOUND:                -0.657
REMARK  Name = 
REMARK  6 active torsions:
REMARK  status: ('A' for Active; 'I' for Inactive)
REMARK    1  A    between atoms: N_1  and  C_2
REMARK    2  A    between atoms: C_2  and  C_3
REMARK    3  A    between atoms: C_3  and  N_4
REMARK    4  A    between atoms: C_7  and  C_8
REMARK    5  A    between atoms: C_8  and  N_9
REMARK    6  A    between atoms: C_15  and  C_16
REMARK                            x       y       z     vdW  Elec       q    Type
REMARK                         _______ _______ _______ _____ _____    ______ ____
ROOT
ATOM      1  N   UNL     1      47.312   5.494  14.301  0.00  0.00    +0.000 N 
ATOM      2  C   UNL     1      48.002   6.675  14.360  0.00  0.00    +0.000 A 
ATOM      3  N   UNL     1      47.537   7.555  13.506  0.00  0.00    +0.000 NA
ATOM      4  C   UNL     1      46.536   6.908  12.839  0.00  0.00    +0.000 A 
ATOM      5  N   UNL     1      45.796   7.433  11.839  0.00  0.00    +0.000 NA
ATOM      6  C   UNL     1      44.889   6.574  11.306  0.00  0.00    +0.000 A 
ATOM      7  C   UNL     1      44.672   5.252  11.706  0.00  0.00    +0.000 A 
ATOM      8  C   UNL     1      45.436   4.732  12.753  0.00  0.00    +0.000 A 
ATOM      9  C   UNL     1      46.378   5.605  13.303  0.00  0.00    +0.000 A 
ENDROOT
BRANCH   7  10
ATOM     10  C   UNL     1      43.648   4.465  10.977  0.00  0.00    +0.000 C 
ATOM     11  N   UNL     1      42.968   3.490  11.652  0.00  0.00    +0.000 N 
ATOM     12  O   UNL     1      43.412   4.669   9.791  0.00  0.00    +0.000 OA
ATOM     13  H   UNL     1      43.082   3.249  12.622  0.00  0.00    +0.000 HD
ATOM     14  H   UNL     1      42.285   2.965  11.116  0.00  0.00    +0.000 HD
ENDBRANCH   7  10
BRANCH   1  15
ATOM     15  C   UNL     1      47.598   4.315  15.095  0.00  0.00    +0.000 C 
BRANCH  15  19
ATOM     16  N   UNL     1      49.909   3.486  17.878  0.00  0.00    +0.000 NA
ATOM     17  C   UNL     1      49.890   4.783  17.189  0.00  0.00    +0.000 C 
ATOM     18  C   UNL     1      48.502   5.414  17.239  0.00  0.00    +0.000 C 
ATOM     19  C   UNL     1      47.438   4.503  16.618  0.00  0.00    +0.000 C 
ATOM     20  C   UNL     1      47.496   3.149  17.342  0.00  0.00    +0.000 C 
ATOM     21  C   UNL     1      48.907   2.548  17.345  0.00  0.00    +0.000 C 
BRANCH  16  22
ATOM     22  C   UNL     1      51.251   2.862  17.844  0.00  0.00    +0.000 C 
BRANCH  22  23
ATOM     23  C   UNL     1      51.266   1.428  17.270  0.00  0.00    +0.000 C 
BRANCH  23  24
ATOM     24  N   UNL     1      51.994   0.498  18.135  0.00  0.00    +0.000 NA
ATOM     25  H   UNL     1      51.336  -0.192  18.497  0.00  0.00    +0.000 HD
ATOM     26  H   UNL     1      52.349   0.999  18.949  0.00  0.00    +0.000 HD
ENDBRANCH  23  24
ENDBRANCH  22  23
ENDBRANCH  16  22
ENDBRANCH  15  19
ENDBRANCH   1  15
TORSDOF 6
ENDMDL
MODEL 6
REMARK VINA RESULT:    -5.393      2.559      4.263
REMARK INTER + INTRA:          -7.784
REMARK INTER:                  -7.118
REMARK INTRA:                  -0.666
REMARK UNBOUND:                -0.657
REMARK  Name = 
REMARK  6 active torsions:
REMARK  status: ('A' for Active; 'I' for Inactive)
REMARK    1  A    between atoms: N_1  and  C_2
REMARK    2  A    between atoms: C_2  and  C_3
REMARK    3  A    between atoms: C_3  and  N_4
REMARK    4  A    between atoms: C_7  and  C_8
REMARK    5  A    between atoms: C_8  and  N_9
REMARK    6  A    between atoms: C_15  and  C_16
REMARK                            x       y       z     vdW  Elec       q    Type
REMARK                         _______ _______ _______ _____ _____    ______ ____
ROOT
ATOM      1  N   UNL     1      47.294   6.735  13.590  0.00  0.00    +0.000 N 
ATOM      2  C   UNL     1      48.040   6.171  14.590  0.00  0.00    +0.000 A 
ATOM      3  N   UNL     1      47.860   4.873  14.661  0.00  0.00    +0.000 NA
ATOM      4  C   UNL     1      46.931   4.591  13.699  0.00  0.00    +0.000 A 
ATOM      5  N   UNL     1      46.422   3.368  13.439  0.00  0.00    +0.000 NA
ATOM      6  C   UNL     1      45.481   3.352  12.461  0.00  0.00    +0.000 A 
ATOM      7  C   UNL     1      45.028   4.457  11.736  0.00  0.00    +0.000 A 
ATOM      8  C   UNL     1      45.577   5.712  12.008  0.00  0.00    +0.000 A 
ATOM      9  C   UNL     1      46.543   5.741  13.017  0.00  0.00    +0.000 A 
ENDROOT
BRANCH   7  10
ATOM     10  C   UNL     1      43.967   4.237  10.722  0.00  0.00    +0.000 C 
ATOM     11  N   UNL     1      44.091   4.839   9.501  0.00  0.00    +0.000 N 
ATOM     12  O   UNL     1      42.990   3.537  10.965  0.00  0.00    +0.000 OA
ATOM     13  H   UNL     1      44.853   5.423   9.203  0.00  0.00    +0.000 HD
ATOM     14  H   UNL     1      43.339   4.674   8.840  0.00  0.00    +0.000 HD
ENDBRANCH   7  10
BRANCH   1  15
ATOM     15  C   UNL     1      47.248   8.149  13.273  0.00  0.00    +0.000 C 
BRANCH  15  19
ATOM     16  N   UNL     1      50.394   9.967  12.513  0.00  0.00    +0.000 NA
ATOM     17  C   UNL     1      50.305   8.508  12.653  0.00  0.00    +0.000 C 
ATOM     18  C   UNL     1      49.269   7.923  11.696  0.00  0.00    +0.000 C 
ATOM     19  C   UNL     1      47.881   8.531  11.918  0.00  0.00    +0.000 C 
ATOM     20  C   UNL     1      48.008  10.058  11.790  0.00  0.00    +0.000 C 
ATOM     21  C   UNL     1      49.095  10.632  12.706  0.00  0.00    +0.000 C 
BRANCH  16  22
ATOM     22  C   UNL     1      51.399  10.550  13.431  0.00  0.00    +0.000 C 
BRANCH  22  23
ATOM     23  C   UNL     1      51.792   9.627  14.605  0.00  0.00    +0.000 C 
BRANCH  23  24
ATOM     24  N   UNL     1      51.155  10.033  15.860  0.00  0.00    +0.000 NA
ATOM     25  H   UNL     1      51.727  10.758  16.293  0.00  0.00    +0.000 HD
ATOM     26  H   UNL     1      51.158   9.249  16.511  0.00  0.00    +0.000 HD
ENDBRANCH  23  24
ENDBRANCH  22  23
ENDBRANCH  16  22
ENDBRANCH  15  19
ENDBRANCH   1  15
TORSDOF 6
ENDMDL
MODEL 7
REMARK VINA RESULT:    -5.324      3.518      5.407
REMARK INTER + INTRA:          -7.693
REMARK INTER:                  -6.855
REMARK INTRA:                  -0.838
REMARK UNBOUND:                -0.657
REMARK  Name = 
REMARK  6 active torsions:
REMARK  status: ('A' for Active; 'I' for Inactive)
REMARK    1  A    between atoms: N_1  and  C_2
REMARK    2  A    between atoms: C_2  and  C_3
REMARK    3  A    between atoms: C_3  and  N_4
REMARK    4  A    between atoms: C_7  and  C_8
REMARK    5  A    between atoms: C_8  and  N_9
REMARK    6  A    between atoms: C_15  and  C_16
REMARK                            x       y       z     vdW  Elec       q    Type
REMARK                         _______ _______ _______ _____ _____    ______ ____
ROOT
ATOM      1  N   UNL     1      47.563   8.512  12.846  0.00  0.00    +0.000 N 
ATOM      2  C   UNL     1      46.672   9.480  12.466  0.00  0.00    +0.000 A 
ATOM      3  N   UNL     1      45.456   9.002  12.342  0.00  0.00    +0.000 NA
ATOM      4  C   UNL     1      45.570   7.668  12.611  0.00  0.00    +0.000 A 
ATOM      5  N   UNL     1      44.560   6.773  12.570  0.00  0.00    +0.000 NA
ATOM      6  C   UNL     1      44.935   5.496  12.837  0.00  0.00    +0.000 A 
ATOM      7  C   UNL     1      46.229   5.064  13.143  0.00  0.00    +0.000 A 
ATOM      8  C   UNL     1      47.258   6.007  13.197  0.00  0.00    +0.000 A 
ATOM      9  C   UNL     1      46.884   7.323  12.917  0.00  0.00    +0.000 A 
ENDROOT
BRANCH   7  10
ATOM     10  C   UNL     1      46.442   3.615  13.377  0.00  0.00    +0.000 C 
ATOM     11  N   UNL     1      45.651   2.720  12.713  0.00  0.00    +0.000 N 
ATOM     12  O   UNL     1      47.302   3.214  14.154  0.00  0.00    +0.000 OA
ATOM     13  H   UNL     1      44.925   2.944  12.053  0.00  0.00    +0.000 HD
ATOM     14  H   UNL     1      45.819   1.738  12.909  0.00  0.00    +0.000 HD
ENDBRANCH   7  10
BRANCH   1  15
ATOM     15  C   UNL     1      48.986   8.712  13.040  0.00  0.00    +0.000 C 
BRANCH  15  19
ATOM     16  N   UNL     1      50.361   7.563  16.291  0.00  0.00    +0.000 NA
ATOM     17  C   UNL     1      51.190   7.973  15.150  0.00  0.00    +0.000 C 
ATOM     18  C   UNL     1      50.840   9.387  14.692  0.00  0.00    +0.000 C 
ATOM     19  C   UNL     1      49.363   9.511  14.306  0.00  0.00    +0.000 C 
ATOM     20  C   UNL     1      48.520   9.054  15.507  0.00  0.00    +0.000 C 
ATOM     21  C   UNL     1      48.920   7.660  16.004  0.00  0.00    +0.000 C 
BRANCH  16  22
ATOM     22  C   UNL     1      50.692   6.196  16.751  0.00  0.00    +0.000 C 
BRANCH  22  23
ATOM     23  C   UNL     1      49.500   5.432  17.369  0.00  0.00    +0.000 C 
BRANCH  23  24
ATOM     24  N   UNL     1      49.107   4.279  16.556  0.00  0.00    +0.000 NA
ATOM     25  H   UNL     1      49.878   4.045  15.930  0.00  0.00    +0.000 HD
ATOM     26  H   UNL     1      48.328   4.539  15.953  0.00  0.00    +0.000 HD
ENDBRANCH  23  24
ENDBRANCH  22  23
ENDBRANCH  16  22
ENDBRANCH  15  19
ENDBRANCH   1  15
TORSDOF 6
ENDMDL
MODEL 8
REMARK VINA RESULT:    -5.251      4.093      5.819
REMARK INTER + INTRA:          -7.597
REMARK INTER:                  -7.142
REMARK INTRA:                  -0.455
REMARK UNBOUND:                -0.657
REMARK  Name = 
REMARK  6 active torsions:
REMARK  status: ('A' for Active; 'I' for Inactive)
REMARK    1  A    between atoms: N_1  and  C_2
REMARK    2  A    between atoms: C_2  and  C_3
REMARK    3  A    between atoms: C_3  and  N_4
REMARK    4  A    between atoms: C_7  and  C_8
REMARK    5  A    between atoms: C_8  and  N_9
REMARK    6  A    between atoms: C_15  and  C_16
REMARK                            x       y       z     vdW  Elec       q    Type
REMARK                         _______ _______ _______ _____ _____    ______ ____
ROOT
ATOM      1  N   UNL     1      47.552   7.026  13.858  0.00  0.00    +0.000 N 
ATOM      2  C   UNL     1      47.604   8.311  13.389  0.00  0.00    +0.000 A 
ATOM      3  N   UNL     1      46.709   8.524  12.453  0.00  0.00    +0.000 NA
ATOM      4  C   UNL     1      46.082   7.322  12.280  0.00  0.00    +0.000 A 
ATOM      5  N   UNL     1      45.103   7.072  11.385  0.00  0.00    +0.000 NA
ATOM      6  C   UNL     1      44.670   5.786  11.377  0.00  0.00    +0.000 A 
ATOM      7  C   UNL     1      45.138   4.754  12.194  0.00  0.00    +0.000 A 
ATOM      8  C   UNL     1      46.140   5.035  13.125  0.00  0.00    +0.000 A 
ATOM      9  C   UNL     1      46.598   6.355  13.138  0.00  0.00    +0.000 A 
ENDROOT
BRANCH   7  10
ATOM     10  C   UNL     1      44.553   3.403  12.013  0.00  0.00    +0.000 C 
ATOM     11  N   UNL     1      44.892   2.685  10.901  0.00  0.00    +0.000 N 
ATOM     12  O   UNL     1      43.774   2.930  12.835  0.00  0.00    +0.000 OA
ATOM     13  H   UNL     1      45.523   2.978  10.175  0.00  0.00    +0.000 HD
ATOM     14  H   UNL     1      44.461   1.770  10.807  0.00  0.00    +0.000 HD
ENDBRANCH   7  10
BRANCH   1  15
ATOM     15  C   UNL     1      48.426   6.468  14.873  0.00  0.00    +0.000 C 
BRANCH  15  19
ATOM     16  N   UNL     1      50.057   6.354  18.205  0.00  0.00    +0.000 NA
ATOM     17  C   UNL     1      50.679   5.855  16.972  0.00  0.00    +0.000 C 
ATOM     18  C   UNL     1      50.736   6.943  15.902  0.00  0.00    +0.000 C 
ATOM     19  C   UNL     1      49.345   7.492  15.573  0.00  0.00    +0.000 C 
ATOM     20  C   UNL     1      48.710   7.985  16.883  0.00  0.00    +0.000 C 
ATOM     21  C   UNL     1      48.713   6.909  17.975  0.00  0.00    +0.000 C 
BRANCH  16  22
ATOM     22  C   UNL     1      49.999   5.313  19.255  0.00  0.00    +0.000 C 
BRANCH  22  23
ATOM     23  C   UNL     1      48.566   4.901  19.657  0.00  0.00    +0.000 C 
BRANCH  23  24
ATOM     24  N   UNL     1      48.506   3.518  20.136  0.00  0.00    +0.000 NA
ATOM     25  H   UNL     1      47.592   3.132  19.900  0.00  0.00    +0.000 HD
ATOM     26  H   UNL     1      48.559   3.509  21.154  0.00  0.00    +0.000 HD
ENDBRANCH  23  24
ENDBRANCH  22  23
ENDBRANCH  16  22
ENDBRANCH  15  19
ENDBRANCH   1  15
TORSDOF 6
ENDMDL
MODEL 9
REMARK VINA RESULT:    -5.154      4.295      5.947
REMARK INTER + INTRA:          -7.468
REMARK INTER:                  -6.964
REMARK INTRA:                  -0.504
REMARK UNBOUND:                -0.657
REMARK  Name = 
REMARK  6 active torsions:
REMARK  status: ('A' for Active; 'I' for Inactive)
REMARK    1  A    between atoms: N_1  and  C_2
REMARK    2  A    between atoms: C_2  and  C_3
REMARK    3  A    between atoms: C_3  and  N_4
REMARK    4  A    between atoms: C_7  and  C_8
REMARK    5  A    between atoms: C_8  and  N_9
REMARK    6  A    between atoms: C_15  and  C_16
REMARK                            x       y       z     vdW  Elec       q    Type
REMARK                         _______ _______ _______ _____ _____    ______ ____
ROOT
ATOM      1  N   UNL     1      46.830   4.727  14.026  0.00  0.00    +0.000 N 
ATOM      2  C   UNL     1      46.336   3.551  13.529  0.00  0.00    +0.000 A 
ATOM      3  N   UNL     1      45.584   3.747  12.471  0.00  0.00    +0.000 NA
ATOM      4  C   UNL     1      45.557   5.102  12.301  0.00  0.00    +0.000 A 
ATOM      5  N   UNL     1      44.870   5.756  11.340  0.00  0.00    +0.000 NA
ATOM      6  C   UNL     1      44.968   7.108  11.406  0.00  0.00    +0.000 A 
ATOM      7  C   UNL     1      45.699   7.836  12.349  0.00  0.00    +0.000 A 
ATOM      8  C   UNL     1      46.417   7.142  13.325  0.00  0.00    +0.000 A 
ATOM      9  C   UNL     1      46.317   5.750  13.271  0.00  0.00    +0.000 A 
ENDROOT
BRANCH   7  10
ATOM     10  C   UNL     1      45.658   9.316  12.269  0.00  0.00    +0.000 C 
ATOM     11  N   UNL     1      44.482   9.956  12.543  0.00  0.00    +0.000 N 
ATOM     12  O   UNL     1      46.651   9.966  11.959  0.00  0.00    +0.000 OA
ATOM     13  H   UNL     1      43.617   9.518  12.812  0.00  0.00    +0.000 HD
ATOM     14  H   UNL     1      44.491  10.968  12.466  0.00  0.00    +0.000 HD
ENDBRANCH   7  10
BRANCH   1  15
ATOM     15  C   UNL     1      47.669   4.853  15.203  0.00  0.00    +0.000 C 
BRANCH  15  19
ATOM     16  N   UNL     1      49.426   4.045  18.371  0.00  0.00    +0.000 NA
ATOM     17  C   UNL     1      48.574   5.227  18.186  0.00  0.00    +0.000 C 
ATOM     18  C   UNL     1      47.173   4.832  17.728  0.00  0.00    +0.000 C 
ATOM     19  C   UNL     1      47.204   4.030  16.423  0.00  0.00    +0.000 C 
ATOM     20  C   UNL     1      48.120   2.814  16.638  0.00  0.00    +0.000 C 
ATOM     21  C   UNL     1      49.506   3.212  17.160  0.00  0.00    +0.000 C 
BRANCH  16  22
ATOM     22  C   UNL     1      50.788   4.411  18.821  0.00  0.00    +0.000 C 
BRANCH  22  23
ATOM     23  C   UNL     1      51.871   4.275  17.729  0.00  0.00    +0.000 C 
BRANCH  23  24
ATOM     24  N   UNL     1      52.247   5.573  17.164  0.00  0.00    +0.000 NA
ATOM     25  H   UNL     1      52.986   5.425  16.476  0.00  0.00    +0.000 HD
ATOM     26  H   UNL     1      52.657   6.154  17.894  0.00  0.00    +0.000 HD
ENDBRANCH  23  24
ENDBRANCH  22  23
ENDBRANCH  16  22
ENDBRANCH  15  19
ENDBRANCH   1  15
TORSDOF 6
ENDMDL
