MODEL 1
REMARK VINA RESULT:    -7.917      0.000      0.000
REMARK INTER + INTRA:         -10.055
REMARK INTER:                  -9.537
REMARK INTRA:                  -0.518
REMARK UNBOUND:                -0.518
REMARK  Name = 
REMARK  4 active torsions:
REMARK  status: ('A' for Active; 'I' for Inactive)
REMARK    1  A    between atoms: N_1  and  S_2
REMARK    2  A    between atoms: S_2  and  C_5
REMARK    3  A    between atoms: N_9  and  C_10
REMARK    4  A    between atoms: C_10  and  C_11
REMARK                            x       y       z     vdW  Elec       q    Type
REMARK                         _______ _______ _______ _____ _____    ______ ____
ROOT
ATOM      1  C   UNL     1      46.299   2.720   7.566  0.00  0.00    +0.000 A 
ATOM      2  C   UNL     1      46.237   4.080   7.851  0.00  0.00    +0.000 A 
ATOM      3  C   UNL     1      45.516   4.499   8.975  0.00  0.00    +0.000 A 
ATOM      4  C   UNL     1      44.868   3.554   9.760  0.00  0.00    +0.000 A 
ATOM      5  N   UNL     1      44.001   3.855  10.799  0.00  0.00    +0.000 N 
ATOM      6  N   UNL     1      44.957   2.230   9.493  0.00  0.00    +0.000 NA
ATOM      7  C   UNL     1      45.666   1.835   8.412  0.00  0.00    +0.000 A 
ATOM      8  H   UNL     1      43.694   2.975  11.209  0.00  0.00    +0.000 HD
ENDROOT
BRANCH   1   9
ATOM      9  S   UNL     1      47.157   2.096   6.181  0.00  0.00    +0.000 S 
ATOM     10  O   UNL     1      46.717   2.822   4.997  0.00  0.00    +0.000 OA
ATOM     11  O   UNL     1      47.184   0.654   6.234  0.00  0.00    +0.000 OA
BRANCH   9  12
ATOM     12  N   UNL     1      48.733   2.581   6.474  0.00  0.00    +0.000 NA
ATOM     13  H   UNL     1      48.966   2.412   7.453  0.00  0.00    +0.000 HD
ATOM     14  H   UNL     1      48.858   3.561   6.196  0.00  0.00    +0.000 HD
ENDBRANCH   9  12
ENDBRANCH   1   9
BRANCH   5  15
ATOM     15  C   UNL     1      44.013   5.013  11.695  0.00  0.00    +0.000 C 
ATOM     16  C   UNL     1      42.667   5.189  12.421  0.00  0.00    +0.000 C 
ATOM     17  C   UNL     1      43.184   6.286  11.569  0.00  0.00    +0.000 C 
BRANCH  15  18
ATOM     18  C   UNL     1      45.325   5.228  12.463  0.00  0.00    +0.000 A 
ATOM     19  C   UNL     1      46.118   6.332  12.158  0.00  0.00    +0.000 A 
ATOM     20  C   UNL     1      47.146   6.684  13.021  0.00  0.00    +0.000 A 
ATOM     21 CL   UNL     1      48.041   8.125  12.735  0.00  0.00    +0.000 Cl
ATOM     22  C   UNL     1      47.414   5.914  14.140  0.00  0.00    +0.000 A 
ATOM     23  C   UNL     1      46.642   4.787  14.332  0.00  0.00    +0.000 A 
ATOM     24  N   UNL     1      45.615   4.433  13.528  0.00  0.00    +0.000 NA
ENDBRANCH  15  18
ENDBRANCH   5  15
TORSDOF 4
ENDMDL
MODEL 2
REMARK VINA RESULT:    -6.613      4.875      6.600
REMARK INTER + INTRA:          -8.485
REMARK INTER:                  -8.039
REMARK INTRA:                  -0.446
REMARK UNBOUND:                -0.518
REMARK  Name = 
REMARK  4 active torsions:
REMARK  status: ('A' for Active; 'I' for Inactive)
REMARK    1  A    between atoms: N_1  and  S_2
REMARK    2  A    between atoms: S_2  and  C_5
REMARK    3  A    between atoms: N_9  and  C_10
REMARK    4  A    between atoms: C_10  and  C_11
REMARK                            x       y       z     vdW  Elec       q    Type
REMARK                         _______ _______ _______ _____ _____    ______ ____
ROOT
ATOM      1  C   UNL     1      48.351   7.122  13.474  0.00  0.00    +0.000 A 
ATOM      2  C   UNL     1      47.429   6.228  14.010  0.00  0.00    +0.000 A 
ATOM      3  C   UNL     1      46.312   5.877  13.244  0.00  0.00    +0.000 A 
ATOM      4  C   UNL     1      46.142   6.439  11.986  0.00  0.00    +0.000 A 
ATOM      5  N   UNL     1      45.007   6.292  11.204  0.00  0.00    +0.000 N 
ATOM      6  N   UNL     1      47.058   7.285  11.460  0.00  0.00    +0.000 NA
ATOM      7  C   UNL     1      48.141   7.609  12.202  0.00  0.00    +0.000 A 
ATOM      8  H   UNL     1      45.169   6.790  10.331  0.00  0.00    +0.000 HD
ENDROOT
BRANCH   1   9
ATOM      9  S   UNL     1      49.767   7.638  14.351  0.00  0.00    +0.000 S 
ATOM     10  O   UNL     1      50.164   6.571  15.262  0.00  0.00    +0.000 OA
ATOM     11  O   UNL     1      49.597   9.002  14.791  0.00  0.00    +0.000 OA
BRANCH   9  12
ATOM     12  N   UNL     1      50.940   7.698  13.157  0.00  0.00    +0.000 NA
ATOM     13  H   UNL     1      50.585   7.257  12.307  0.00  0.00    +0.000 HD
ATOM     14  H   UNL     1      51.811   7.273  13.495  0.00  0.00    +0.000 HD
ENDBRANCH   9  12
ENDBRANCH   1   9
BRANCH   5  15
ATOM     15  C   UNL     1      44.082   5.159  11.138  0.00  0.00    +0.000 C 
ATOM     16  C   UNL     1      42.626   5.594  11.387  0.00  0.00    +0.000 C 
ATOM     17  C   UNL     1      43.247   4.582  12.276  0.00  0.00    +0.000 C 
BRANCH  15  18
ATOM     18  C   UNL     1      44.391   4.129  10.043  0.00  0.00    +0.000 A 
ATOM     19  C   UNL     1      45.207   4.496   8.974  0.00  0.00    +0.000 A 
ATOM     20  C   UNL     1      45.711   3.509   8.140  0.00  0.00    +0.000 A 
ATOM     21 CL   UNL     1      46.834   3.931   6.906  0.00  0.00    +0.000 Cl
ATOM     22  C   UNL     1      45.363   2.183   8.334  0.00  0.00    +0.000 A 
ATOM     23  C   UNL     1      44.483   1.905   9.359  0.00  0.00    +0.000 A 
ATOM     24  N   UNL     1      43.996   2.837  10.208  0.00  0.00    +0.000 NA
ENDBRANCH  15  18
ENDBRANCH   5  15
TORSDOF 4
ENDMDL
MODEL 3
REMARK VINA RESULT:    -6.553      5.123      7.092
REMARK INTER + INTRA:          -8.411
REMARK INTER:                  -7.999
REMARK INTRA:                  -0.412
REMARK UNBOUND:                -0.518
REMARK  Name = 
REMARK  4 active torsions:
REMARK  status: ('A' for Active; 'I' for Inactive)
REMARK    1  A    between atoms: N_1  and  S_2
REMARK    2  A    between atoms: S_2  and  C_5
REMARK    3  A    between atoms: N_9  and  C_10
REMARK    4  A    between atoms: C_10  and  C_11
REMARK                            x       y       z     vdW  Elec       q    Type
REMARK                         _______ _______ _______ _____ _____    ______ ____
ROOT
ATOM      1  C   UNL     1      47.960   6.418  14.022  0.00  0.00    +0.000 A 
ATOM      2  C   UNL     1      47.237   5.230  14.084  0.00  0.00    +0.000 A 
ATOM      3  C   UNL     1      46.406   4.893  13.010  0.00  0.00    +0.000 A 
ATOM      4  C   UNL     1      46.310   5.755  11.925  0.00  0.00    +0.000 A 
ATOM      5  N   UNL     1      45.409   5.609  10.881  0.00  0.00    +0.000 N 
ATOM      6  N   UNL     1      47.037   6.894  11.859  0.00  0.00    +0.000 NA
ATOM      7  C   UNL     1      47.847   7.206  12.896  0.00  0.00    +0.000 A 
ATOM      8  H   UNL     1      45.577   6.367  10.222  0.00  0.00    +0.000 HD
ENDROOT
BRANCH   1   9
ATOM      9  S   UNL     1      49.009   6.939  15.314  0.00  0.00    +0.000 S 
ATOM     10  O   UNL     1      49.239   5.812  16.209  0.00  0.00    +0.000 OA
ATOM     11  O   UNL     1      48.584   8.231  15.796  0.00  0.00    +0.000 OA
BRANCH   9  12
ATOM     12  N   UNL     1      50.460   7.214  14.522  0.00  0.00    +0.000 NA
ATOM     13  H   UNL     1      50.383   6.905  13.552  0.00  0.00    +0.000 HD
ATOM     14  H   UNL     1      51.230   6.762  15.028  0.00  0.00    +0.000 HD
ENDBRANCH   9  12
ENDBRANCH   1   9
BRANCH   5  15
ATOM     15  C   UNL     1      44.853   4.377  10.319  0.00  0.00    +0.000 C 
ATOM     16  C   UNL     1      43.315   4.422  10.252  0.00  0.00    +0.000 C 
ATOM     17  C   UNL     1      43.979   3.350  11.031  0.00  0.00    +0.000 C 
BRANCH  15  18
ATOM     18  C   UNL     1      45.647   3.778   9.150  0.00  0.00    +0.000 A 
ATOM     19  C   UNL     1      45.861   2.401   9.108  0.00  0.00    +0.000 A 
ATOM     20  C   UNL     1      46.328   1.827   7.935  0.00  0.00    +0.000 A 
ATOM     21 CL   UNL     1      46.461   0.116   7.820  0.00  0.00    +0.000 Cl
ATOM     22  C   UNL     1      46.629   2.619   6.839  0.00  0.00    +0.000 A 
ATOM     23  C   UNL     1      46.473   3.982   6.982  0.00  0.00    +0.000 A 
ATOM     24  N   UNL     1      45.993   4.571   8.100  0.00  0.00    +0.000 NA
ENDBRANCH  15  18
ENDBRANCH   5  15
TORSDOF 4
ENDMDL
MODEL 4
REMARK VINA RESULT:    -5.964      3.753      5.458
REMARK INTER + INTRA:          -7.702
REMARK INTER:                  -7.658
REMARK INTRA:                  -0.044
REMARK UNBOUND:                -0.518
REMARK  Name = 
REMARK  4 active torsions:
REMARK  status: ('A' for Active; 'I' for Inactive)
REMARK    1  A    between atoms: N_1  and  S_2
REMARK    2  A    between atoms: S_2  and  C_5
REMARK    3  A    between atoms: N_9  and  C_10
REMARK    4  A    between atoms: C_10  and  C_11
REMARK                            x       y       z     vdW  Elec       q    Type
REMARK                         _______ _______ _______ _____ _____    ______ ____
ROOT
ATOM      1  C   UNL     1      45.199   4.337  11.497  0.00  0.00    +0.000 A 
ATOM      2  C   UNL     1      45.798   5.539  11.130  0.00  0.00    +0.000 A 
ATOM      3  C   UNL     1      46.551   6.232  12.084  0.00  0.00    +0.000 A 
ATOM      4  C   UNL     1      46.666   5.717  13.368  0.00  0.00    +0.000 A 
ATOM      5  N   UNL     1      47.250   6.384  14.435  0.00  0.00    +0.000 N 
ATOM      6  N   UNL     1      46.106   4.533  13.709  0.00  0.00    +0.000 NA
ATOM      7  C   UNL     1      45.390   3.865  12.778  0.00  0.00    +0.000 A 
ATOM      8  H   UNL     1      47.215   5.764  15.241  0.00  0.00    +0.000 HD
ENDROOT
BRANCH   1   9
ATOM      9  S   UNL     1      44.226   3.404  10.390  0.00  0.00    +0.000 S 
ATOM     10  O   UNL     1      43.031   2.952  11.091  0.00  0.00    +0.000 OA
ATOM     11  O   UNL     1      45.068   2.502   9.643  0.00  0.00    +0.000 OA
BRANCH   9  12
ATOM     12  N   UNL     1      43.717   4.557   9.286  0.00  0.00    +0.000 NA
ATOM     13  H   UNL     1      44.319   4.529   8.463  0.00  0.00    +0.000 HD
ATOM     14  H   UNL     1      43.686   5.482   9.730  0.00  0.00    +0.000 HD
ENDBRANCH   9  12
ENDBRANCH   1   9
BRANCH   5  15
ATOM     15  C   UNL     1      48.344   7.357  14.417  0.00  0.00    +0.000 C 
ATOM     16  C   UNL     1      47.824   8.799  14.275  0.00  0.00    +0.000 C 
ATOM     17  C   UNL     1      48.758   8.258  13.259  0.00  0.00    +0.000 C 
BRANCH  15  18
ATOM     18  C   UNL     1      49.499   7.057  15.382  0.00  0.00    +0.000 A 
ATOM     19  C   UNL     1      49.293   6.162  16.431  0.00  0.00    +0.000 A 
ATOM     20  C   UNL     1      50.389   5.678  17.130  0.00  0.00    +0.000 A 
ATOM     21 CL   UNL     1      50.165   4.466  18.330  0.00  0.00    +0.000 Cl
ATOM     22  C   UNL     1      51.665   6.122  16.825  0.00  0.00    +0.000 A 
ATOM     23  C   UNL     1      51.783   7.072  15.833  0.00  0.00    +0.000 A 
ATOM     24  N   UNL     1      50.741   7.543  15.113  0.00  0.00    +0.000 NA
ENDBRANCH  15  18
ENDBRANCH   5  15
TORSDOF 4
ENDMDL
MODEL 5
REMARK VINA RESULT:    -5.817      4.877      6.875
REMARK INTER + INTRA:          -7.525
REMARK INTER:                  -7.123
REMARK INTRA:                  -0.402
REMARK UNBOUND:                -0.518
REMARK  Name = 
REMARK  4 active torsions:
REMARK  status: ('A' for Active; 'I' for Inactive)
REMARK    1  A    between atoms: N_1  and  S_2
REMARK    2  A    between atoms: S_2  and  C_5
REMARK    3  A    between atoms: N_9  and  C_10
REMARK    4  A    between atoms: C_10  and  C_11
REMARK                            x       y       z     vdW  Elec       q    Type
REMARK                         _______ _______ _______ _____ _____    ______ ____
ROOT
ATOM      1  C   UNL     1      47.691   5.223  15.076  0.00  0.00    +0.000 A 
ATOM      2  C   UNL     1      46.427   4.641  15.109  0.00  0.00    +0.000 A 
ATOM      3  C   UNL     1      45.624   4.716  13.966  0.00  0.00    +0.000 A 
ATOM      4  C   UNL     1      46.097   5.380  12.842  0.00  0.00    +0.000 A 
ATOM      5  N   UNL     1      45.341   5.655  11.713  0.00  0.00    +0.000 N 
ATOM      6  N   UNL     1      47.338   5.918  12.807  0.00  0.00    +0.000 NA
ATOM      7  C   UNL     1      48.112   5.831  13.912  0.00  0.00    +0.000 A 
ATOM      8  H   UNL     1      45.946   6.127  11.044  0.00  0.00    +0.000 HD
ENDROOT
BRANCH   1   9
ATOM      9  S   UNL     1      48.763   5.202  16.451  0.00  0.00    +0.000 S 
ATOM     10  O   UNL     1      47.993   5.526  17.646  0.00  0.00    +0.000 OA
ATOM     11  O   UNL     1      49.993   5.880  16.121  0.00  0.00    +0.000 OA
BRANCH   9  12
ATOM     12  N   UNL     1      49.168   3.581  16.577  0.00  0.00    +0.000 NA
ATOM     13  H   UNL     1      48.405   3.009  16.216  0.00  0.00    +0.000 HD
ATOM     14  H   UNL     1      49.416   3.353  17.547  0.00  0.00    +0.000 HD
ENDBRANCH   9  12
ENDBRANCH   1   9
BRANCH   5  15
ATOM     15  C   UNL     1      44.231   4.884  11.145  0.00  0.00    +0.000 C 
ATOM     16  C   UNL     1      42.940   5.718  11.062  0.00  0.00    +0.000 C 
ATOM     17  C   UNL     1      42.947   4.462  11.849  0.00  0.00    +0.000 C 
BRANCH  15  18
ATOM     18  C   UNL     1      44.611   3.953   9.985  0.00  0.00    +0.000 A 
ATOM     19  C   UNL     1      45.402   4.446   8.948  0.00  0.00    +0.000 A 
ATOM     20  C   UNL     1      45.973   3.554   8.053  0.00  0.00    +0.000 A 
ATOM     21 CL   UNL     1      47.065   4.132   6.857  0.00  0.00    +0.000 Cl
ATOM     22  C   UNL     1      45.716   2.197   8.157  0.00  0.00    +0.000 A 
ATOM     23  C   UNL     1      44.856   1.791   9.156  0.00  0.00    +0.000 A 
ATOM     24  N   UNL     1      44.306   2.630  10.062  0.00  0.00    +0.000 NA
ENDBRANCH  15  18
ENDBRANCH   5  15
TORSDOF 4
ENDMDL
MODEL 6
REMARK VINA RESULT:    -5.683      5.045      7.043
REMARK INTER + INTRA:          -7.363
REMARK INTER:                  -7.487
REMARK INTRA:                   0.123
REMARK UNBOUND:                -0.518
REMARK  Name = 
REMARK  4 active torsions:
REMARK  status: ('A' for Active; 'I' for Inactive)
REMARK    1  A    between atoms: N_1  and  S_2
REMARK    2  A    between atoms: S_2  and  C_5
REMARK    3  A    between atoms: N_9  and  C_10
REMARK    4  A    between atoms: C_10  and  C_11
REMARK                            x       y       z     vdW  Elec       q    Type
REMARK                         _______ _______ _______ _____ _____    ______ ____
ROOT
ATOM      1  C   UNL     1      47.941   5.978  14.804  0.00  0.00    +0.000 A 
ATOM      2  C   UNL     1      47.567   6.285  13.499  0.00  0.00    +0.000 A 
ATOM      3  C   UNL     1      46.718   5.405  12.819  0.00  0.00    +0.000 A 
ATOM      4  C   UNL     1      46.290   4.245  13.452  0.00  0.00    +0.000 A 
ATOM      5  N   UNL     1      45.582   3.226  12.834  0.00  0.00    +0.000 N 
ATOM      6  N   UNL     1      46.636   3.967  14.731  0.00  0.00    +0.000 NA
ATOM      7  C   UNL     1      47.445   4.830  15.384  0.00  0.00    +0.000 A 
ATOM      8  H   UNL     1      45.385   2.517  13.537  0.00  0.00    +0.000 HD
ENDROOT
BRANCH   1   9
ATOM      9  S   UNL     1      49.007   7.000  15.732  0.00  0.00    +0.000 S 
ATOM     10  O   UNL     1      48.560   8.380  15.599  0.00  0.00    +0.000 OA
ATOM     11  O   UNL     1      50.377   6.609  15.504  0.00  0.00    +0.000 OA
BRANCH   9  12
ATOM     12  N   UNL     1      48.672   6.545  17.309  0.00  0.00    +0.000 NA
ATOM     13  H   UNL     1      48.777   5.535  17.403  0.00  0.00    +0.000 HD
ATOM     14  H   UNL     1      47.740   6.879  17.583  0.00  0.00    +0.000 HD
ENDBRANCH   9  12
ENDBRANCH   1   9
BRANCH   5  15
ATOM     15  C   UNL     1      44.629   3.316  11.725  0.00  0.00    +0.000 C 
ATOM     16  C   UNL     1      43.410   4.184  12.088  0.00  0.00    +0.000 C 
ATOM     17  C   UNL     1      43.206   2.771  11.686  0.00  0.00    +0.000 C 
BRANCH  15  18
ATOM     18  C   UNL     1      45.261   3.438  10.331  0.00  0.00    +0.000 A 
ATOM     19  C   UNL     1      45.722   2.289   9.691  0.00  0.00    +0.000 A 
ATOM     20  C   UNL     1      46.034   2.349   8.341  0.00  0.00    +0.000 A 
ATOM     21 CL   UNL     1      46.466   0.910   7.503  0.00  0.00    +0.000 Cl
ATOM     22  C   UNL     1      45.940   3.548   7.653  0.00  0.00    +0.000 A 
ATOM     23  C   UNL     1      45.559   4.661   8.372  0.00  0.00    +0.000 A 
ATOM     24  N   UNL     1      45.220   4.632   9.680  0.00  0.00    +0.000 NA
ENDBRANCH  15  18
ENDBRANCH   5  15
TORSDOF 4
ENDMDL
MODEL 7
REMARK VINA RESULT:    -5.673      3.490      5.298
REMARK INTER + INTRA:          -7.352
REMARK INTER:                  -7.327
REMARK INTRA:                  -0.025
REMARK UNBOUND:                -0.518
REMARK  Name = 
REMARK  4 active torsions:
REMARK  status: ('A' for Active; 'I' for Inactive)
REMARK    1  A    between atoms: N_1  and  S_2
REMARK    2  A    between atoms: S_2  and  C_5
REMARK    3  A    between atoms: N_9  and  C_10
REMARK    4  A    between atoms: C_10  and  C_11
REMARK                            x       y       z     vdW  Elec       q    Type
REMARK                         _______ _______ _______ _____ _____    ______ ____
ROOT
ATOM      1  C   UNL     1      45.023   4.114  12.054  0.00  0.00    +0.000 A 
ATOM      2  C   UNL     1      45.194   5.491  12.167  0.00  0.00    +0.000 A 
ATOM      3  C   UNL     1      46.127   5.978  13.089  0.00  0.00    +0.000 A 
ATOM      4  C   UNL     1      46.840   5.084  13.876  0.00  0.00    +0.000 A 
ATOM      5  N   UNL     1      47.670   5.446  14.925  0.00  0.00    +0.000 N 
ATOM      6  N   UNL     1      46.689   3.746  13.741  0.00  0.00    +0.000 NA
ATOM      7  C   UNL     1      45.794   3.284  12.839  0.00  0.00    +0.000 A 
ATOM      8  H   UNL     1      48.075   4.594  15.306  0.00  0.00    +0.000 HD
ENDROOT
BRANCH   1   9
ATOM      9  S   UNL     1      43.875   3.404  10.950  0.00  0.00    +0.000 S 
ATOM     10  O   UNL     1      43.377   4.448  10.064  0.00  0.00    +0.000 OA
ATOM     11  O   UNL     1      42.992   2.518  11.668  0.00  0.00    +0.000 OA
BRANCH   9  12
ATOM     12  N   UNL     1      44.838   2.408  10.008  0.00  0.00    +0.000 NA
ATOM     13  H   UNL     1      45.541   2.968   9.527  0.00  0.00    +0.000 HD
ATOM     14  H   UNL     1      44.255   1.857   9.367  0.00  0.00    +0.000 HD
ENDBRANCH   9  12
ENDBRANCH   1   9
BRANCH   5  15
ATOM     15  C   UNL     1      48.468   6.665  15.082  0.00  0.00    +0.000 C 
ATOM     16  C   UNL     1      49.600   6.479  16.109  0.00  0.00    +0.000 C 
ATOM     17  C   UNL     1      48.584   7.537  16.327  0.00  0.00    +0.000 C 
BRANCH  15  18
ATOM     18  C   UNL     1      48.738   7.437  13.783  0.00  0.00    +0.000 A 
ATOM     19  C   UNL     1      48.314   8.761  13.678  0.00  0.00    +0.000 A 
ATOM     20  C   UNL     1      48.791   9.541  12.636  0.00  0.00    +0.000 A 
ATOM     21 CL   UNL     1      48.391  11.213  12.573  0.00  0.00    +0.000 Cl
ATOM     22  C   UNL     1      49.633   8.996  11.682  0.00  0.00    +0.000 A 
ATOM     23  C   UNL     1      49.942   7.657  11.802  0.00  0.00    +0.000 A 
ATOM     24  N   UNL     1      49.519   6.876  12.821  0.00  0.00    +0.000 NA
ENDBRANCH  15  18
ENDBRANCH   5  15
TORSDOF 4
ENDMDL
MODEL 8
REMARK VINA RESULT:    -5.582      6.360      8.475
REMARK INTER + INTRA:          -7.242
REMARK INTER:                  -7.598
REMARK INTRA:                   0.357
REMARK UNBOUND:                -0.518
REMARK  Name = 
REMARK  4 active torsions:
REMARK  status: ('A' for Active; 'I' for Inactive)
REMARK    1  A    between atoms: N_1  and  S_2
REMARK    2  A    between atoms: S_2  and  C_5
REMARK    3  A    between atoms: N_9  and  C_10
REMARK    4  A    between atoms: C_10  and  C_11
REMARK                            x       y       z     vdW  Elec       q    Type
REMARK                         _______ _______ _______ _____ _____    ______ ____
ROOT
ATOM      1  C   UNL     1      48.417   4.847  18.124  0.00  0.00    +0.000 A 
ATOM      2  C   UNL     1      48.666   5.972  17.343  0.00  0.00    +0.000 A 
ATOM      3  C   UNL     1      48.161   6.008  16.039  0.00  0.00    +0.000 A 
ATOM      4  C   UNL     1      47.446   4.921  15.553  0.00  0.00    +0.000 A 
ATOM      5  N   UNL     1      47.033   4.774  14.238  0.00  0.00    +0.000 N 
ATOM      6  N   UNL     1      47.183   3.844  16.329  0.00  0.00    +0.000 NA
ATOM      7  C   UNL     1      47.664   3.823  17.591  0.00  0.00    +0.000 A 
ATOM      8  H   UNL     1      46.514   3.900  14.174  0.00  0.00    +0.000 HD
ENDROOT
BRANCH   1   9
ATOM      9  S   UNL     1      49.016   4.694  19.755  0.00  0.00    +0.000 S 
ATOM     10  O   UNL     1      48.385   5.717  20.579  0.00  0.00    +0.000 OA
ATOM     11  O   UNL     1      50.445   4.497  19.733  0.00  0.00    +0.000 OA
BRANCH   9  12
ATOM     12  N   UNL     1      48.371   3.229  20.248  0.00  0.00    +0.000 NA
ATOM     13  H   UNL     1      48.376   3.179  21.267  0.00  0.00    +0.000 HD
ATOM     14  H   UNL     1      48.878   2.453  19.806  0.00  0.00    +0.000 HD
ENDBRANCH   9  12
ENDBRANCH   1   9
BRANCH   5  15
ATOM     15  C   UNL     1      46.667   5.813  13.272  0.00  0.00    +0.000 C 
ATOM     16  C   UNL     1      47.888   6.312  12.479  0.00  0.00    +0.000 C 
ATOM     17  C   UNL     1      47.098   7.275  13.283  0.00  0.00    +0.000 C 
BRANCH  15  18
ATOM     18  C   UNL     1      45.331   5.589  12.551  0.00  0.00    +0.000 A 
ATOM     19  C   UNL     1      45.338   5.186  11.216  0.00  0.00    +0.000 A 
ATOM     20  C   UNL     1      44.163   4.719  10.647  0.00  0.00    +0.000 A 
ATOM     21 CL   UNL     1      44.186   4.085   9.048  0.00  0.00    +0.000 Cl
ATOM     22  C   UNL     1      42.987   4.706  11.378  0.00  0.00    +0.000 A 
ATOM     23  C   UNL     1      43.038   5.200  12.665  0.00  0.00    +0.000 A 
ATOM     24  N   UNL     1      44.171   5.635  13.260  0.00  0.00    +0.000 NA
ENDBRANCH  15  18
ENDBRANCH   5  15
TORSDOF 4
ENDMDL
MODEL 9
REMARK VINA RESULT:    -5.513      4.492      6.240
REMARK INTER + INTRA:          -7.159
REMARK INTER:                  -6.583
REMARK INTRA:                  -0.575
REMARK UNBOUND:                -0.518
REMARK  Name = 
REMARK  4 active torsions:
REMARK  status: ('A' for Active; 'I' for Inactive)
REMARK    1  A    between atoms: N_1  and  S_2
REMARK    2  A    between atoms: S_2  and  C_5
REMARK    3  A    between atoms: N_9  and  C_10
REMARK    4  A    between atoms: C_10  and  C_11
REMARK                            x       y       z     vdW  Elec       q    Type
REMARK                         _______ _______ _______ _____ _____    ______ ____
ROOT
ATOM      1  C   UNL     1      44.522   6.007  12.080  0.00  0.00    +0.000 A 
ATOM      2  C   UNL     1      45.773   5.404  12.171  0.00  0.00    +0.000 A 
ATOM      3  C   UNL     1      46.909   6.219  12.207  0.00  0.00    +0.000 A 
ATOM      4  C   UNL     1      46.763   7.598  12.131  0.00  0.00    +0.000 A 
ATOM      5  N   UNL     1      47.812   8.495  12.001  0.00  0.00    +0.000 N 
ATOM      6  N   UNL     1      45.542   8.178  12.072  0.00  0.00    +0.000 NA
ATOM      7  C   UNL     1      44.449   7.383  12.050  0.00  0.00    +0.000 A 
ATOM      8  H   UNL     1      47.415   9.433  11.993  0.00  0.00    +0.000 HD
ENDROOT
BRANCH   1   9
ATOM      9  S   UNL     1      43.044   5.082  12.011  0.00  0.00    +0.000 S 
ATOM     10  O   UNL     1      42.687   4.675  13.364  0.00  0.00    +0.000 OA
ATOM     11  O   UNL     1      43.108   4.144  10.917  0.00  0.00    +0.000 OA
BRANCH   9  12
ATOM     12  N   UNL     1      41.913   6.229  11.550  0.00  0.00    +0.000 NA
ATOM     13  H   UNL     1      41.226   6.349  12.295  0.00  0.00    +0.000 HD
ATOM     14  H   UNL     1      41.490   5.966  10.652  0.00  0.00    +0.000 HD
ENDBRANCH   9  12
ENDBRANCH   1   9
BRANCH   5  15
ATOM     15  C   UNL     1      49.183   8.379  12.502  0.00  0.00    +0.000 C 
ATOM     16  C   UNL     1      50.142   9.337  11.771  0.00  0.00    +0.000 C 
ATOM     17  C   UNL     1      50.405   7.878  11.740  0.00  0.00    +0.000 C 
BRANCH  15  18
ATOM     18  C   UNL     1      49.307   8.191  14.021  0.00  0.00    +0.000 A 
ATOM     19  C   UNL     1      48.786   9.165  14.871  0.00  0.00    +0.000 A 
ATOM     20  C   UNL     1      48.646   8.876  16.221  0.00  0.00    +0.000 A 
ATOM     21 CL   UNL     1      47.873  10.010  17.257  0.00  0.00    +0.000 Cl
ATOM     22  C   UNL     1      49.071   7.658  16.724  0.00  0.00    +0.000 A 
ATOM     23  C   UNL     1      49.656   6.777  15.837  0.00  0.00    +0.000 A 
ATOM     24  N   UNL     1      49.781   7.015  14.513  0.00  0.00    +0.000 NA
ENDBRANCH  15  18
ENDBRANCH   5  15
TORSDOF 4
ENDMDL
