MODEL 1
REMARK VINA RESULT:    -7.820      0.000      0.000
REMARK INTER + INTRA:         -11.954
REMARK INTER:                 -11.020
REMARK INTRA:                  -0.934
REMARK UNBOUND:                -0.934
REMARK  Name = 
REMARK  7 active torsions:
REMARK  status: ('A' for Active; 'I' for Inactive)
REMARK    1  A    between atoms: C_2  and  C_3
REMARK    2  A    between atoms: C_3  and  N_4
REMARK    3  A    between atoms: C_3  and  C_22
REMARK    4  A    between atoms: C_5  and  C_7
REMARK    5  A    between atoms: C_10  and  C_11
REMARK    6  A    between atoms: C_11  and  N_12
REMARK    7  A    between atoms: C_13  and  C_15
REMARK                            x       y       z     vdW  Elec       q    Type
REMARK                         _______ _______ _______ _____ _____    ______ ____
ROOT
ATOM      1  N   UNL     1      46.442   6.431  13.422  0.00  0.00    +0.000 N 
ATOM      2  C   UNL     1      45.756   6.211  12.262  0.00  0.00    +0.000 C 
ATOM      3  O   UNL     1      46.344   5.997  11.204  0.00  0.00    +0.000 OA
ATOM      4  H   UNL     1      45.963   6.705  14.274  0.00  0.00    +0.000 HD
ENDROOT
BRANCH   2   5
ATOM      5  C   UNL     1      44.222   6.172  12.369  0.00  0.00    +0.000 C 
ATOM      6  C   UNL     1      43.467   6.113  11.038  0.00  0.00    +0.000 C 
ATOM      7  C   UNL     1      43.806   4.846  10.259  0.00  0.00    +0.000 C 
ATOM      8  C   UNL     1      43.548   3.567  11.077  0.00  0.00    +0.000 C 
ATOM      9  C   UNL     1      44.119   3.647  12.503  0.00  0.00    +0.000 C 
ATOM     10  C   UNL     1      43.793   4.962  13.214  0.00  0.00    +0.000 C 
BRANCH   8  11
ATOM     11  C   UNL     1      44.141   2.339  10.366  0.00  0.00    +0.000 C 
BRANCH  11  12
ATOM     12  N   UNL     1      45.005   2.708   9.269  0.00  0.00    +0.000 N 
ATOM     13  C   UNL     1      45.655   1.784   8.489  0.00  0.00    +0.000 C 
ATOM     14  O   UNL     1      45.614   0.578   8.710  0.00  0.00    +0.000 OA
ATOM     15  H   UNL     1      45.029   3.679   8.996  0.00  0.00    +0.000 HD
BRANCH  13  16
ATOM     16  C   UNL     1      46.382   2.342   7.371  0.00  0.00    +0.000 A 
ATOM     17  C   UNL     1      46.355   3.592   6.769  0.00  0.00    +0.000 A 
ATOM     18  C   UNL     1      47.269   3.581   5.688  0.00  0.00    +0.000 A 
ATOM     19  C   UNL     1      47.845   2.333   5.653  0.00  0.00    +0.000 A 
ATOM     20  N   UNL     1      47.309   1.596   6.675  0.00  0.00    +0.000 N 
ATOM     21  H   UNL     1      47.541   0.637   6.907  0.00  0.00    +0.000 HD
ENDBRANCH  13  16
ENDBRANCH  11  12
ENDBRANCH   8  11
ENDBRANCH   2   5
BRANCH   1  22
ATOM     22  C   UNL     1      47.887   6.549  13.453  0.00  0.00    +0.000 C 
BRANCH  22  23
ATOM     23  C   UNL     1      48.286   6.432  14.904  0.00  0.00    +0.000 A 
ATOM     24  C   UNL     1      48.994   7.405  15.591  0.00  0.00    +0.000 A 
ATOM     25  S   UNL     1      49.296   6.987  17.221  0.00  0.00    +0.000 S 
ATOM     26  C   UNL     1      48.499   5.491  17.054  0.00  0.00    +0.000 A 
ATOM     27  N   UNL     1      48.365   4.629  18.095  0.00  0.00    +0.000 NA
ATOM     28  C   UNL     1      47.715   3.548  17.811  0.00  0.00    +0.000 A 
ATOM     29  N   UNL     1      47.209   3.235  16.573  0.00  0.00    +0.000 N 
ATOM     30  C   UNL     1      47.418   4.025  15.470  0.00  0.00    +0.000 A 
ATOM     31  O   UNL     1      47.153   3.658  14.328  0.00  0.00    +0.000 OA
ATOM     32  C   UNL     1      48.046   5.299  15.766  0.00  0.00    +0.000 A 
ATOM     33  H   UNL     1      46.756   2.347  16.412  0.00  0.00    +0.000 HD
ENDBRANCH  22  23
BRANCH  22  35
ATOM     34  N   UNL     1      48.734   8.816  12.385  0.00  0.00    +0.000 NA
ATOM     35  C   UNL     1      48.356   7.824  12.858  0.00  0.00    +0.000 C 
ENDBRANCH  22  35
ENDBRANCH   1  22
TORSDOF 7
ENDMDL
MODEL 2
REMARK VINA RESULT:    -6.848      3.848      7.930
REMARK INTER + INTRA:         -10.585
REMARK INTER:                  -8.913
REMARK INTRA:                  -1.672
REMARK UNBOUND:                -0.934
REMARK  Name = 
REMARK  7 active torsions:
REMARK  status: ('A' for Active; 'I' for Inactive)
REMARK    1  A    between atoms: C_2  and  C_3
REMARK    2  A    between atoms: C_3  and  N_4
REMARK    3  A    between atoms: C_3  and  C_22
REMARK    4  A    between atoms: C_5  and  C_7
REMARK    5  A    between atoms: C_10  and  C_11
REMARK    6  A    between atoms: C_11  and  N_12
REMARK    7  A    between atoms: C_13  and  C_15
REMARK                            x       y       z     vdW  Elec       q    Type
REMARK                         _______ _______ _______ _____ _____    ______ ____
ROOT
ATOM      1  N   UNL     1      46.531   4.695  14.895  0.00  0.00    +0.000 N 
ATOM      2  C   UNL     1      47.208   3.742  15.600  0.00  0.00    +0.000 C 
ATOM      3  O   UNL     1      47.898   2.898  15.032  0.00  0.00    +0.000 OA
ATOM      4  H   UNL     1      45.884   5.330  15.352  0.00  0.00    +0.000 HD
ENDROOT
BRANCH   2   5
ATOM      5  C   UNL     1      47.121   3.831  17.133  0.00  0.00    +0.000 C 
ATOM      6  C   UNL     1      48.018   2.858  17.904  0.00  0.00    +0.000 C 
ATOM      7  C   UNL     1      49.494   3.108  17.613  0.00  0.00    +0.000 C 
ATOM      8  C   UNL     1      49.912   4.562  17.900  0.00  0.00    +0.000 C 
ATOM      9  C   UNL     1      48.931   5.590  17.310  0.00  0.00    +0.000 C 
ATOM     10  C   UNL     1      47.463   5.258  17.589  0.00  0.00    +0.000 C 
BRANCH   8  11
ATOM     11  C   UNL     1      51.322   4.841  17.352  0.00  0.00    +0.000 C 
BRANCH  11  12
ATOM     12  N   UNL     1      51.382   6.075  16.605  0.00  0.00    +0.000 N 
ATOM     13  C   UNL     1      52.562   6.626  16.170  0.00  0.00    +0.000 C 
ATOM     14  O   UNL     1      53.660   6.155  16.449  0.00  0.00    +0.000 OA
ATOM     15  H   UNL     1      50.512   6.476  16.288  0.00  0.00    +0.000 HD
BRANCH  13  16
ATOM     16  C   UNL     1      52.411   7.802  15.342  0.00  0.00    +0.000 A 
ATOM     17  C   UNL     1      52.189   9.137  15.647  0.00  0.00    +0.000 A 
ATOM     18  C   UNL     1      52.103   9.857  14.432  0.00  0.00    +0.000 A 
ATOM     19  C   UNL     1      52.282   8.957  13.409  0.00  0.00    +0.000 A 
ATOM     20  N   UNL     1      52.474   7.722  13.967  0.00  0.00    +0.000 N 
ATOM     21  H   UNL     1      52.639   6.857  13.465  0.00  0.00    +0.000 HD
ENDBRANCH  13  16
ENDBRANCH  11  12
ENDBRANCH   8  11
ENDBRANCH   2   5
BRANCH   1  22
ATOM     22  C   UNL     1      46.482   4.693  13.446  0.00  0.00    +0.000 C 
BRANCH  22  23
ATOM     23  C   UNL     1      46.249   6.126  13.032  0.00  0.00    +0.000 A 
ATOM     24  C   UNL     1      45.146   6.552  12.309  0.00  0.00    +0.000 A 
ATOM     25  S   UNL     1      45.162   8.232  11.994  0.00  0.00    +0.000 S 
ATOM     26  C   UNL     1      46.645   8.438  12.805  0.00  0.00    +0.000 A 
ATOM     27  N   UNL     1      47.229   9.657  12.934  0.00  0.00    +0.000 NA
ATOM     28  C   UNL     1      48.340   9.648  13.595  0.00  0.00    +0.000 A 
ATOM     29  N   UNL     1      48.938   8.527  14.116  0.00  0.00    +0.000 N 
ATOM     30  C   UNL     1      48.439   7.263  13.913  0.00  0.00    +0.000 A 
ATOM     31  O   UNL     1      49.068   6.246  14.192  0.00  0.00    +0.000 OA
ATOM     32  C   UNL     1      47.138   7.238  13.272  0.00  0.00    +0.000 A 
ATOM     33  H   UNL     1      49.833   8.589  14.578  0.00  0.00    +0.000 HD
ENDBRANCH  22  23
BRANCH  22  35
ATOM     34  N   UNL     1      44.587   3.102  12.508  0.00  0.00    +0.000 NA
ATOM     35  C   UNL     1      45.423   3.795  12.924  0.00  0.00    +0.000 C 
ENDBRANCH  22  35
ENDBRANCH   1  22
TORSDOF 7
ENDMDL
MODEL 3
REMARK VINA RESULT:    -6.809      1.656      2.701
REMARK INTER + INTRA:         -10.530
REMARK INTER:                 -10.133
REMARK INTRA:                  -0.397
REMARK UNBOUND:                -0.934
REMARK  Name = 
REMARK  7 active torsions:
REMARK  status: ('A' for Active; 'I' for Inactive)
REMARK    1  A    between atoms: C_2  and  C_3
REMARK    2  A    between atoms: C_3  and  N_4
REMARK    3  A    between atoms: C_3  and  C_22
REMARK    4  A    between atoms: C_5  and  C_7
REMARK    5  A    between atoms: C_10  and  C_11
REMARK    6  A    between atoms: C_11  and  N_12
REMARK    7  A    between atoms: C_13  and  C_15
REMARK                            x       y       z     vdW  Elec       q    Type
REMARK                         _______ _______ _______ _____ _____    ______ ____
ROOT
ATOM      1  N   UNL     1      46.899   6.581  13.129  0.00  0.00    +0.000 N 
ATOM      2  C   UNL     1      45.903   5.654  13.242  0.00  0.00    +0.000 C 
ATOM      3  O   UNL     1      46.117   4.543  13.723  0.00  0.00    +0.000 OA
ATOM      4  H   UNL     1      46.749   7.460  12.644  0.00  0.00    +0.000 HD
ENDROOT
BRANCH   2   5
ATOM      5  C   UNL     1      44.497   6.100  12.807  0.00  0.00    +0.000 C 
ATOM      6  C   UNL     1      44.322   6.370  11.309  0.00  0.00    +0.000 C 
ATOM      7  C   UNL     1      44.571   5.113  10.482  0.00  0.00    +0.000 C 
ATOM      8  C   UNL     1      43.683   3.935  10.921  0.00  0.00    +0.000 C 
ATOM      9  C   UNL     1      43.666   3.738  12.447  0.00  0.00    +0.000 C 
ATOM     10  C   UNL     1      43.465   5.041  13.224  0.00  0.00    +0.000 C 
BRANCH   8  11
ATOM     11  C   UNL     1      44.142   2.628  10.251  0.00  0.00    +0.000 C 
BRANCH  11  12
ATOM     12  N   UNL     1      45.059   2.869   9.161  0.00  0.00    +0.000 N 
ATOM     13  C   UNL     1      45.657   1.855   8.453  0.00  0.00    +0.000 C 
ATOM     14  O   UNL     1      45.519   0.670   8.741  0.00  0.00    +0.000 OA
ATOM     15  H   UNL     1      45.163   3.817   8.834  0.00  0.00    +0.000 HD
BRANCH  13  16
ATOM     16  C   UNL     1      46.453   2.291   7.328  0.00  0.00    +0.000 A 
ATOM     17  C   UNL     1      46.307   3.341   6.433  0.00  0.00    +0.000 A 
ATOM     18  C   UNL     1      47.379   3.284   5.509  0.00  0.00    +0.000 A 
ATOM     19  C   UNL     1      48.163   2.210   5.859  0.00  0.00    +0.000 A 
ATOM     20  N   UNL     1      47.601   1.622   6.960  0.00  0.00    +0.000 N 
ATOM     21  H   UNL     1      47.956   0.810   7.453  0.00  0.00    +0.000 HD
ENDBRANCH  13  16
ENDBRANCH  11  12
ENDBRANCH   8  11
ENDBRANCH   2   5
BRANCH   1  22
ATOM     22  C   UNL     1      48.279   6.273  13.449  0.00  0.00    +0.000 C 
BRANCH  22  23
ATOM     23  C   UNL     1      48.487   6.712  14.877  0.00  0.00    +0.000 A 
ATOM     24  C   UNL     1      48.683   5.836  15.933  0.00  0.00    +0.000 A 
ATOM     25  S   UNL     1      48.892   6.632  17.433  0.00  0.00    +0.000 S 
ATOM     26  C   UNL     1      48.717   8.167  16.717  0.00  0.00    +0.000 A 
ATOM     27  N   UNL     1      48.814   9.312  17.441  0.00  0.00    +0.000 NA
ATOM     28  C   UNL     1      48.681  10.394  16.748  0.00  0.00    +0.000 A 
ATOM     29  N   UNL     1      48.430  10.439  15.398  0.00  0.00    +0.000 N 
ATOM     30  C   UNL     1      48.214   9.308  14.650  0.00  0.00    +0.000 A 
ATOM     31  O   UNL     1      47.788   9.342  13.498  0.00  0.00    +0.000 OA
ATOM     32  C   UNL     1      48.464   8.070  15.365  0.00  0.00    +0.000 A 
ATOM     33  H   UNL     1      48.286  11.322  14.931  0.00  0.00    +0.000 HD
ENDBRANCH  22  23
BRANCH  22  35
ATOM     34  N   UNL     1      49.983   7.462  11.810  0.00  0.00    +0.000 NA
ATOM     35  C   UNL     1      49.229   6.944  12.527  0.00  0.00    +0.000 C 
ENDBRANCH  22  35
ENDBRANCH   1  22
TORSDOF 7
ENDMDL
MODEL 4
REMARK VINA RESULT:    -6.762      2.479      4.223
REMARK INTER + INTRA:         -10.464
REMARK INTER:                  -9.689
REMARK INTRA:                  -0.775
REMARK UNBOUND:                -0.934
REMARK  Name = 
REMARK  7 active torsions:
REMARK  status: ('A' for Active; 'I' for Inactive)
REMARK    1  A    between atoms: C_2  and  C_3
REMARK    2  A    between atoms: C_3  and  N_4
REMARK    3  A    between atoms: C_3  and  C_22
REMARK    4  A    between atoms: C_5  and  C_7
REMARK    5  A    between atoms: C_10  and  C_11
REMARK    6  A    between atoms: C_11  and  N_12
REMARK    7  A    between atoms: C_13  and  C_15
REMARK                            x       y       z     vdW  Elec       q    Type
REMARK                         _______ _______ _______ _____ _____    ______ ____
ROOT
ATOM      1  N   UNL     1      50.221   7.830  14.852  0.00  0.00    +0.000 N 
ATOM      2  C   UNL     1      49.429   7.412  13.823  0.00  0.00    +0.000 C 
ATOM      3  O   UNL     1      49.028   6.251  13.757  0.00  0.00    +0.000 OA
ATOM      4  H   UNL     1      50.633   8.758  14.858  0.00  0.00    +0.000 HD
ENDROOT
BRANCH   2   5
ATOM      5  C   UNL     1      49.008   8.482  12.802  0.00  0.00    +0.000 C 
ATOM      6  C   UNL     1      48.564   7.953  11.434  0.00  0.00    +0.000 C 
ATOM      7  C   UNL     1      47.331   7.064  11.551  0.00  0.00    +0.000 C 
ATOM      8  C   UNL     1      46.159   7.774  12.256  0.00  0.00    +0.000 C 
ATOM      9  C   UNL     1      46.589   8.494  13.546  0.00  0.00    +0.000 C 
ATOM     10  C   UNL     1      47.862   9.327  13.379  0.00  0.00    +0.000 C 
BRANCH   8  11
ATOM     11  C   UNL     1      45.039   6.774  12.588  0.00  0.00    +0.000 C 
BRANCH  11  12
ATOM     12  N   UNL     1      45.060   5.622  11.717  0.00  0.00    +0.000 N 
ATOM     13  C   UNL     1      44.004   5.282  10.907  0.00  0.00    +0.000 C 
ATOM     14  O   UNL     1      42.935   5.884  10.919  0.00  0.00    +0.000 OA
ATOM     15  H   UNL     1      45.932   5.126  11.614  0.00  0.00    +0.000 HD
BRANCH  13  16
ATOM     16  C   UNL     1      44.255   4.165  10.024  0.00  0.00    +0.000 A 
ATOM     17  C   UNL     1      44.488   2.819  10.265  0.00  0.00    +0.000 A 
ATOM     18  C   UNL     1      44.695   2.178   9.020  0.00  0.00    +0.000 A 
ATOM     19  C   UNL     1      44.576   3.137   8.042  0.00  0.00    +0.000 A 
ATOM     20  N   UNL     1      44.304   4.330   8.657  0.00  0.00    +0.000 N 
ATOM     21  H   UNL     1      44.158   5.221   8.196  0.00  0.00    +0.000 HD
ENDBRANCH  13  16
ENDBRANCH  11  12
ENDBRANCH   8  11
ENDBRANCH   2   5
BRANCH   1  22
ATOM     22  C   UNL     1      50.736   6.915  15.851  0.00  0.00    +0.000 C 
BRANCH  22  23
ATOM     23  C   UNL     1      50.016   7.245  17.135  0.00  0.00    +0.000 A 
ATOM     24  C   UNL     1      50.384   8.276  17.984  0.00  0.00    +0.000 A 
ATOM     25  S   UNL     1      49.375   8.404  19.359  0.00  0.00    +0.000 S 
ATOM     26  C   UNL     1      48.423   7.081  18.865  0.00  0.00    +0.000 A 
ATOM     27  N   UNL     1      47.350   6.661  19.584  0.00  0.00    +0.000 NA
ATOM     28  C   UNL     1      46.720   5.660  19.064  0.00  0.00    +0.000 A 
ATOM     29  N   UNL     1      47.079   5.019  17.903  0.00  0.00    +0.000 N 
ATOM     30  C   UNL     1      48.218   5.340  17.205  0.00  0.00    +0.000 A 
ATOM     31  O   UNL     1      48.657   4.647  16.291  0.00  0.00    +0.000 OA
ATOM     32  C   UNL     1      48.893   6.528  17.693  0.00  0.00    +0.000 A 
ATOM     33  H   UNL     1      46.568   4.210  17.583  0.00  0.00    +0.000 HD
ENDBRANCH  22  23
BRANCH  22  35
ATOM     34  N   UNL     1      53.359   7.127  16.123  0.00  0.00    +0.000 NA
ATOM     35  C   UNL     1      52.208   7.026  16.006  0.00  0.00    +0.000 C 
ENDBRANCH  22  35
ENDBRANCH   1  22
TORSDOF 7
ENDMDL
MODEL 5
REMARK VINA RESULT:    -6.471      3.878      7.594
REMARK INTER + INTRA:         -10.053
REMARK INTER:                  -8.323
REMARK INTRA:                  -1.731
REMARK UNBOUND:                -0.934
REMARK  Name = 
REMARK  7 active torsions:
REMARK  status: ('A' for Active; 'I' for Inactive)
REMARK    1  A    between atoms: C_2  and  C_3
REMARK    2  A    between atoms: C_3  and  N_4
REMARK    3  A    between atoms: C_3  and  C_22
REMARK    4  A    between atoms: C_5  and  C_7
REMARK    5  A    between atoms: C_10  and  C_11
REMARK    6  A    between atoms: C_11  and  N_12
REMARK    7  A    between atoms: C_13  and  C_15
REMARK                            x       y       z     vdW  Elec       q    Type
REMARK                         _______ _______ _______ _____ _____    ______ ____
ROOT
ATOM      1  N   UNL     1      46.826   8.296  11.814  0.00  0.00    +0.000 N 
ATOM      2  C   UNL     1      47.733   9.257  12.159  0.00  0.00    +0.000 C 
ATOM      3  O   UNL     1      47.468  10.110  13.004  0.00  0.00    +0.000 OA
ATOM      4  H   UNL     1      47.004   7.653  11.049  0.00  0.00    +0.000 HD
ENDROOT
BRANCH   2   5
ATOM      5  C   UNL     1      49.116   9.166  11.493  0.00  0.00    +0.000 C 
ATOM      6  C   UNL     1      50.182  10.115  12.050  0.00  0.00    +0.000 C 
ATOM      7  C   UNL     1      50.472   9.831  13.519  0.00  0.00    +0.000 C 
ATOM      8  C   UNL     1      50.879   8.366  13.765  0.00  0.00    +0.000 C 
ATOM      9  C   UNL     1      49.949   7.363  13.061  0.00  0.00    +0.000 C 
ATOM     10  C   UNL     1      49.652   7.730  11.606  0.00  0.00    +0.000 C 
BRANCH   8  11
ATOM     11  C   UNL     1      50.906   8.055  15.272  0.00  0.00    +0.000 C 
BRANCH  11  12
ATOM     12  N   UNL     1      50.061   6.934  15.611  0.00  0.00    +0.000 N 
ATOM     13  C   UNL     1      50.220   6.204  16.764  0.00  0.00    +0.000 C 
ATOM     14  O   UNL     1      51.138   6.398  17.555  0.00  0.00    +0.000 OA
ATOM     15  H   UNL     1      49.251   6.764  15.036  0.00  0.00    +0.000 HD
BRANCH  13  16
ATOM     16  C   UNL     1      49.210   5.193  16.983  0.00  0.00    +0.000 A 
ATOM     17  C   UNL     1      49.291   3.831  17.234  0.00  0.00    +0.000 A 
ATOM     18  C   UNL     1      47.974   3.325  17.346  0.00  0.00    +0.000 A 
ATOM     19  C   UNL     1      47.113   4.383  17.171  0.00  0.00    +0.000 A 
ATOM     20  N   UNL     1      47.868   5.505  16.960  0.00  0.00    +0.000 N 
ATOM     21  H   UNL     1      47.515   6.443  16.804  0.00  0.00    +0.000 HD
ENDBRANCH  13  16
ENDBRANCH  11  12
ENDBRANCH   8  11
ENDBRANCH   2   5
BRANCH   1  22
ATOM     22  C   UNL     1      45.469   8.298  12.323  0.00  0.00    +0.000 C 
BRANCH  22  23
ATOM     23  C   UNL     1      44.940   6.900  12.111  0.00  0.00    +0.000 A 
ATOM     24  C   UNL     1      43.786   6.611  11.399  0.00  0.00    +0.000 A 
ATOM     25  S   UNL     1      43.445   4.937  11.330  0.00  0.00    +0.000 S 
ATOM     26  C   UNL     1      44.821   4.551  12.256  0.00  0.00    +0.000 A 
ATOM     27  N   UNL     1      45.149   3.267  12.554  0.00  0.00    +0.000 NA
ATOM     28  C   UNL     1      46.234   3.141  13.245  0.00  0.00    +0.000 A 
ATOM     29  N   UNL     1      47.009   4.183  13.691  0.00  0.00    +0.000 N 
ATOM     30  C   UNL     1      46.655   5.497  13.508  0.00  0.00    +0.000 A 
ATOM     31  O   UNL     1      47.225   6.426  14.076  0.00  0.00    +0.000 OA
ATOM     32  C   UNL     1      45.505   5.684  12.644  0.00  0.00    +0.000 A 
ATOM     33  H   UNL     1      47.818   4.011  14.271  0.00  0.00    +0.000 HD
ENDBRANCH  22  23
BRANCH  22  35
ATOM     34  N   UNL     1      43.951  10.096  11.113  0.00  0.00    +0.000 NA
ATOM     35  C   UNL     1      44.621   9.312  11.649  0.00  0.00    +0.000 C 
ENDBRANCH  22  35
ENDBRANCH   1  22
TORSDOF 7
ENDMDL
MODEL 6
REMARK VINA RESULT:    -6.382      2.879      5.147
REMARK INTER + INTRA:          -9.928
REMARK INTER:                  -9.051
REMARK INTRA:                  -0.877
REMARK UNBOUND:                -0.934
REMARK  Name = 
REMARK  7 active torsions:
REMARK  status: ('A' for Active; 'I' for Inactive)
REMARK    1  A    between atoms: C_2  and  C_3
REMARK    2  A    between atoms: C_3  and  N_4
REMARK    3  A    between atoms: C_3  and  C_22
REMARK    4  A    between atoms: C_5  and  C_7
REMARK    5  A    between atoms: C_10  and  C_11
REMARK    6  A    between atoms: C_11  and  N_12
REMARK    7  A    between atoms: C_13  and  C_15
REMARK                            x       y       z     vdW  Elec       q    Type
REMARK                         _______ _______ _______ _____ _____    ______ ____
ROOT
ATOM      1  N   UNL     1      48.945   6.220  15.924  0.00  0.00    +0.000 N 
ATOM      2  C   UNL     1      48.734   7.551  15.708  0.00  0.00    +0.000 C 
ATOM      3  O   UNL     1      48.291   8.279  16.594  0.00  0.00    +0.000 OA
ATOM      4  H   UNL     1      49.216   5.599  15.168  0.00  0.00    +0.000 HD
ENDROOT
BRANCH   2   5
ATOM      5  C   UNL     1      49.150   8.097  14.332  0.00  0.00    +0.000 C 
ATOM      6  C   UNL     1      49.228   7.063  13.205  0.00  0.00    +0.000 C 
ATOM      7  C   UNL     1      47.871   6.420  12.941  0.00  0.00    +0.000 C 
ATOM      8  C   UNL     1      46.777   7.461  12.636  0.00  0.00    +0.000 C 
ATOM      9  C   UNL     1      46.779   8.634  13.632  0.00  0.00    +0.000 C 
ATOM     10  C   UNL     1      48.175   9.202  13.897  0.00  0.00    +0.000 C 
BRANCH   8  11
ATOM     11  C   UNL     1      45.386   6.804  12.637  0.00  0.00    +0.000 C 
BRANCH  11  12
ATOM     12  N   UNL     1      45.316   5.677  11.737  0.00  0.00    +0.000 N 
ATOM     13  C   UNL     1      44.184   5.359  11.028  0.00  0.00    +0.000 C 
ATOM     14  O   UNL     1      43.123   5.961  11.162  0.00  0.00    +0.000 OA
ATOM     15  H   UNL     1      46.172   5.183  11.534  0.00  0.00    +0.000 HD
BRANCH  13  16
ATOM     16  C   UNL     1      44.342   4.266  10.095  0.00  0.00    +0.000 A 
ATOM     17  C   UNL     1      44.231   2.890  10.240  0.00  0.00    +0.000 A 
ATOM     18  C   UNL     1      44.515   2.291   8.990  0.00  0.00    +0.000 A 
ATOM     19  C   UNL     1      44.783   3.306   8.102  0.00  0.00    +0.000 A 
ATOM     20  N   UNL     1      44.670   4.492   8.775  0.00  0.00    +0.000 N 
ATOM     21  H   UNL     1      44.805   5.418   8.384  0.00  0.00    +0.000 HD
ENDBRANCH  13  16
ENDBRANCH  11  12
ENDBRANCH   8  11
ENDBRANCH   2   5
BRANCH   1  22
ATOM     22  C   UNL     1      48.545   5.564  17.154  0.00  0.00    +0.000 C 
BRANCH  22  23
ATOM     23  C   UNL     1      49.815   5.048  17.786  0.00  0.00    +0.000 A 
ATOM     24  C   UNL     1      50.469   3.897  17.375  0.00  0.00    +0.000 A 
ATOM     25  S   UNL     1      51.882   3.571  18.282  0.00  0.00    +0.000 S 
ATOM     26  C   UNL     1      51.655   4.951  19.254  0.00  0.00    +0.000 A 
ATOM     27  N   UNL     1      52.533   5.290  20.234  0.00  0.00    +0.000 NA
ATOM     28  C   UNL     1      52.231   6.376  20.866  0.00  0.00    +0.000 A 
ATOM     29  N   UNL     1      51.116   7.142  20.629  0.00  0.00    +0.000 N 
ATOM     30  C   UNL     1      50.148   6.776  19.726  0.00  0.00    +0.000 A 
ATOM     31  O   UNL     1      49.058   7.337  19.655  0.00  0.00    +0.000 OA
ATOM     32  C   UNL     1      50.500   5.624  18.917  0.00  0.00    +0.000 A 
ATOM     33  H   UNL     1      50.918   7.952  21.199  0.00  0.00    +0.000 HD
ENDBRANCH  22  23
BRANCH  22  35
ATOM     34  N   UNL     1      46.799   3.625  16.718  0.00  0.00    +0.000 NA
ATOM     35  C   UNL     1      47.570   4.472  16.914  0.00  0.00    +0.000 C 
ENDBRANCH  22  35
ENDBRANCH   1  22
TORSDOF 7
ENDMDL
MODEL 7
REMARK VINA RESULT:    -5.903      2.788      4.926
REMARK INTER + INTRA:          -9.253
REMARK INTER:                  -9.139
REMARK INTRA:                  -0.114
REMARK UNBOUND:                -0.934
REMARK  Name = 
REMARK  7 active torsions:
REMARK  status: ('A' for Active; 'I' for Inactive)
REMARK    1  A    between atoms: C_2  and  C_3
REMARK    2  A    between atoms: C_3  and  N_4
REMARK    3  A    between atoms: C_3  and  C_22
REMARK    4  A    between atoms: C_5  and  C_7
REMARK    5  A    between atoms: C_10  and  C_11
REMARK    6  A    between atoms: C_11  and  N_12
REMARK    7  A    between atoms: C_13  and  C_15
REMARK                            x       y       z     vdW  Elec       q    Type
REMARK                         _______ _______ _______ _____ _____    ______ ____
ROOT
ATOM      1  N   UNL     1      49.522   7.161  15.601  0.00  0.00    +0.000 N 
ATOM      2  C   UNL     1      49.628   8.478  15.258  0.00  0.00    +0.000 C 
ATOM      3  O   UNL     1      49.834   9.344  16.107  0.00  0.00    +0.000 OA
ATOM      4  H   UNL     1      49.254   6.458  14.919  0.00  0.00    +0.000 HD
ENDROOT
BRANCH   2   5
ATOM      5  C   UNL     1      49.551   8.805  13.757  0.00  0.00    +0.000 C 
ATOM      6  C   UNL     1      49.739   7.616  12.810  0.00  0.00    +0.000 C 
ATOM      7  C   UNL     1      48.649   6.568  13.006  0.00  0.00    +0.000 C 
ATOM      8  C   UNL     1      47.234   7.156  12.851  0.00  0.00    +0.000 C 
ATOM      9  C   UNL     1      47.047   8.469  13.631  0.00  0.00    +0.000 C 
ATOM     10  C   UNL     1      48.198   9.458  13.438  0.00  0.00    +0.000 C 
BRANCH   8  11
ATOM     11  C   UNL     1      46.171   6.143  13.309  0.00  0.00    +0.000 C 
BRANCH  11  12
ATOM     12  N   UNL     1      45.854   5.182  12.279  0.00  0.00    +0.000 N 
ATOM     13  C   UNL     1      44.966   5.443  11.265  0.00  0.00    +0.000 C 
ATOM     14  O   UNL     1      44.316   6.482  11.199  0.00  0.00    +0.000 OA
ATOM     15  H   UNL     1      46.402   4.335  12.241  0.00  0.00    +0.000 HD
BRANCH  13  16
ATOM     16  C   UNL     1      44.866   4.402  10.267  0.00  0.00    +0.000 A 
ATOM     17  C   UNL     1      44.810   3.019  10.363  0.00  0.00    +0.000 A 
ATOM     18  C   UNL     1      44.737   2.489   9.052  0.00  0.00    +0.000 A 
ATOM     19  C   UNL     1      44.741   3.553   8.181  0.00  0.00    +0.000 A 
ATOM     20  N   UNL     1      44.812   4.701   8.923  0.00  0.00    +0.000 N 
ATOM     21  H   UNL     1      44.826   5.648   8.560  0.00  0.00    +0.000 HD
ENDBRANCH  13  16
ENDBRANCH  11  12
ENDBRANCH   8  11
ENDBRANCH   2   5
BRANCH   1  22
ATOM     22  C   UNL     1      49.519   6.721  16.982  0.00  0.00    +0.000 C 
BRANCH  22  23
ATOM     23  C   UNL     1      49.236   5.239  16.950  0.00  0.00    +0.000 A 
ATOM     24  C   UNL     1      47.993   4.696  16.669  0.00  0.00    +0.000 A 
ATOM     25  S   UNL     1      47.985   2.987  16.704  0.00  0.00    +0.000 S 
ATOM     26  C   UNL     1      49.639   2.923  17.106  0.00  0.00    +0.000 A 
ATOM     27  N   UNL     1      50.294   1.743  17.263  0.00  0.00    +0.000 NA
ATOM     28  C   UNL     1      51.550   1.865  17.544  0.00  0.00    +0.000 A 
ATOM     29  N   UNL     1      52.208   3.058  17.710  0.00  0.00    +0.000 N 
ATOM     30  C   UNL     1      51.561   4.269  17.670  0.00  0.00    +0.000 A 
ATOM     31  O   UNL     1      52.092   5.320  18.019  0.00  0.00    +0.000 OA
ATOM     32  C   UNL     1      50.175   4.185  17.248  0.00  0.00    +0.000 A 
ATOM     33  H   UNL     1      53.181   3.076  17.980  0.00  0.00    +0.000 HD
ENDBRANCH  22  23
BRANCH  22  35
ATOM     34  N   UNL     1      47.725   8.016  18.433  0.00  0.00    +0.000 NA
ATOM     35  C   UNL     1      48.519   7.451  17.800  0.00  0.00    +0.000 C 
ENDBRANCH  22  35
ENDBRANCH   1  22
TORSDOF 7
ENDMDL
MODEL 8
REMARK VINA RESULT:    -5.626      4.305      6.596
REMARK INTER + INTRA:          -8.862
REMARK INTER:                  -7.275
REMARK INTRA:                  -1.587
REMARK UNBOUND:                -0.934
REMARK  Name = 
REMARK  7 active torsions:
REMARK  status: ('A' for Active; 'I' for Inactive)
REMARK    1  A    between atoms: C_2  and  C_3
REMARK    2  A    between atoms: C_3  and  N_4
REMARK    3  A    between atoms: C_3  and  C_22
REMARK    4  A    between atoms: C_5  and  C_7
REMARK    5  A    between atoms: C_10  and  C_11
REMARK    6  A    between atoms: C_11  and  N_12
REMARK    7  A    between atoms: C_13  and  C_15
REMARK                            x       y       z     vdW  Elec       q    Type
REMARK                         _______ _______ _______ _____ _____    ______ ____
ROOT
ATOM      1  N   UNL     1      50.165   9.009  14.878  0.00  0.00    +0.000 N 
ATOM      2  C   UNL     1      49.439   9.645  13.913  0.00  0.00    +0.000 C 
ATOM      3  O   UNL     1      48.729  10.612  14.182  0.00  0.00    +0.000 OA
ATOM      4  H   UNL     1      50.673   8.154  14.679  0.00  0.00    +0.000 HD
ENDROOT
BRANCH   2   5
ATOM      5  C   UNL     1      49.618   9.137  12.473  0.00  0.00    +0.000 C 
ATOM      6  C   UNL     1      49.950   7.648  12.333  0.00  0.00    +0.000 C 
ATOM      7  C   UNL     1      48.831   6.772  12.887  0.00  0.00    +0.000 C 
ATOM      8  C   UNL     1      47.468   7.079  12.240  0.00  0.00    +0.000 C 
ATOM      9  C   UNL     1      47.167   8.586  12.175  0.00  0.00    +0.000 C 
ATOM     10  C   UNL     1      48.344   9.418  11.662  0.00  0.00    +0.000 C 
BRANCH   8  11
ATOM     11  C   UNL     1      46.334   6.371  13.000  0.00  0.00    +0.000 C 
BRANCH  11  12
ATOM     12  N   UNL     1      46.766   5.874  14.285  0.00  0.00    +0.000 N 
ATOM     13  C   UNL     1      46.785   4.538  14.599  0.00  0.00    +0.000 C 
ATOM     14  O   UNL     1      46.363   3.669  13.842  0.00  0.00    +0.000 OA
ATOM     15  H   UNL     1      47.184   6.531  14.927  0.00  0.00    +0.000 HD
BRANCH  13  16
ATOM     16  C   UNL     1      47.356   4.228  15.891  0.00  0.00    +0.000 A 
ATOM     17  C   UNL     1      47.923   3.073  16.409  0.00  0.00    +0.000 A 
ATOM     18  C   UNL     1      48.300   3.330  17.749  0.00  0.00    +0.000 A 
ATOM     19  C   UNL     1      47.967   4.635  18.024  0.00  0.00    +0.000 A 
ATOM     20  N   UNL     1      47.405   5.170  16.896  0.00  0.00    +0.000 N 
ATOM     21  H   UNL     1      47.064   6.119  16.790  0.00  0.00    +0.000 HD
ENDBRANCH  13  16
ENDBRANCH  11  12
ENDBRANCH   8  11
ENDBRANCH   2   5
BRANCH   1  22
ATOM     22  C   UNL     1      50.047   9.350  16.283  0.00  0.00    +0.000 C 
BRANCH  22  23
ATOM     23  C   UNL     1      51.323   8.881  16.937  0.00  0.00    +0.000 A 
ATOM     24  C   UNL     1      52.290   9.735  17.444  0.00  0.00    +0.000 A 
ATOM     25  S   UNL     1      53.622   8.907  18.126  0.00  0.00    +0.000 S 
ATOM     26  C   UNL     1      52.951   7.387  17.756  0.00  0.00    +0.000 A 
ATOM     27  N   UNL     1      53.573   6.227  18.093  0.00  0.00    +0.000 NA
ATOM     28  C   UNL     1      52.924   5.159  17.762  0.00  0.00    +0.000 A 
ATOM     29  N   UNL     1      51.721   5.142  17.099  0.00  0.00    +0.000 N 
ATOM     30  C   UNL     1      51.114   6.286  16.643  0.00  0.00    +0.000 A 
ATOM     31  O   UNL     1      50.155   6.271  15.876  0.00  0.00    +0.000 OA
ATOM     32  C   UNL     1      51.751   7.511  17.088  0.00  0.00    +0.000 A 
ATOM     33  H   UNL     1      51.296   4.267  16.827  0.00  0.00    +0.000 HD
ENDBRANCH  22  23
BRANCH  22  35
ATOM     34  N   UNL     1      47.910   8.260  17.400  0.00  0.00    +0.000 NA
ATOM     35  C   UNL     1      48.852   8.732  16.909  0.00  0.00    +0.000 C 
ENDBRANCH  22  35
ENDBRANCH   1  22
TORSDOF 7
ENDMDL
MODEL 9
REMARK VINA RESULT:    -5.591      4.126      6.530
REMARK INTER + INTRA:          -8.814
REMARK INTER:                  -7.221
REMARK INTRA:                  -1.592
REMARK UNBOUND:                -0.934
REMARK  Name = 
REMARK  7 active torsions:
REMARK  status: ('A' for Active; 'I' for Inactive)
REMARK    1  A    between atoms: C_2  and  C_3
REMARK    2  A    between atoms: C_3  and  N_4
REMARK    3  A    between atoms: C_3  and  C_22
REMARK    4  A    between atoms: C_5  and  C_7
REMARK    5  A    between atoms: C_10  and  C_11
REMARK    6  A    between atoms: C_11  and  N_12
REMARK    7  A    between atoms: C_13  and  C_15
REMARK                            x       y       z     vdW  Elec       q    Type
REMARK                         _______ _______ _______ _____ _____    ______ ____
ROOT
ATOM      1  N   UNL     1      49.588   9.153  15.313  0.00  0.00    +0.000 N 
ATOM      2  C   UNL     1      49.789   8.592  14.085  0.00  0.00    +0.000 C 
ATOM      3  O   UNL     1      50.526   7.619  13.941  0.00  0.00    +0.000 OA
ATOM      4  H   UNL     1      49.060  10.013  15.421  0.00  0.00    +0.000 HD
ENDROOT
BRANCH   2   5
ATOM      5  C   UNL     1      48.989   9.193  12.917  0.00  0.00    +0.000 C 
ATOM      6  C   UNL     1      48.985   8.371  11.625  0.00  0.00    +0.000 C 
ATOM      7  C   UNL     1      48.342   7.004  11.834  0.00  0.00    +0.000 C 
ATOM      8  C   UNL     1      46.916   7.106  12.407  0.00  0.00    +0.000 C 
ATOM      9  C   UNL     1      46.821   8.079  13.596  0.00  0.00    +0.000 C 
ATOM     10  C   UNL     1      47.530   9.412  13.347  0.00  0.00    +0.000 C 
BRANCH   8  11
ATOM     11  C   UNL     1      46.406   5.723  12.848  0.00  0.00    +0.000 C 
BRANCH  11  12
ATOM     12  N   UNL     1      46.725   5.439  14.227  0.00  0.00    +0.000 N 
ATOM     13  C   UNL     1      47.134   4.201  14.657  0.00  0.00    +0.000 C 
ATOM     14  O   UNL     1      47.187   3.223  13.919  0.00  0.00    +0.000 OA
ATOM     15  H   UNL     1      46.763   6.215  14.871  0.00  0.00    +0.000 HD
BRANCH  13  16
ATOM     16  C   UNL     1      47.515   4.141  16.051  0.00  0.00    +0.000 A 
ATOM     17  C   UNL     1      48.317   3.260  16.763  0.00  0.00    +0.000 A 
ATOM     18  C   UNL     1      48.326   3.670  18.118  0.00  0.00    +0.000 A 
ATOM     19  C   UNL     1      47.541   4.794  18.210  0.00  0.00    +0.000 A 
ATOM     20  N   UNL     1      47.062   5.075  16.958  0.00  0.00    +0.000 N 
ATOM     21  H   UNL     1      46.459   5.850  16.707  0.00  0.00    +0.000 HD
ENDBRANCH  13  16
ENDBRANCH  11  12
ENDBRANCH   8  11
ENDBRANCH   2   5
BRANCH   1  22
ATOM     22  C   UNL     1      50.320   8.721  16.488  0.00  0.00    +0.000 C 
BRANCH  22  23
ATOM     23  C   UNL     1      49.328   8.723  17.625  0.00  0.00    +0.000 A 
ATOM     24  C   UNL     1      48.217   9.548  17.678  0.00  0.00    +0.000 A 
ATOM     25  S   UNL     1      47.280   9.318  19.091  0.00  0.00    +0.000 S 
ATOM     26  C   UNL     1      48.337   8.117  19.675  0.00  0.00    +0.000 A 
ATOM     27  N   UNL     1      48.109   7.469  20.847  0.00  0.00    +0.000 NA
ATOM     28  C   UNL     1      48.990   6.571  21.139  0.00  0.00    +0.000 A 
ATOM     29  N   UNL     1      50.098   6.278  20.381  0.00  0.00    +0.000 N 
ATOM     30  C   UNL     1      50.425   6.984  19.249  0.00  0.00    +0.000 A 
ATOM     31  O   UNL     1      51.509   6.871  18.684  0.00  0.00    +0.000 OA
ATOM     32  C   UNL     1      49.405   7.926  18.826  0.00  0.00    +0.000 A 
ATOM     33  H   UNL     1      50.773   5.597  20.698  0.00  0.00    +0.000 HD
ENDBRANCH  22  23
BRANCH  22  35
ATOM     34  N   UNL     1      52.396  10.276  17.012  0.00  0.00    +0.000 NA
ATOM     35  C   UNL     1      51.483   9.596  16.775  0.00  0.00    +0.000 C 
ENDBRANCH  22  35
ENDBRANCH   1  22
TORSDOF 7
ENDMDL
