MODEL 1
REMARK VINA RESULT:    -7.674      0.000      0.000
REMARK INTER + INTRA:         -12.088
REMARK INTER:                 -10.815
REMARK INTRA:                  -1.273
REMARK UNBOUND:                -1.273
REMARK  Name = 
REMARK  8 active torsions:
REMARK  status: ('A' for Active; 'I' for Inactive)
REMARK    1  A    between atoms: C_1  and  O_2
REMARK    2  A    between atoms: O_2  and  C_3
REMARK    3  A    between atoms: C_5  and  C_6
REMARK    4  A    between atoms: C_6  and  N_7
REMARK    5  A    between atoms: C_8  and  C_10
REMARK    6  A    between atoms: C_22  and  C_23
REMARK    7  A    between atoms: C_23  and  N_24
REMARK    8  A    between atoms: C_25  and  C_27
REMARK                            x       y       z     vdW  Elec       q    Type
REMARK                         _______ _______ _______ _____ _____    ______ ____
ROOT
ATOM      1  C   UNL     1      45.555   4.059  12.284  0.00  0.00    +0.000 A 
ATOM      2  C   UNL     1      46.127   3.647  13.512  0.00  0.00    +0.000 A 
ATOM      3  C   UNL     1      46.948   4.507  14.267  0.00  0.00    +0.000 A 
ATOM      4  C   UNL     1      47.219   5.772  13.750  0.00  0.00    +0.000 A 
ATOM      5  C   UNL     1      46.616   6.205  12.560  0.00  0.00    +0.000 A 
ATOM      6  C   UNL     1      45.750   5.375  11.825  0.00  0.00    +0.000 A 
ENDROOT
BRANCH   1   8
ATOM      7  C   UNL     1      43.463   2.921  12.192  0.00  0.00    +0.000 C 
ATOM      8  O   UNL     1      44.780   3.100  11.676  0.00  0.00    +0.000 OA
ENDBRANCH   1   8
BRANCH   3   9
ATOM      9  C   UNL     1      47.562   4.087  15.586  0.00  0.00    +0.000 C 
BRANCH   9  10
ATOM     10  N   UNL     1      47.483   5.145  16.565  0.00  0.00    +0.000 N 
ATOM     11  C   UNL     1      48.599   5.752  17.079  0.00  0.00    +0.000 C 
ATOM     12  O   UNL     1      49.735   5.445  16.729  0.00  0.00    +0.000 OA
ATOM     13  H   UNL     1      46.607   5.228  17.069  0.00  0.00    +0.000 HD
BRANCH  11  14
ATOM     14  C   UNL     1      48.362   6.850  18.031  0.00  0.00    +0.000 A 
ATOM     15  C   UNL     1      48.244   6.582  19.386  0.00  0.00    +0.000 A 
ATOM     16  S   UNL     1      48.034   7.981  20.342  0.00  0.00    +0.000 S 
ATOM     17  C   UNL     1      48.036   8.991  18.970  0.00  0.00    +0.000 A 
ATOM     18  N   UNL     1      47.863  10.331  19.092  0.00  0.00    +0.000 NA
ATOM     19  C   UNL     1      47.869  10.975  17.972  0.00  0.00    +0.000 A 
ATOM     20  N   UNL     1      48.043  10.384  16.737  0.00  0.00    +0.000 N 
ATOM     21  C   UNL     1      48.233   9.041  16.571  0.00  0.00    +0.000 A 
ATOM     22  O   UNL     1      48.415   8.558  15.461  0.00  0.00    +0.000 OA
ATOM     23  C   UNL     1      48.223   8.274  17.807  0.00  0.00    +0.000 A 
ATOM     24  H   UNL     1      48.046  10.943  15.900  0.00  0.00    +0.000 HD
ENDBRANCH  11  14
ENDBRANCH   9  10
ENDBRANCH   3   9
BRANCH   6  25
ATOM     25  C   UNL     1      45.073   5.983  10.615  0.00  0.00    +0.000 C 
BRANCH  25  26
ATOM     26  N   UNL     1      44.775   4.999   9.596  0.00  0.00    +0.000 N 
ATOM     27  C   UNL     1      45.615   4.737   8.534  0.00  0.00    +0.000 C 
ATOM     28  O   UNL     1      46.704   5.284   8.393  0.00  0.00    +0.000 OA
ATOM     29  H   UNL     1      44.009   4.347   9.748  0.00  0.00    +0.000 HD
BRANCH  27  30
ATOM     30  C   UNL     1      45.062   3.656   7.562  0.00  0.00    +0.000 C 
ATOM     31  C   UNL     1      44.588   2.387   8.279  0.00  0.00    +0.000 C 
ATOM     32  C   UNL     1      45.775   1.590   8.814  0.00  0.00    +0.000 C 
ATOM     33  C   UNL     1      46.780   1.333   7.697  0.00  0.00    +0.000 C 
ATOM     34  C   UNL     1      47.136   2.623   6.973  0.00  0.00    +0.000 C 
ATOM     35  O   UNL     1      45.972   3.311   6.510  0.00  0.00    +0.000 OA
ENDBRANCH  27  30
ENDBRANCH  25  26
ENDBRANCH   6  25
TORSDOF 7
ENDMDL
MODEL 2
REMARK VINA RESULT:    -7.018      1.263      1.275
REMARK INTER + INTRA:         -11.163
REMARK INTER:                 -10.010
REMARK INTRA:                  -1.153
REMARK UNBOUND:                -1.273
REMARK  Name = 
REMARK  8 active torsions:
REMARK  status: ('A' for Active; 'I' for Inactive)
REMARK    1  A    between atoms: C_1  and  O_2
REMARK    2  A    between atoms: O_2  and  C_3
REMARK    3  A    between atoms: C_5  and  C_6
REMARK    4  A    between atoms: C_6  and  N_7
REMARK    5  A    between atoms: C_8  and  C_10
REMARK    6  A    between atoms: C_22  and  C_23
REMARK    7  A    between atoms: C_23  and  N_24
REMARK    8  A    between atoms: C_25  and  C_27
REMARK                            x       y       z     vdW  Elec       q    Type
REMARK                         _______ _______ _______ _____ _____    ______ ____
ROOT
ATOM      1  C   UNL     1      45.528   4.005  12.274  0.00  0.00    +0.000 A 
ATOM      2  C   UNL     1      46.073   3.573  13.507  0.00  0.00    +0.000 A 
ATOM      3  C   UNL     1      46.904   4.409  14.277  0.00  0.00    +0.000 A 
ATOM      4  C   UNL     1      47.210   5.670  13.772  0.00  0.00    +0.000 A 
ATOM      5  C   UNL     1      46.634   6.124  12.577  0.00  0.00    +0.000 A 
ATOM      6  C   UNL     1      45.759   5.319  11.825  0.00  0.00    +0.000 A 
ENDROOT
BRANCH   1   8
ATOM      7  C   UNL     1      43.400   2.942  12.123  0.00  0.00    +0.000 C 
ATOM      8  O   UNL     1      44.739   3.068  11.649  0.00  0.00    +0.000 OA
ENDBRANCH   1   8
BRANCH   3   9
ATOM      9  C   UNL     1      47.490   3.968  15.602  0.00  0.00    +0.000 C 
BRANCH   9  10
ATOM     10  N   UNL     1      47.620   5.076  16.518  0.00  0.00    +0.000 N 
ATOM     11  C   UNL     1      48.409   5.014  17.636  0.00  0.00    +0.000 C 
ATOM     12  O   UNL     1      49.067   4.018  17.923  0.00  0.00    +0.000 OA
ATOM     13  H   UNL     1      46.898   5.788  16.468  0.00  0.00    +0.000 HD
BRANCH  11  14
ATOM     14  C   UNL     1      48.483   6.240  18.448  0.00  0.00    +0.000 A 
ATOM     15  C   UNL     1      47.623   6.416  19.521  0.00  0.00    +0.000 A 
ATOM     16  S   UNL     1      47.895   7.866  20.383  0.00  0.00    +0.000 S 
ATOM     17  C   UNL     1      49.137   8.336  19.315  0.00  0.00    +0.000 A 
ATOM     18  N   UNL     1      49.780   9.520  19.474  0.00  0.00    +0.000 NA
ATOM     19  C   UNL     1      50.687   9.759  18.586  0.00  0.00    +0.000 A 
ATOM     20  N   UNL     1      51.009   8.902  17.554  0.00  0.00    +0.000 N 
ATOM     21  C   UNL     1      50.395   7.696  17.365  0.00  0.00    +0.000 A 
ATOM     22  O   UNL     1      50.729   6.949  16.455  0.00  0.00    +0.000 OA
ATOM     23  C   UNL     1      49.358   7.388  18.337  0.00  0.00    +0.000 A 
ATOM     24  H   UNL     1      51.733   9.144  16.897  0.00  0.00    +0.000 HD
ENDBRANCH  11  14
ENDBRANCH   9  10
ENDBRANCH   3   9
BRANCH   6  25
ATOM     25  C   UNL     1      45.112   5.949  10.610  0.00  0.00    +0.000 C 
BRANCH  25  26
ATOM     26  N   UNL     1      44.802   4.978   9.583  0.00  0.00    +0.000 N 
ATOM     27  C   UNL     1      45.644   4.706   8.524  0.00  0.00    +0.000 C 
ATOM     28  O   UNL     1      46.744   5.234   8.394  0.00  0.00    +0.000 OA
ATOM     29  H   UNL     1      44.023   4.339   9.726  0.00  0.00    +0.000 HD
BRANCH  27  30
ATOM     30  C   UNL     1      45.076   3.643   7.542  0.00  0.00    +0.000 C 
ATOM     31  C   UNL     1      44.594   2.369   8.245  0.00  0.00    +0.000 C 
ATOM     32  C   UNL     1      45.777   1.555   8.764  0.00  0.00    +0.000 C 
ATOM     33  C   UNL     1      46.775   1.303   7.639  0.00  0.00    +0.000 C 
ATOM     34  C   UNL     1      47.138   2.599   6.930  0.00  0.00    +0.000 C 
ATOM     35  O   UNL     1      45.978   3.303   6.481  0.00  0.00    +0.000 OA
ENDBRANCH  27  30
ENDBRANCH  25  26
ENDBRANCH   6  25
TORSDOF 7
ENDMDL
MODEL 3
REMARK VINA RESULT:    -6.986      4.028      5.993
REMARK INTER + INTRA:         -11.118
REMARK INTER:                 -10.143
REMARK INTRA:                  -0.975
REMARK UNBOUND:                -1.273
REMARK  Name = 
REMARK  8 active torsions:
REMARK  status: ('A' for Active; 'I' for Inactive)
REMARK    1  A    between atoms: C_1  and  O_2
REMARK    2  A    between atoms: O_2  and  C_3
REMARK    3  A    between atoms: C_5  and  C_6
REMARK    4  A    between atoms: C_6  and  N_7
REMARK    5  A    between atoms: C_8  and  C_10
REMARK    6  A    between atoms: C_22  and  C_23
REMARK    7  A    between atoms: C_23  and  N_24
REMARK    8  A    between atoms: C_25  and  C_27
REMARK                            x       y       z     vdW  Elec       q    Type
REMARK                         _______ _______ _______ _____ _____    ______ ____
ROOT
ATOM      1  C   UNL     1      48.599   6.366  15.521  0.00  0.00    +0.000 A 
ATOM      2  C   UNL     1      48.734   5.477  16.614  0.00  0.00    +0.000 A 
ATOM      3  C   UNL     1      48.069   4.236  16.640  0.00  0.00    +0.000 A 
ATOM      4  C   UNL     1      47.236   3.919  15.569  0.00  0.00    +0.000 A 
ATOM      5  C   UNL     1      47.137   4.771  14.460  0.00  0.00    +0.000 A 
ATOM      6  C   UNL     1      47.839   5.989  14.398  0.00  0.00    +0.000 A 
ENDROOT
BRANCH   1   8
ATOM      7  C   UNL     1      50.663   7.511  15.193  0.00  0.00    +0.000 C 
ATOM      8  O   UNL     1      49.314   7.532  15.654  0.00  0.00    +0.000 OA
ENDBRANCH   1   8
BRANCH   3   9
ATOM      9  C   UNL     1      48.206   3.268  17.796  0.00  0.00    +0.000 C 
BRANCH   9  10
ATOM     10  N   UNL     1      49.590   2.941  18.050  0.00  0.00    +0.000 N 
ATOM     11  C   UNL     1      50.322   2.149  17.206  0.00  0.00    +0.000 C 
ATOM     12  O   UNL     1      49.853   1.678  16.173  0.00  0.00    +0.000 OA
ATOM     13  H   UNL     1      49.916   3.073  19.002  0.00  0.00    +0.000 HD
BRANCH  11  14
ATOM     14  C   UNL     1      51.734   1.944  17.568  0.00  0.00    +0.000 A 
ATOM     15  C   UNL     1      52.231   0.660  17.734  0.00  0.00    +0.000 A 
ATOM     16  S   UNL     1      53.900   0.615  18.091  0.00  0.00    +0.000 S 
ATOM     17  C   UNL     1      54.006   2.316  18.091  0.00  0.00    +0.000 A 
ATOM     18  N   UNL     1      55.179   2.940  18.365  0.00  0.00    +0.000 NA
ATOM     19  C   UNL     1      55.114   4.230  18.349  0.00  0.00    +0.000 A 
ATOM     20  N   UNL     1      53.969   4.947  18.072  0.00  0.00    +0.000 N 
ATOM     21  C   UNL     1      52.771   4.358  17.779  0.00  0.00    +0.000 A 
ATOM     22  O   UNL     1      51.783   5.029  17.508  0.00  0.00    +0.000 OA
ATOM     23  C   UNL     1      52.794   2.904  17.796  0.00  0.00    +0.000 A 
ATOM     24  H   UNL     1      53.986   5.954  18.067  0.00  0.00    +0.000 HD
ENDBRANCH  11  14
ENDBRANCH   9  10
ENDBRANCH   3   9
BRANCH   6  25
ATOM     25  C   UNL     1      47.742   6.776  13.108  0.00  0.00    +0.000 C 
BRANCH  25  26
ATOM     26  N   UNL     1      46.796   6.198  12.178  0.00  0.00    +0.000 N 
ATOM     27  C   UNL     1      45.479   6.598  12.097  0.00  0.00    +0.000 C 
ATOM     28  O   UNL     1      45.014   7.508  12.776  0.00  0.00    +0.000 OA
ATOM     29  H   UNL     1      47.141   5.598  11.431  0.00  0.00    +0.000 HD
BRANCH  27  30
ATOM     30  C   UNL     1      44.658   5.809  11.037  0.00  0.00    +0.000 C 
ATOM     31  C   UNL     1      43.160   5.751  11.355  0.00  0.00    +0.000 C 
ATOM     32  C   UNL     1      42.893   4.832  12.544  0.00  0.00    +0.000 C 
ATOM     33  C   UNL     1      43.529   3.467  12.306  0.00  0.00    +0.000 C 
ATOM     34  C   UNL     1      44.990   3.607  11.907  0.00  0.00    +0.000 C 
ATOM     35  O   UNL     1      45.157   4.487  10.793  0.00  0.00    +0.000 OA
ENDBRANCH  27  30
ENDBRANCH  25  26
ENDBRANCH   6  25
TORSDOF 7
ENDMDL
MODEL 4
REMARK VINA RESULT:    -6.852      3.999      6.147
REMARK INTER + INTRA:         -10.929
REMARK INTER:                  -9.918
REMARK INTRA:                  -1.011
REMARK UNBOUND:                -1.273
REMARK  Name = 
REMARK  8 active torsions:
REMARK  status: ('A' for Active; 'I' for Inactive)
REMARK    1  A    between atoms: C_1  and  O_2
REMARK    2  A    between atoms: O_2  and  C_3
REMARK    3  A    between atoms: C_5  and  C_6
REMARK    4  A    between atoms: C_6  and  N_7
REMARK    5  A    between atoms: C_8  and  C_10
REMARK    6  A    between atoms: C_22  and  C_23
REMARK    7  A    between atoms: C_23  and  N_24
REMARK    8  A    between atoms: C_25  and  C_27
REMARK                            x       y       z     vdW  Elec       q    Type
REMARK                         _______ _______ _______ _____ _____    ______ ____
ROOT
ATOM      1  C   UNL     1      48.291   6.723  14.593  0.00  0.00    +0.000 A 
ATOM      2  C   UNL     1      48.737   6.173  15.818  0.00  0.00    +0.000 A 
ATOM      3  C   UNL     1      48.243   4.944  16.296  0.00  0.00    +0.000 A 
ATOM      4  C   UNL     1      47.266   4.296  15.544  0.00  0.00    +0.000 A 
ATOM      5  C   UNL     1      46.857   4.809  14.304  0.00  0.00    +0.000 A 
ATOM      6  C   UNL     1      47.383   6.008  13.790  0.00  0.00    +0.000 A 
ENDROOT
BRANCH   1   8
ATOM      7  C   UNL     1      50.299   7.963  14.256  0.00  0.00    +0.000 C 
ATOM      8  O   UNL     1      48.873   7.927  14.273  0.00  0.00    +0.000 OA
ENDBRANCH   1   8
BRANCH   3   9
ATOM      9  C   UNL     1      48.714   4.335  17.601  0.00  0.00    +0.000 C 
BRANCH   9  10
ATOM     10  N   UNL     1      50.109   3.970  17.541  0.00  0.00    +0.000 N 
ATOM     11  C   UNL     1      50.967   4.179  18.588  0.00  0.00    +0.000 C 
ATOM     12  O   UNL     1      50.601   4.678  19.649  0.00  0.00    +0.000 OA
ATOM     13  H   UNL     1      50.496   3.822  16.614  0.00  0.00    +0.000 HD
BRANCH  11  14
ATOM     14  C   UNL     1      52.349   3.708  18.400  0.00  0.00    +0.000 A 
ATOM     15  C   UNL     1      53.415   4.550  18.682  0.00  0.00    +0.000 A 
ATOM     16  S   UNL     1      54.941   3.814  18.465  0.00  0.00    +0.000 S 
ATOM     17  C   UNL     1      54.230   2.361  17.931  0.00  0.00    +0.000 A 
ATOM     18  N   UNL     1      54.998   1.310  17.548  0.00  0.00    +0.000 NA
ATOM     19  C   UNL     1      54.331   0.278  17.150  0.00  0.00    +0.000 A 
ATOM     20  N   UNL     1      52.953   0.210  17.112  0.00  0.00    +0.000 N 
ATOM     21  C   UNL     1      52.144   1.240  17.499  0.00  0.00    +0.000 A 
ATOM     22  O   UNL     1      50.924   1.131  17.480  0.00  0.00    +0.000 OA
ATOM     23  C   UNL     1      52.852   2.428  17.947  0.00  0.00    +0.000 A 
ATOM     24  H   UNL     1      52.492  -0.629  16.798  0.00  0.00    +0.000 HD
ENDBRANCH  11  14
ENDBRANCH   9  10
ENDBRANCH   3   9
BRANCH   6  25
ATOM     25  C   UNL     1      46.949   6.411  12.397  0.00  0.00    +0.000 C 
BRANCH  25  26
ATOM     26  N   UNL     1      45.601   5.979  12.092  0.00  0.00    +0.000 N 
ATOM     27  C   UNL     1      45.188   5.645  10.819  0.00  0.00    +0.000 C 
ATOM     28  O   UNL     1      45.942   5.642   9.851  0.00  0.00    +0.000 OA
ATOM     29  H   UNL     1      44.974   5.741  12.857  0.00  0.00    +0.000 HD
BRANCH  27  30
ATOM     30  C   UNL     1      43.689   5.237  10.745  0.00  0.00    +0.000 C 
ATOM     31  C   UNL     1      43.033   5.097  12.123  0.00  0.00    +0.000 C 
ATOM     32  C   UNL     1      43.547   3.854  12.845  0.00  0.00    +0.000 C 
ATOM     33  C   UNL     1      43.387   2.627  11.955  0.00  0.00    +0.000 C 
ATOM     34  C   UNL     1      43.980   2.870  10.576  0.00  0.00    +0.000 C 
ATOM     35  O   UNL     1      43.454   4.054   9.971  0.00  0.00    +0.000 OA
ENDBRANCH  27  30
ENDBRANCH  25  26
ENDBRANCH   6  25
TORSDOF 7
ENDMDL
MODEL 5
REMARK VINA RESULT:    -6.833      5.472      7.790
REMARK INTER + INTRA:         -10.903
REMARK INTER:                 -10.016
REMARK INTRA:                  -0.887
REMARK UNBOUND:                -1.273
REMARK  Name = 
REMARK  8 active torsions:
REMARK  status: ('A' for Active; 'I' for Inactive)
REMARK    1  A    between atoms: C_1  and  O_2
REMARK    2  A    between atoms: O_2  and  C_3
REMARK    3  A    between atoms: C_5  and  C_6
REMARK    4  A    between atoms: C_6  and  N_7
REMARK    5  A    between atoms: C_8  and  C_10
REMARK    6  A    between atoms: C_22  and  C_23
REMARK    7  A    between atoms: C_23  and  N_24
REMARK    8  A    between atoms: C_25  and  C_27
REMARK                            x       y       z     vdW  Elec       q    Type
REMARK                         _______ _______ _______ _____ _____    ______ ____
ROOT
ATOM      1  C   UNL     1      48.141   6.261  13.828  0.00  0.00    +0.000 A 
ATOM      2  C   UNL     1      49.264   6.979  13.351  0.00  0.00    +0.000 A 
ATOM      3  C   UNL     1      49.291   7.524  12.052  0.00  0.00    +0.000 A 
ATOM      4  C   UNL     1      48.191   7.302  11.227  0.00  0.00    +0.000 A 
ATOM      5  C   UNL     1      47.055   6.636  11.709  0.00  0.00    +0.000 A 
ATOM      6  C   UNL     1      46.993   6.134  13.022  0.00  0.00    +0.000 A 
ENDROOT
BRANCH   1   8
ATOM      7  C   UNL     1      49.018   6.618  16.015  0.00  0.00    +0.000 C 
ATOM      8  O   UNL     1      48.276   5.797  15.115  0.00  0.00    +0.000 OA
ENDBRANCH   1   8
BRANCH   3   9
ATOM      9  C   UNL     1      50.480   8.302  11.527  0.00  0.00    +0.000 C 
BRANCH   9  10
ATOM     10  N   UNL     1      51.553   7.422  11.129  0.00  0.00    +0.000 N 
ATOM     11  C   UNL     1      52.431   7.744  10.128  0.00  0.00    +0.000 C 
ATOM     12  O   UNL     1      52.371   8.807   9.516  0.00  0.00    +0.000 OA
ATOM     13  H   UNL     1      51.465   6.451  11.407  0.00  0.00    +0.000 HD
BRANCH  11  14
ATOM     14  C   UNL     1      53.505   6.771   9.867  0.00  0.00    +0.000 A 
ATOM     15  C   UNL     1      54.504   6.569  10.807  0.00  0.00    +0.000 A 
ATOM     16  S   UNL     1      55.626   5.362  10.360  0.00  0.00    +0.000 S 
ATOM     17  C   UNL     1      54.848   5.108   8.866  0.00  0.00    +0.000 A 
ATOM     18  N   UNL     1      55.331   4.208   7.973  0.00  0.00    +0.000 NA
ATOM     19  C   UNL     1      54.655   4.127   6.876  0.00  0.00    +0.000 A 
ATOM     20  N   UNL     1      53.526   4.871   6.603  0.00  0.00    +0.000 N 
ATOM     21  C   UNL     1      52.999   5.778   7.478  0.00  0.00    +0.000 A 
ATOM     22  O   UNL     1      51.976   6.397   7.213  0.00  0.00    +0.000 OA
ATOM     23  C   UNL     1      53.734   5.910   8.726  0.00  0.00    +0.000 A 
ATOM     24  H   UNL     1      53.038   4.756   5.730  0.00  0.00    +0.000 HD
ENDBRANCH  11  14
ENDBRANCH   9  10
ENDBRANCH   3   9
BRANCH   6  25
ATOM     25  C   UNL     1      45.680   5.529  13.469  0.00  0.00    +0.000 C 
BRANCH  25  26
ATOM     26  N   UNL     1      44.866   5.092  12.354  0.00  0.00    +0.000 N 
ATOM     27  C   UNL     1      44.847   3.789  11.901  0.00  0.00    +0.000 C 
ATOM     28  O   UNL     1      45.484   2.887  12.435  0.00  0.00    +0.000 OA
ATOM     29  H   UNL     1      44.146   5.714  11.994  0.00  0.00    +0.000 HD
BRANCH  27  30
ATOM     30  C   UNL     1      43.912   3.576  10.676  0.00  0.00    +0.000 C 
ATOM     31  C   UNL     1      44.130   2.229   9.979  0.00  0.00    +0.000 C 
ATOM     32  C   UNL     1      45.458   2.216   9.226  0.00  0.00    +0.000 C 
ATOM     33  C   UNL     1      45.544   3.418   8.293  0.00  0.00    +0.000 C 
ATOM     34  C   UNL     1      45.228   4.709   9.033  0.00  0.00    +0.000 C 
ATOM     35  O   UNL     1      43.974   4.638   9.716  0.00  0.00    +0.000 OA
ENDBRANCH  27  30
ENDBRANCH  25  26
ENDBRANCH   6  25
TORSDOF 7
ENDMDL
MODEL 6
REMARK VINA RESULT:    -6.726      3.253      5.369
REMARK INTER + INTRA:         -10.752
REMARK INTER:                  -9.642
REMARK INTRA:                  -1.110
REMARK UNBOUND:                -1.273
REMARK  Name = 
REMARK  8 active torsions:
REMARK  status: ('A' for Active; 'I' for Inactive)
REMARK    1  A    between atoms: C_1  and  O_2
REMARK    2  A    between atoms: O_2  and  C_3
REMARK    3  A    between atoms: C_5  and  C_6
REMARK    4  A    between atoms: C_6  and  N_7
REMARK    5  A    between atoms: C_8  and  C_10
REMARK    6  A    between atoms: C_22  and  C_23
REMARK    7  A    between atoms: C_23  and  N_24
REMARK    8  A    between atoms: C_25  and  C_27
REMARK                            x       y       z     vdW  Elec       q    Type
REMARK                         _______ _______ _______ _____ _____    ______ ____
ROOT
ATOM      1  C   UNL     1      48.065   6.502  14.175  0.00  0.00    +0.000 A 
ATOM      2  C   UNL     1      48.600   6.590  15.482  0.00  0.00    +0.000 A 
ATOM      3  C   UNL     1      48.906   7.833  16.070  0.00  0.00    +0.000 A 
ATOM      4  C   UNL     1      48.704   8.982  15.310  0.00  0.00    +0.000 A 
ATOM      5  C   UNL     1      48.128   8.907  14.033  0.00  0.00    +0.000 A 
ATOM      6  C   UNL     1      47.767   7.675  13.457  0.00  0.00    +0.000 A 
ENDROOT
BRANCH   1   8
ATOM      7  C   UNL     1      47.007   4.409  14.599  0.00  0.00    +0.000 C 
ATOM      8  O   UNL     1      47.823   5.217  13.753  0.00  0.00    +0.000 OA
ENDBRANCH   1   8
BRANCH   3   9
ATOM      9  C   UNL     1      49.471   7.948  17.471  0.00  0.00    +0.000 C 
BRANCH   9  10
ATOM     10  N   UNL     1      50.446   6.917  17.733  0.00  0.00    +0.000 N 
ATOM     11  C   UNL     1      50.197   5.873  18.585  0.00  0.00    +0.000 C 
ATOM     12  O   UNL     1      49.124   5.741  19.168  0.00  0.00    +0.000 OA
ATOM     13  H   UNL     1      51.409   7.137  17.499  0.00  0.00    +0.000 HD
BRANCH  11  14
ATOM     14  C   UNL     1      51.267   4.869  18.715  0.00  0.00    +0.000 A 
ATOM     15  C   UNL     1      52.407   5.160  19.447  0.00  0.00    +0.000 A 
ATOM     16  S   UNL     1      53.509   3.858  19.540  0.00  0.00    +0.000 S 
ATOM     17  C   UNL     1      52.523   2.878  18.553  0.00  0.00    +0.000 A 
ATOM     18  N   UNL     1      52.910   1.623  18.211  0.00  0.00    +0.000 NA
ATOM     19  C   UNL     1      52.077   0.997  17.447  0.00  0.00    +0.000 A 
ATOM     20  N   UNL     1      50.883   1.524  17.003  0.00  0.00    +0.000 N 
ATOM     21  C   UNL     1      50.451   2.778  17.333  0.00  0.00    +0.000 A 
ATOM     22  O   UNL     1      49.369   3.200  16.945  0.00  0.00    +0.000 OA
ATOM     23  C   UNL     1      51.362   3.525  18.186  0.00  0.00    +0.000 A 
ATOM     24  H   UNL     1      50.273   0.981  16.415  0.00  0.00    +0.000 HD
ENDBRANCH  11  14
ENDBRANCH   9  10
ENDBRANCH   3   9
BRANCH   6  25
ATOM     25  C   UNL     1      47.055   7.721  12.122  0.00  0.00    +0.000 C 
BRANCH  25  26
ATOM     26  N   UNL     1      45.711   7.188  12.194  0.00  0.00    +0.000 N 
ATOM     27  C   UNL     1      45.207   6.289  11.278  0.00  0.00    +0.000 C 
ATOM     28  O   UNL     1      45.873   5.834  10.353  0.00  0.00    +0.000 OA
ATOM     29  H   UNL     1      45.166   7.335  13.041  0.00  0.00    +0.000 HD
BRANCH  27  30
ATOM     30  C   UNL     1      43.731   5.885  11.557  0.00  0.00    +0.000 C 
ATOM     31  C   UNL     1      43.549   5.151  12.890  0.00  0.00    +0.000 C 
ATOM     32  C   UNL     1      44.135   3.743  12.818  0.00  0.00    +0.000 C 
ATOM     33  C   UNL     1      43.564   2.998  11.617  0.00  0.00    +0.000 C 
ATOM     34  C   UNL     1      43.699   3.824  10.347  0.00  0.00    +0.000 C 
ATOM     35  O   UNL     1      43.133   5.128  10.497  0.00  0.00    +0.000 OA
ENDBRANCH  27  30
ENDBRANCH  25  26
ENDBRANCH   6  25
TORSDOF 7
ENDMDL
MODEL 7
REMARK VINA RESULT:    -6.642      3.059      9.120
REMARK INTER + INTRA:         -10.633
REMARK INTER:                  -9.755
REMARK INTRA:                  -0.878
REMARK UNBOUND:                -1.273
REMARK  Name = 
REMARK  8 active torsions:
REMARK  status: ('A' for Active; 'I' for Inactive)
REMARK    1  A    between atoms: C_1  and  O_2
REMARK    2  A    between atoms: O_2  and  C_3
REMARK    3  A    between atoms: C_5  and  C_6
REMARK    4  A    between atoms: C_6  and  N_7
REMARK    5  A    between atoms: C_8  and  C_10
REMARK    6  A    between atoms: C_22  and  C_23
REMARK    7  A    between atoms: C_23  and  N_24
REMARK    8  A    between atoms: C_25  and  C_27
REMARK                            x       y       z     vdW  Elec       q    Type
REMARK                         _______ _______ _______ _____ _____    ______ ____
ROOT
ATOM      1  C   UNL     1      49.532   8.973  14.823  0.00  0.00    +0.000 A 
ATOM      2  C   UNL     1      48.775   9.001  13.627  0.00  0.00    +0.000 A 
ATOM      3  C   UNL     1      48.093   7.860  13.161  0.00  0.00    +0.000 A 
ATOM      4  C   UNL     1      48.215   6.682  13.894  0.00  0.00    +0.000 A 
ATOM      5  C   UNL     1      48.920   6.660  15.106  0.00  0.00    +0.000 A 
ATOM      6  C   UNL     1      49.561   7.806  15.610  0.00  0.00    +0.000 A 
ENDROOT
BRANCH   1   8
ATOM      7  C   UNL     1      49.393  11.352  14.843  0.00  0.00    +0.000 C 
ATOM      8  O   UNL     1      50.133  10.169  15.135  0.00  0.00    +0.000 OA
ENDBRANCH   1   8
BRANCH   3   9
ATOM      9  C   UNL     1      47.273   7.873  11.888  0.00  0.00    +0.000 C 
BRANCH   9  10
ATOM     10  N   UNL     1      46.618   6.604  11.669  0.00  0.00    +0.000 N 
ATOM     11  C   UNL     1      45.255   6.475  11.660  0.00  0.00    +0.000 C 
ATOM     12  O   UNL     1      44.502   7.432  11.822  0.00  0.00    +0.000 OA
ATOM     13  H   UNL     1      47.186   5.775  11.808  0.00  0.00    +0.000 HD
BRANCH  11  14
ATOM     14  C   UNL     1      44.730   5.130  11.373  0.00  0.00    +0.000 A 
ATOM     15  C   UNL     1      43.971   4.462  12.322  0.00  0.00    +0.000 A 
ATOM     16  S   UNL     1      43.399   2.943  11.792  0.00  0.00    +0.000 S 
ATOM     17  C   UNL     1      44.195   3.100  10.294  0.00  0.00    +0.000 A 
ATOM     18  N   UNL     1      44.136   2.110   9.367  0.00  0.00    +0.000 NA
ATOM     19  C   UNL     1      44.797   2.352   8.284  0.00  0.00    +0.000 A 
ATOM     20  N   UNL     1      45.508   3.511   8.050  0.00  0.00    +0.000 N 
ATOM     21  C   UNL     1      45.583   4.536   8.950  0.00  0.00    +0.000 A 
ATOM     22  O   UNL     1      46.199   5.562   8.694  0.00  0.00    +0.000 OA
ATOM     23  C   UNL     1      44.861   4.304  10.191  0.00  0.00    +0.000 A 
ATOM     24  H   UNL     1      45.997   3.642   7.180  0.00  0.00    +0.000 HD
ENDBRANCH  11  14
ENDBRANCH   9  10
ENDBRANCH   3   9
BRANCH   6  25
ATOM     25  C   UNL     1      50.200   7.695  16.977  0.00  0.00    +0.000 C 
BRANCH  25  26
ATOM     26  N   UNL     1      49.716   6.551  17.722  0.00  0.00    +0.000 N 
ATOM     27  C   UNL     1      50.294   5.301  17.641  0.00  0.00    +0.000 C 
ATOM     28  O   UNL     1      51.292   5.069  16.967  0.00  0.00    +0.000 OA
ATOM     29  H   UNL     1      49.039   6.697  18.467  0.00  0.00    +0.000 HD
BRANCH  27  30
ATOM     30  C   UNL     1      49.578   4.233  18.516  0.00  0.00    +0.000 C 
ATOM     31  C   UNL     1      49.480   2.864  17.836  0.00  0.00    +0.000 C 
ATOM     32  C   UNL     1      48.471   2.897  16.691  0.00  0.00    +0.000 C 
ATOM     33  C   UNL     1      47.136   3.441  17.184  0.00  0.00    +0.000 C 
ATOM     34  C   UNL     1      47.321   4.756  17.926  0.00  0.00    +0.000 C 
ATOM     35  O   UNL     1      48.284   4.643  18.977  0.00  0.00    +0.000 OA
ENDBRANCH  27  30
ENDBRANCH  25  26
ENDBRANCH   6  25
TORSDOF 7
ENDMDL
MODEL 8
REMARK VINA RESULT:    -6.566      2.008      3.380
REMARK INTER + INTRA:         -10.526
REMARK INTER:                  -9.541
REMARK INTRA:                  -0.985
REMARK UNBOUND:                -1.273
REMARK  Name = 
REMARK  8 active torsions:
REMARK  status: ('A' for Active; 'I' for Inactive)
REMARK    1  A    between atoms: C_1  and  O_2
REMARK    2  A    between atoms: O_2  and  C_3
REMARK    3  A    between atoms: C_5  and  C_6
REMARK    4  A    between atoms: C_6  and  N_7
REMARK    5  A    between atoms: C_8  and  C_10
REMARK    6  A    between atoms: C_22  and  C_23
REMARK    7  A    between atoms: C_23  and  N_24
REMARK    8  A    between atoms: C_25  and  C_27
REMARK                            x       y       z     vdW  Elec       q    Type
REMARK                         _______ _______ _______ _____ _____    ______ ____
ROOT
ATOM      1  C   UNL     1      45.495   6.869  12.444  0.00  0.00    +0.000 A 
ATOM      2  C   UNL     1      46.797   7.356  12.713  0.00  0.00    +0.000 A 
ATOM      3  C   UNL     1      47.713   6.617  13.486  0.00  0.00    +0.000 A 
ATOM      4  C   UNL     1      47.289   5.402  14.017  0.00  0.00    +0.000 A 
ATOM      5  C   UNL     1      46.020   4.889  13.713  0.00  0.00    +0.000 A 
ATOM      6  C   UNL     1      45.115   5.592  12.897  0.00  0.00    +0.000 A 
ENDROOT
BRANCH   1   8
ATOM      7  C   UNL     1      44.965   9.110  11.828  0.00  0.00    +0.000 C 
ATOM      8  O   UNL     1      44.728   7.712  11.675  0.00  0.00    +0.000 OA
ENDBRANCH   1   8
BRANCH   3   9
ATOM      9  C   UNL     1      49.113   7.118  13.778  0.00  0.00    +0.000 C 
BRANCH   9  10
ATOM     10  N   UNL     1      49.435   6.996  15.180  0.00  0.00    +0.000 N 
ATOM     11  C   UNL     1      48.975   7.882  16.117  0.00  0.00    +0.000 C 
ATOM     12  O   UNL     1      48.248   8.829  15.827  0.00  0.00    +0.000 OA
ATOM     13  H   UNL     1      50.234   6.414  15.409  0.00  0.00    +0.000 HD
BRANCH  11  14
ATOM     14  C   UNL     1      49.344   7.602  17.515  0.00  0.00    +0.000 A 
ATOM     15  C   UNL     1      50.133   8.498  18.219  0.00  0.00    +0.000 A 
ATOM     16  S   UNL     1      50.407   8.038  19.841  0.00  0.00    +0.000 S 
ATOM     17  C   UNL     1      49.527   6.592  19.641  0.00  0.00    +0.000 A 
ATOM     18  N   UNL     1      49.401   5.707  20.661  0.00  0.00    +0.000 NA
ATOM     19  C   UNL     1      48.723   4.647  20.368  0.00  0.00    +0.000 A 
ATOM     20  N   UNL     1      48.154   4.404  19.135  0.00  0.00    +0.000 N 
ATOM     21  C   UNL     1      48.246   5.274  18.086  0.00  0.00    +0.000 A 
ATOM     22  O   UNL     1      47.701   5.038  17.015  0.00  0.00    +0.000 OA
ATOM     23  C   UNL     1      49.010   6.480  18.366  0.00  0.00    +0.000 A 
ATOM     24  H   UNL     1      47.630   3.561  18.973  0.00  0.00    +0.000 HD
ENDBRANCH  11  14
ENDBRANCH   9  10
ENDBRANCH   3   9
BRANCH   6  25
ATOM     25  C   UNL     1      43.816   4.896  12.548  0.00  0.00    +0.000 C 
BRANCH  25  26
ATOM     26  N   UNL     1      43.715   4.591  11.136  0.00  0.00    +0.000 N 
ATOM     27  C   UNL     1      44.415   3.565  10.536  0.00  0.00    +0.000 C 
ATOM     28  O   UNL     1      45.144   2.800  11.159  0.00  0.00    +0.000 OA
ATOM     29  H   UNL     1      42.975   5.025  10.589  0.00  0.00    +0.000 HD
BRANCH  27  30
ATOM     30  C   UNL     1      44.156   3.455   9.006  0.00  0.00    +0.000 C 
ATOM     31  C   UNL     1      44.521   2.083   8.431  0.00  0.00    +0.000 C 
ATOM     32  C   UNL     1      46.036   1.895   8.394  0.00  0.00    +0.000 C 
ATOM     33  C   UNL     1      46.692   3.066   7.671  0.00  0.00    +0.000 C 
ATOM     34  C   UNL     1      46.215   4.394   8.236  0.00  0.00    +0.000 C 
ATOM     35  O   UNL     1      44.788   4.489   8.242  0.00  0.00    +0.000 OA
ENDBRANCH  27  30
ENDBRANCH  25  26
ENDBRANCH   6  25
TORSDOF 7
ENDMDL
MODEL 9
REMARK VINA RESULT:    -6.527      3.822      8.919
REMARK INTER + INTRA:         -10.472
REMARK INTER:                  -9.523
REMARK INTRA:                  -0.949
REMARK UNBOUND:                -1.273
REMARK  Name = 
REMARK  8 active torsions:
REMARK  status: ('A' for Active; 'I' for Inactive)
REMARK    1  A    between atoms: C_1  and  O_2
REMARK    2  A    between atoms: O_2  and  C_3
REMARK    3  A    between atoms: C_5  and  C_6
REMARK    4  A    between atoms: C_6  and  N_7
REMARK    5  A    between atoms: C_8  and  C_10
REMARK    6  A    between atoms: C_22  and  C_23
REMARK    7  A    between atoms: C_23  and  N_24
REMARK    8  A    between atoms: C_25  and  C_27
REMARK                            x       y       z     vdW  Elec       q    Type
REMARK                         _______ _______ _______ _____ _____    ______ ____
ROOT
ATOM      1  C   UNL     1      50.962   7.919  14.587  0.00  0.00    +0.000 A 
ATOM      2  C   UNL     1      50.312   8.201  13.362  0.00  0.00    +0.000 A 
ATOM      3  C   UNL     1      48.948   7.909  13.167  0.00  0.00    +0.000 A 
ATOM      4  C   UNL     1      48.257   7.293  14.208  0.00  0.00    +0.000 A 
ATOM      5  C   UNL     1      48.880   7.057  15.442  0.00  0.00    +0.000 A 
ATOM      6  C   UNL     1      50.227   7.394  15.667  0.00  0.00    +0.000 A 
ENDROOT
BRANCH   1   8
ATOM      7  C   UNL     1      52.832   8.810  13.409  0.00  0.00    +0.000 C 
ATOM      8  O   UNL     1      52.291   8.266  14.611  0.00  0.00    +0.000 OA
ENDBRANCH   1   8
BRANCH   3   9
ATOM      9  C   UNL     1      48.234   8.210  11.866  0.00  0.00    +0.000 C 
BRANCH   9  10
ATOM     10  N   UNL     1      47.524   7.054  11.373  0.00  0.00    +0.000 N 
ATOM     11  C   UNL     1      46.156   6.986  11.356  0.00  0.00    +0.000 C 
ATOM     12  O   UNL     1      45.447   7.909  11.745  0.00  0.00    +0.000 OA
ATOM     13  H   UNL     1      48.057   6.192  11.309  0.00  0.00    +0.000 HD
BRANCH  11  14
ATOM     14  C   UNL     1      45.573   5.765  10.777  0.00  0.00    +0.000 A 
ATOM     15  C   UNL     1      45.747   5.481   9.431  0.00  0.00    +0.000 A 
ATOM     16  S   UNL     1      45.054   3.995   8.952  0.00  0.00    +0.000 S 
ATOM     17  C   UNL     1      44.446   3.707  10.517  0.00  0.00    +0.000 A 
ATOM     18  N   UNL     1      43.713   2.597  10.786  0.00  0.00    +0.000 NA
ATOM     19  C   UNL     1      43.301   2.511  12.007  0.00  0.00    +0.000 A 
ATOM     20  N   UNL     1      43.571   3.445  12.986  0.00  0.00    +0.000 N 
ATOM     21  C   UNL     1      44.314   4.569  12.761  0.00  0.00    +0.000 A 
ATOM     22  O   UNL     1      44.559   5.360  13.663  0.00  0.00    +0.000 OA
ATOM     23  C   UNL     1      44.792   4.713  11.395  0.00  0.00    +0.000 A 
ATOM     24  H   UNL     1      43.227   3.316  13.923  0.00  0.00    +0.000 HD
ENDBRANCH  11  14
ENDBRANCH   9  10
ENDBRANCH   3   9
BRANCH   6  25
ATOM     25  C   UNL     1      50.764   7.194  17.069  0.00  0.00    +0.000 C 
BRANCH  25  26
ATOM     26  N   UNL     1      50.083   6.128  17.773  0.00  0.00    +0.000 N 
ATOM     27  C   UNL     1      50.468   4.806  17.692  0.00  0.00    +0.000 C 
ATOM     28  O   UNL     1      51.446   4.433  17.052  0.00  0.00    +0.000 OA
ATOM     29  H   UNL     1      49.406   6.366  18.495  0.00  0.00    +0.000 HD
BRANCH  27  30
ATOM     30  C   UNL     1      49.564   3.849  18.520  0.00  0.00    +0.000 C 
ATOM     31  C   UNL     1      49.216   2.555  17.777  0.00  0.00    +0.000 C 
ATOM     32  C   UNL     1      48.234   2.829  16.641  0.00  0.00    +0.000 C 
ATOM     33  C   UNL     1      47.021   3.587  17.168  0.00  0.00    +0.000 C 
ATOM     34  C   UNL     1      47.445   4.808  17.970  0.00  0.00    +0.000 C 
ATOM     35  O   UNL     1      48.368   4.468  19.008  0.00  0.00    +0.000 OA
ENDBRANCH  27  30
ENDBRANCH  25  26
ENDBRANCH   6  25
TORSDOF 7
ENDMDL
