MODEL 1
REMARK VINA RESULT:    -8.918      0.000      0.000
REMARK INTER + INTRA:         -13.035
REMARK INTER:                 -12.307
REMARK INTRA:                  -0.728
REMARK UNBOUND:                -0.728
REMARK  Name = 
REMARK  7 active torsions:
REMARK  status: ('A' for Active; 'I' for Inactive)
REMARK    1  A    between atoms: N_1  and  C_2
REMARK    2  A    between atoms: C_2  and  C_3
REMARK    3  A    between atoms: C_3  and  N_4
REMARK    4  A    between atoms: C_3  and  C_17
REMARK    5  A    between atoms: C_5  and  C_7
REMARK    6  A    between atoms: C_20  and  C_21
REMARK    7  A    between atoms: C_21  and  C_22
REMARK                            x       y       z     vdW  Elec       q    Type
REMARK                         _______ _______ _______ _____ _____    ______ ____
ROOT
ATOM      1  C   UNL     1      44.202   4.401  13.055  0.00  0.00    +0.000 C 
ENDROOT
BRANCH   1   2
ATOM      2  C   UNL     1      44.508   4.149  11.583  0.00  0.00    +0.000 A 
ATOM      3  C   UNL     1      44.047   2.972  10.974  0.00  0.00    +0.000 A 
ATOM      4  C   UNL     1      44.201   2.773   9.600  0.00  0.00    +0.000 A 
ATOM      5  C   UNL     1      44.846   3.732   8.807  0.00  0.00    +0.000 A 
ATOM      6  C   UNL     1      45.376   4.870   9.424  0.00  0.00    +0.000 A 
ATOM      7  C   UNL     1      45.222   5.067  10.796  0.00  0.00    +0.000 A 
BRANCH   5   8
ATOM      8  C   UNL     1      44.887   3.596   7.301  0.00  0.00    +0.000 C 
BRANCH   8   9
ATOM      9  C   UNL     1      46.169   2.951   6.826  0.00  0.00    +0.000 A 
ATOM     10  C   UNL     1      46.707   3.258   5.572  0.00  0.00    +0.000 A 
ATOM     11  C   UNL     1      47.815   2.550   5.132  0.00  0.00    +0.000 A 
ATOM     12  N   UNL     1      48.424   1.582   5.849  0.00  0.00    +0.000 NA
ATOM     13  C   UNL     1      47.895   1.307   7.060  0.00  0.00    +0.000 A 
ATOM     14  C   UNL     1      46.791   1.958   7.588  0.00  0.00    +0.000 A 
ENDBRANCH   8   9
ENDBRANCH   5   8
ENDBRANCH   1   2
BRANCH   1  15
ATOM     15  N   UNL     1      45.331   5.089  13.654  0.00  0.00    +0.000 N 
ATOM     16  C   UNL     1      46.471   4.459  14.068  0.00  0.00    +0.000 C 
ATOM     17  O   UNL     1      46.671   3.260  13.885  0.00  0.00    +0.000 OA
ATOM     18  H   UNL     1      45.141   6.032  13.974  0.00  0.00    +0.000 HD
BRANCH  16  19
ATOM     19  C   UNL     1      47.471   5.314  14.717  0.00  0.00    +0.000 A 
ATOM     20  C   UNL     1      48.120   6.317  14.010  0.00  0.00    +0.000 A 
ATOM     21  S   UNL     1      49.230   7.203  14.961  0.00  0.00    +0.000 S 
ATOM     22  C   UNL     1      48.924   6.234  16.329  0.00  0.00    +0.000 A 
ATOM     23  N   UNL     1      49.594   6.428  17.495  0.00  0.00    +0.000 NA
ATOM     24  C   UNL     1      49.286   5.589  18.432  0.00  0.00    +0.000 A 
ATOM     25  N   UNL     1      48.359   4.590  18.311  0.00  0.00    +0.000 N 
ATOM     26  C   UNL     1      47.619   4.395  17.174  0.00  0.00    +0.000 A 
ATOM     27  O   UNL     1      46.728   3.552  17.134  0.00  0.00    +0.000 OA
ATOM     28  C   UNL     1      47.957   5.280  16.074  0.00  0.00    +0.000 A 
ATOM     29  H   UNL     1      48.142   3.986  19.092  0.00  0.00    +0.000 HD
ENDBRANCH  16  19
ENDBRANCH   1  15
BRANCH   1  30
ATOM     30  C   UNL     1      42.864   5.171  13.297  0.00  0.00    +0.000 C 
BRANCH  30  31
ATOM     31  N   UNL     1      42.388   5.906  12.118  0.00  0.00    +0.000 NA
ATOM     32  H   UNL     1      42.577   6.899  12.224  0.00  0.00    +0.000 HD
ATOM     33  H   UNL     1      41.376   5.802  12.040  0.00  0.00    +0.000 HD
ENDBRANCH  30  31
ENDBRANCH   1  30
TORSDOF 7
ENDMDL
MODEL 2
REMARK VINA RESULT:    -8.465      1.541      2.431
REMARK INTER + INTRA:         -12.410
REMARK INTER:                 -11.635
REMARK INTRA:                  -0.775
REMARK UNBOUND:                -0.728
REMARK  Name = 
REMARK  7 active torsions:
REMARK  status: ('A' for Active; 'I' for Inactive)
REMARK    1  A    between atoms: N_1  and  C_2
REMARK    2  A    between atoms: C_2  and  C_3
REMARK    3  A    between atoms: C_3  and  N_4
REMARK    4  A    between atoms: C_3  and  C_17
REMARK    5  A    between atoms: C_5  and  C_7
REMARK    6  A    between atoms: C_20  and  C_21
REMARK    7  A    between atoms: C_21  and  C_22
REMARK                            x       y       z     vdW  Elec       q    Type
REMARK                         _______ _______ _______ _____ _____    ______ ____
ROOT
ATOM      1  C   UNL     1      44.267   4.527  13.099  0.00  0.00    +0.000 C 
ENDROOT
BRANCH   1   2
ATOM      2  C   UNL     1      44.551   4.231  11.630  0.00  0.00    +0.000 A 
ATOM      3  C   UNL     1      44.130   3.012  11.079  0.00  0.00    +0.000 A 
ATOM      4  C   UNL     1      44.263   2.766   9.709  0.00  0.00    +0.000 A 
ATOM      5  C   UNL     1      44.845   3.721   8.865  0.00  0.00    +0.000 A 
ATOM      6  C   UNL     1      45.337   4.905   9.425  0.00  0.00    +0.000 A 
ATOM      7  C   UNL     1      45.205   5.148  10.792  0.00  0.00    +0.000 A 
BRANCH   5   8
ATOM      8  C   UNL     1      44.859   3.529   7.365  0.00  0.00    +0.000 C 
BRANCH   8   9
ATOM      9  C   UNL     1      46.148   2.901   6.887  0.00  0.00    +0.000 A 
ATOM     10  C   UNL     1      46.715   3.267   5.662  0.00  0.00    +0.000 A 
ATOM     11  C   UNL     1      47.830   2.575   5.212  0.00  0.00    +0.000 A 
ATOM     12  N   UNL     1      48.417   1.568   5.893  0.00  0.00    +0.000 NA
ATOM     13  C   UNL     1      47.860   1.236   7.076  0.00  0.00    +0.000 A 
ATOM     14  C   UNL     1      46.747   1.866   7.611  0.00  0.00    +0.000 A 
ENDBRANCH   8   9
ENDBRANCH   5   8
ENDBRANCH   1   2
BRANCH   1  15
ATOM     15  N   UNL     1      45.418   5.202  13.669  0.00  0.00    +0.000 N 
ATOM     16  C   UNL     1      46.562   4.560  14.052  0.00  0.00    +0.000 C 
ATOM     17  O   UNL     1      46.746   3.360  13.862  0.00  0.00    +0.000 OA
ATOM     18  H   UNL     1      45.246   6.147  13.995  0.00  0.00    +0.000 HD
BRANCH  16  19
ATOM     19  C   UNL     1      47.587   5.405  14.676  0.00  0.00    +0.000 A 
ATOM     20  C   UNL     1      47.965   5.211  15.997  0.00  0.00    +0.000 A 
ATOM     21  S   UNL     1      49.185   6.290  16.516  0.00  0.00    +0.000 S 
ATOM     22  C   UNL     1      49.200   7.090  15.012  0.00  0.00    +0.000 A 
ATOM     23  N   UNL     1      50.001   8.166  14.793  0.00  0.00    +0.000 NA
ATOM     24  C   UNL     1      49.874   8.695  13.618  0.00  0.00    +0.000 A 
ATOM     25  N   UNL     1      49.033   8.234  12.642  0.00  0.00    +0.000 N 
ATOM     26  C   UNL     1      48.252   7.119  12.798  0.00  0.00    +0.000 A 
ATOM     27  O   UNL     1      47.583   6.676  11.868  0.00  0.00    +0.000 OA
ATOM     28  C   UNL     1      48.322   6.513  14.116  0.00  0.00    +0.000 A 
ATOM     29  H   UNL     1      49.002   8.675  11.733  0.00  0.00    +0.000 HD
ENDBRANCH  16  19
ENDBRANCH   1  15
BRANCH   1  30
ATOM     30  C   UNL     1      42.951   5.333  13.336  0.00  0.00    +0.000 C 
BRANCH  30  31
ATOM     31  N   UNL     1      42.374   5.892  12.105  0.00  0.00    +0.000 NA
ATOM     32  H   UNL     1      41.476   6.324  12.303  0.00  0.00    +0.000 HD
ATOM     33  H   UNL     1      42.201   5.138  11.440  0.00  0.00    +0.000 HD
ENDBRANCH  30  31
ENDBRANCH   1  30
TORSDOF 7
ENDMDL
MODEL 3
REMARK VINA RESULT:    -8.336      1.903      2.287
REMARK INTER + INTRA:         -12.231
REMARK INTER:                 -11.859
REMARK INTRA:                  -0.372
REMARK UNBOUND:                -0.728
REMARK  Name = 
REMARK  7 active torsions:
REMARK  status: ('A' for Active; 'I' for Inactive)
REMARK    1  A    between atoms: N_1  and  C_2
REMARK    2  A    between atoms: C_2  and  C_3
REMARK    3  A    between atoms: C_3  and  N_4
REMARK    4  A    between atoms: C_3  and  C_17
REMARK    5  A    between atoms: C_5  and  C_7
REMARK    6  A    between atoms: C_20  and  C_21
REMARK    7  A    between atoms: C_21  and  C_22
REMARK                            x       y       z     vdW  Elec       q    Type
REMARK                         _______ _______ _______ _____ _____    ______ ____
ROOT
ATOM      1  C   UNL     1      44.878   7.222  12.358  0.00  0.00    +0.000 C 
ENDROOT
BRANCH   1   2
ATOM      2  C   UNL     1      44.885   6.084  11.342  0.00  0.00    +0.000 A 
ATOM      3  C   UNL     1      43.955   5.042  11.467  0.00  0.00    +0.000 A 
ATOM      4  C   UNL     1      43.854   4.055  10.484  0.00  0.00    +0.000 A 
ATOM      5  C   UNL     1      44.699   4.071   9.367  0.00  0.00    +0.000 A 
ATOM      6  C   UNL     1      45.680   5.063   9.279  0.00  0.00    +0.000 A 
ATOM      7  C   UNL     1      45.781   6.047  10.262  0.00  0.00    +0.000 A 
BRANCH   5   8
ATOM      8  C   UNL     1      44.501   3.097   8.226  0.00  0.00    +0.000 C 
BRANCH   8   9
ATOM      9  C   UNL     1      45.816   2.615   7.658  0.00  0.00    +0.000 A 
ATOM     10  C   UNL     1      46.464   3.326   6.642  0.00  0.00    +0.000 A 
ATOM     11  C   UNL     1      47.603   2.779   6.071  0.00  0.00    +0.000 A 
ATOM     12  N   UNL     1      48.142   1.599   6.444  0.00  0.00    +0.000 NA
ATOM     13  C   UNL     1      47.508   0.934   7.432  0.00  0.00    +0.000 A 
ATOM     14  C   UNL     1      46.364   1.396   8.066  0.00  0.00    +0.000 A 
ENDBRANCH   8   9
ENDBRANCH   5   8
ENDBRANCH   1   2
BRANCH   1  15
ATOM     15  N   UNL     1      45.827   6.911  13.411  0.00  0.00    +0.000 N 
ATOM     16  C   UNL     1      47.169   7.150  13.318  0.00  0.00    +0.000 C 
ATOM     17  O   UNL     1      47.676   7.733  12.361  0.00  0.00    +0.000 OA
ATOM     18  H   UNL     1      45.483   6.286  14.131  0.00  0.00    +0.000 HD
BRANCH  16  19
ATOM     19  C   UNL     1      47.976   6.698  14.457  0.00  0.00    +0.000 A 
ATOM     20  C   UNL     1      48.973   7.504  14.990  0.00  0.00    +0.000 A 
ATOM     21  S   UNL     1      49.777   6.794  16.320  0.00  0.00    +0.000 S 
ATOM     22  C   UNL     1      48.862   5.363  16.185  0.00  0.00    +0.000 A 
ATOM     23  N   UNL     1      49.084   4.303  17.006  0.00  0.00    +0.000 NA
ATOM     24  C   UNL     1      48.342   3.272  16.758  0.00  0.00    +0.000 A 
ATOM     25  N   UNL     1      47.390   3.214  15.776  0.00  0.00    +0.000 N 
ATOM     26  C   UNL     1      47.093   4.277  14.964  0.00  0.00    +0.000 A 
ATOM     27  O   UNL     1      46.166   4.222  14.161  0.00  0.00    +0.000 OA
ATOM     28  C   UNL     1      47.928   5.446  15.170  0.00  0.00    +0.000 A 
ATOM     29  H   UNL     1      46.822   2.387  15.653  0.00  0.00    +0.000 HD
ENDBRANCH  16  19
ENDBRANCH   1  15
BRANCH   1  30
ATOM     30  C   UNL     1      45.151   8.626  11.732  0.00  0.00    +0.000 C 
BRANCH  30  31
ATOM     31  N   UNL     1      44.923   9.739  12.664  0.00  0.00    +0.000 NA
ATOM     32  H   UNL     1      44.264   9.462  13.387  0.00  0.00    +0.000 HD
ATOM     33  H   UNL     1      44.503  10.520  12.162  0.00  0.00    +0.000 HD
ENDBRANCH  30  31
ENDBRANCH   1  30
TORSDOF 7
ENDMDL
MODEL 4
REMARK VINA RESULT:    -8.331      1.908      2.377
REMARK INTER + INTRA:         -12.225
REMARK INTER:                 -11.522
REMARK INTRA:                  -0.703
REMARK UNBOUND:                -0.728
REMARK  Name = 
REMARK  7 active torsions:
REMARK  status: ('A' for Active; 'I' for Inactive)
REMARK    1  A    between atoms: N_1  and  C_2
REMARK    2  A    between atoms: C_2  and  C_3
REMARK    3  A    between atoms: C_3  and  N_4
REMARK    4  A    between atoms: C_3  and  C_17
REMARK    5  A    between atoms: C_5  and  C_7
REMARK    6  A    between atoms: C_20  and  C_21
REMARK    7  A    between atoms: C_21  and  C_22
REMARK                            x       y       z     vdW  Elec       q    Type
REMARK                         _______ _______ _______ _____ _____    ______ ____
ROOT
ATOM      1  C   UNL     1      45.433   6.711  12.847  0.00  0.00    +0.000 C 
ENDROOT
BRANCH   1   2
ATOM      2  C   UNL     1      45.343   5.770  11.650  0.00  0.00    +0.000 A 
ATOM      3  C   UNL     1      44.582   4.596  11.751  0.00  0.00    +0.000 A 
ATOM      4  C   UNL     1      44.377   3.780  10.635  0.00  0.00    +0.000 A 
ATOM      5  C   UNL     1      44.953   4.104   9.399  0.00  0.00    +0.000 A 
ATOM      6  C   UNL     1      45.776   5.231   9.314  0.00  0.00    +0.000 A 
ATOM      7  C   UNL     1      45.981   6.044  10.429  0.00  0.00    +0.000 A 
BRANCH   5   8
ATOM      8  C   UNL     1      44.618   3.313   8.154  0.00  0.00    +0.000 C 
BRANCH   8   9
ATOM      9  C   UNL     1      45.844   2.675   7.543  0.00  0.00    +0.000 A 
ATOM     10  C   UNL     1      46.444   3.217   6.401  0.00  0.00    +0.000 A 
ATOM     11  C   UNL     1      47.491   2.526   5.809  0.00  0.00    +0.000 A 
ATOM     12  N   UNL     1      47.983   1.359   6.274  0.00  0.00    +0.000 NA
ATOM     13  C   UNL     1      47.397   0.857   7.382  0.00  0.00    +0.000 A 
ATOM     14  C   UNL     1      46.346   1.471   8.046  0.00  0.00    +0.000 A 
ENDBRANCH   8   9
ENDBRANCH   5   8
ENDBRANCH   1   2
BRANCH   1  15
ATOM     15  N   UNL     1      46.024   5.992  13.960  0.00  0.00    +0.000 N 
ATOM     16  C   UNL     1      47.355   5.691  14.048  0.00  0.00    +0.000 C 
ATOM     17  O   UNL     1      48.181   6.084  13.227  0.00  0.00    +0.000 OA
ATOM     18  H   UNL     1      45.366   5.510  14.562  0.00  0.00    +0.000 HD
BRANCH  16  19
ATOM     19  C   UNL     1      47.751   4.893  15.214  0.00  0.00    +0.000 A 
ATOM     20  C   UNL     1      47.485   3.532  15.272  0.00  0.00    +0.000 A 
ATOM     21  S   UNL     1      48.046   2.795  16.708  0.00  0.00    +0.000 S 
ATOM     22  C   UNL     1      48.604   4.283  17.324  0.00  0.00    +0.000 A 
ATOM     23  N   UNL     1      49.161   4.370  18.561  0.00  0.00    +0.000 NA
ATOM     24  C   UNL     1      49.499   5.571  18.909  0.00  0.00    +0.000 A 
ATOM     25  N   UNL     1      49.346   6.682  18.127  0.00  0.00    +0.000 N 
ATOM     26  C   UNL     1      48.844   6.632  16.853  0.00  0.00    +0.000 A 
ATOM     27  O   UNL     1      48.812   7.633  16.143  0.00  0.00    +0.000 OA
ATOM     28  C   UNL     1      48.406   5.315  16.428  0.00  0.00    +0.000 A 
ATOM     29  H   UNL     1      49.659   7.589  18.447  0.00  0.00    +0.000 HD
ENDBRANCH  16  19
ENDBRANCH   1  15
BRANCH   1  30
ATOM     30  C   UNL     1      46.198   8.039  12.547  0.00  0.00    +0.000 C 
BRANCH  30  31
ATOM     31  N   UNL     1      46.403   8.880  13.735  0.00  0.00    +0.000 NA
ATOM     32  H   UNL     1      45.534   8.970  14.254  0.00  0.00    +0.000 HD
ATOM     33  H   UNL     1      46.673   9.818  13.442  0.00  0.00    +0.000 HD
ENDBRANCH  30  31
ENDBRANCH   1  30
TORSDOF 7
ENDMDL
MODEL 5
REMARK VINA RESULT:    -7.602      2.323      3.718
REMARK INTER + INTRA:         -11.218
REMARK INTER:                  -9.720
REMARK INTRA:                  -1.498
REMARK UNBOUND:                -0.728
REMARK  Name = 
REMARK  7 active torsions:
REMARK  status: ('A' for Active; 'I' for Inactive)
REMARK    1  A    between atoms: N_1  and  C_2
REMARK    2  A    between atoms: C_2  and  C_3
REMARK    3  A    between atoms: C_3  and  N_4
REMARK    4  A    between atoms: C_3  and  C_17
REMARK    5  A    between atoms: C_5  and  C_7
REMARK    6  A    between atoms: C_20  and  C_21
REMARK    7  A    between atoms: C_21  and  C_22
REMARK                            x       y       z     vdW  Elec       q    Type
REMARK                         _______ _______ _______ _____ _____    ______ ____
ROOT
ATOM      1  C   UNL     1      47.332   7.730  13.551  0.00  0.00    +0.000 C 
ENDROOT
BRANCH   1   2
ATOM      2  C   UNL     1      46.338   6.797  12.868  0.00  0.00    +0.000 A 
ATOM      3  C   UNL     1      45.298   7.340  12.099  0.00  0.00    +0.000 A 
ATOM      4  C   UNL     1      44.450   6.512  11.360  0.00  0.00    +0.000 A 
ATOM      5  C   UNL     1      44.604   5.120  11.394  0.00  0.00    +0.000 A 
ATOM      6  C   UNL     1      45.589   4.571  12.221  0.00  0.00    +0.000 A 
ATOM      7  C   UNL     1      46.434   5.399  12.960  0.00  0.00    +0.000 A 
BRANCH   5   8
ATOM      8  C   UNL     1      43.791   4.224  10.486  0.00  0.00    +0.000 C 
BRANCH   8   9
ATOM      9  C   UNL     1      44.647   3.560   9.432  0.00  0.00    +0.000 A 
ATOM     10  C   UNL     1      44.839   2.174   9.431  0.00  0.00    +0.000 A 
ATOM     11  C   UNL     1      45.730   1.628   8.519  0.00  0.00    +0.000 A 
ATOM     12  N   UNL     1      46.421   2.351   7.614  0.00  0.00    +0.000 NA
ATOM     13  C   UNL     1      46.215   3.685   7.626  0.00  0.00    +0.000 A 
ATOM     14  C   UNL     1      45.347   4.326   8.496  0.00  0.00    +0.000 A 
ENDBRANCH   8   9
ENDBRANCH   5   8
ENDBRANCH   1   2
BRANCH   1  15
ATOM     15  N   UNL     1      48.194   6.941  14.412  0.00  0.00    +0.000 N 
ATOM     16  C   UNL     1      48.665   7.376  15.619  0.00  0.00    +0.000 C 
ATOM     17  O   UNL     1      48.322   8.446  16.120  0.00  0.00    +0.000 OA
ATOM     18  H   UNL     1      48.631   6.141  13.969  0.00  0.00    +0.000 HD
BRANCH  16  19
ATOM     19  C   UNL     1      49.584   6.465  16.309  0.00  0.00    +0.000 A 
ATOM     20  C   UNL     1      50.882   6.854  16.611  0.00  0.00    +0.000 A 
ATOM     21  S   UNL     1      51.775   5.649  17.430  0.00  0.00    +0.000 S 
ATOM     22  C   UNL     1      50.476   4.549  17.352  0.00  0.00    +0.000 A 
ATOM     23  N   UNL     1      50.592   3.285  17.836  0.00  0.00    +0.000 NA
ATOM     24  C   UNL     1      49.538   2.551  17.669  0.00  0.00    +0.000 A 
ATOM     25  N   UNL     1      48.379   2.975  17.078  0.00  0.00    +0.000 N 
ATOM     26  C   UNL     1      48.197   4.257  16.629  0.00  0.00    +0.000 A 
ATOM     27  O   UNL     1      47.112   4.630  16.194  0.00  0.00    +0.000 OA
ATOM     28  C   UNL     1      49.366   5.110  16.751  0.00  0.00    +0.000 A 
ATOM     29  H   UNL     1      47.579   2.361  17.005  0.00  0.00    +0.000 HD
ENDBRANCH  16  19
ENDBRANCH   1  15
BRANCH   1  30
ATOM     30  C   UNL     1      48.157   8.607  12.557  0.00  0.00    +0.000 C 
BRANCH  30  31
ATOM     31  N   UNL     1      48.847   7.829  11.520  0.00  0.00    +0.000 NA
ATOM     32  H   UNL     1      49.844   7.792  11.714  0.00  0.00    +0.000 HD
ATOM     33  H   UNL     1      48.736   8.293  10.619  0.00  0.00    +0.000 HD
ENDBRANCH  30  31
ENDBRANCH   1  30
TORSDOF 7
ENDMDL
MODEL 6
REMARK VINA RESULT:    -7.504      2.661      3.967
REMARK INTER + INTRA:         -11.083
REMARK INTER:                  -9.549
REMARK INTRA:                  -1.533
REMARK UNBOUND:                -0.728
REMARK  Name = 
REMARK  7 active torsions:
REMARK  status: ('A' for Active; 'I' for Inactive)
REMARK    1  A    between atoms: N_1  and  C_2
REMARK    2  A    between atoms: C_2  and  C_3
REMARK    3  A    between atoms: C_3  and  N_4
REMARK    4  A    between atoms: C_3  and  C_17
REMARK    5  A    between atoms: C_5  and  C_7
REMARK    6  A    between atoms: C_20  and  C_21
REMARK    7  A    between atoms: C_21  and  C_22
REMARK                            x       y       z     vdW  Elec       q    Type
REMARK                         _______ _______ _______ _____ _____    ______ ____
ROOT
ATOM      1  C   UNL     1      47.791   5.067  14.794  0.00  0.00    +0.000 C 
ENDROOT
BRANCH   1   2
ATOM      2  C   UNL     1      46.796   4.998  13.640  0.00  0.00    +0.000 A 
ATOM      3  C   UNL     1      46.808   5.999  12.658  0.00  0.00    +0.000 A 
ATOM      4  C   UNL     1      45.997   5.897  11.524  0.00  0.00    +0.000 A 
ATOM      5  C   UNL     1      45.135   4.804  11.360  0.00  0.00    +0.000 A 
ATOM      6  C   UNL     1      45.064   3.844  12.374  0.00  0.00    +0.000 A 
ATOM      7  C   UNL     1      45.872   3.949  13.506  0.00  0.00    +0.000 A 
BRANCH   5   8
ATOM      8  C   UNL     1      44.366   4.607  10.073  0.00  0.00    +0.000 C 
BRANCH   8   9
ATOM      9  C   UNL     1      45.115   3.732   9.094  0.00  0.00    +0.000 A 
ATOM     10  C   UNL     1      45.097   2.338   9.215  0.00  0.00    +0.000 A 
ATOM     11  C   UNL     1      45.897   1.587   8.368  0.00  0.00    +0.000 A 
ATOM     12  N   UNL     1      46.693   2.118   7.415  0.00  0.00    +0.000 NA
ATOM     13  C   UNL     1      46.690   3.463   7.309  0.00  0.00    +0.000 A 
ATOM     14  C   UNL     1      45.925   4.300   8.107  0.00  0.00    +0.000 A 
ENDBRANCH   8   9
ENDBRANCH   5   8
ENDBRANCH   1   2
BRANCH   1  15
ATOM     15  N   UNL     1      47.843   6.433  15.281  0.00  0.00    +0.000 N 
ATOM     16  C   UNL     1      49.002   7.079  15.607  0.00  0.00    +0.000 C 
ATOM     17  O   UNL     1      50.113   6.582  15.429  0.00  0.00    +0.000 OA
ATOM     18  H   UNL     1      46.957   6.812  15.599  0.00  0.00    +0.000 HD
BRANCH  16  19
ATOM     19  C   UNL     1      48.845   8.432  16.153  0.00  0.00    +0.000 A 
ATOM     20  C   UNL     1      49.241   9.546  15.425  0.00  0.00    +0.000 A 
ATOM     21  S   UNL     1      48.953  11.021  16.238  0.00  0.00    +0.000 S 
ATOM     22  C   UNL     1      48.349  10.215  17.613  0.00  0.00    +0.000 A 
ATOM     23  N   UNL     1      47.962  10.900  18.720  0.00  0.00    +0.000 NA
ATOM     24  C   UNL     1      47.565  10.151  19.699  0.00  0.00    +0.000 A 
ATOM     25  N   UNL     1      47.506   8.785  19.661  0.00  0.00    +0.000 N 
ATOM     26  C   UNL     1      47.830   8.056  18.547  0.00  0.00    +0.000 A 
ATOM     27  O   UNL     1      47.672   6.840  18.516  0.00  0.00    +0.000 OA
ATOM     28  C   UNL     1      48.326   8.845  17.433  0.00  0.00    +0.000 A 
ATOM     29  H   UNL     1      47.157   8.259  20.451  0.00  0.00    +0.000 HD
ENDBRANCH  16  19
ENDBRANCH   1  15
BRANCH   1  30
ATOM     30  C   UNL     1      47.490   4.056  15.946  0.00  0.00    +0.000 C 
BRANCH  30  31
ATOM     31  N   UNL     1      46.718   4.638  17.052  0.00  0.00    +0.000 NA
ATOM     32  H   UNL     1      46.898   5.636  17.118  0.00  0.00    +0.000 HD
ATOM     33  H   UNL     1      47.020   4.222  17.932  0.00  0.00    +0.000 HD
ENDBRANCH  30  31
ENDBRANCH   1  30
TORSDOF 7
ENDMDL
MODEL 7
REMARK VINA RESULT:    -7.111      4.151      6.107
REMARK INTER + INTRA:         -10.541
REMARK INTER:                  -9.335
REMARK INTRA:                  -1.206
REMARK UNBOUND:                -0.728
REMARK  Name = 
REMARK  7 active torsions:
REMARK  status: ('A' for Active; 'I' for Inactive)
REMARK    1  A    between atoms: N_1  and  C_2
REMARK    2  A    between atoms: C_2  and  C_3
REMARK    3  A    between atoms: C_3  and  N_4
REMARK    4  A    between atoms: C_3  and  C_17
REMARK    5  A    between atoms: C_5  and  C_7
REMARK    6  A    between atoms: C_20  and  C_21
REMARK    7  A    between atoms: C_21  and  C_22
REMARK                            x       y       z     vdW  Elec       q    Type
REMARK                         _______ _______ _______ _____ _____    ______ ____
ROOT
ATOM      1  C   UNL     1      45.686   5.237  13.100  0.00  0.00    +0.000 C 
ENDROOT
BRANCH   1   2
ATOM      2  C   UNL     1      45.628   6.691  12.645  0.00  0.00    +0.000 A 
ATOM      3  C   UNL     1      44.695   7.072  11.669  0.00  0.00    +0.000 A 
ATOM      4  C   UNL     1      44.533   8.416  11.323  0.00  0.00    +0.000 A 
ATOM      5  C   UNL     1      45.318   9.408  11.925  0.00  0.00    +0.000 A 
ATOM      6  C   UNL     1      46.303   9.024  12.841  0.00  0.00    +0.000 A 
ATOM      7  C   UNL     1      46.466   7.682  13.183  0.00  0.00    +0.000 A 
BRANCH   5   8
ATOM      8  C   UNL     1      45.050  10.875  11.670  0.00  0.00    +0.000 C 
BRANCH   8   9
ATOM      9  C   UNL     1      43.747  11.093  10.937  0.00  0.00    +0.000 A 
ATOM     10  C   UNL     1      42.531  11.129  11.627  0.00  0.00    +0.000 A 
ATOM     11  C   UNL     1      41.354  11.209  10.897  0.00  0.00    +0.000 A 
ATOM     12  N   UNL     1      41.306  11.267   9.550  0.00  0.00    +0.000 NA
ATOM     13  C   UNL     1      42.490  11.240   8.903  0.00  0.00    +0.000 A 
ATOM     14  C   UNL     1      43.718  11.161   9.541  0.00  0.00    +0.000 A 
ENDBRANCH   8   9
ENDBRANCH   5   8
ENDBRANCH   1   2
BRANCH   1  15
ATOM     15  N   UNL     1      46.392   5.174  14.367  0.00  0.00    +0.000 N 
ATOM     16  C   UNL     1      47.129   4.096  14.772  0.00  0.00    +0.000 C 
ATOM     17  O   UNL     1      47.328   3.119  14.053  0.00  0.00    +0.000 OA
ATOM     18  H   UNL     1      46.119   5.873  15.049  0.00  0.00    +0.000 HD
BRANCH  16  19
ATOM     19  C   UNL     1      47.707   4.191  16.117  0.00  0.00    +0.000 A 
ATOM     20  C   UNL     1      47.357   3.286  17.110  0.00  0.00    +0.000 A 
ATOM     21  S   UNL     1      48.160   3.566  18.592  0.00  0.00    +0.000 S 
ATOM     22  C   UNL     1      48.951   4.942  17.972  0.00  0.00    +0.000 A 
ATOM     23  N   UNL     1      49.769   5.697  18.752  0.00  0.00    +0.000 NA
ATOM     24  C   UNL     1      50.266   6.733  18.155  0.00  0.00    +0.000 A 
ATOM     25  N   UNL     1      50.032   7.069  16.850  0.00  0.00    +0.000 N 
ATOM     26  C   UNL     1      49.262   6.306  16.011  0.00  0.00    +0.000 A 
ATOM     27  O   UNL     1      49.153   6.584  14.821  0.00  0.00    +0.000 OA
ATOM     28  C   UNL     1      48.642   5.155  16.643  0.00  0.00    +0.000 A 
ATOM     29  H   UNL     1      50.475   7.877  16.434  0.00  0.00    +0.000 HD
ENDBRANCH  16  19
ENDBRANCH   1  15
BRANCH   1  30
ATOM     30  C   UNL     1      44.286   4.549  13.186  0.00  0.00    +0.000 C 
BRANCH  30  31
ATOM     31  N   UNL     1      44.306   3.129  12.809  0.00  0.00    +0.000 NA
ATOM     32  H   UNL     1      44.268   2.545  13.640  0.00  0.00    +0.000 HD
ATOM     33  H   UNL     1      45.184   2.916  12.336  0.00  0.00    +0.000 HD
ENDBRANCH  30  31
ENDBRANCH   1  30
TORSDOF 7
ENDMDL
MODEL 8
REMARK VINA RESULT:    -7.101      2.812      4.279
REMARK INTER + INTRA:         -10.527
REMARK INTER:                  -9.239
REMARK INTRA:                  -1.288
REMARK UNBOUND:                -0.728
REMARK  Name = 
REMARK  7 active torsions:
REMARK  status: ('A' for Active; 'I' for Inactive)
REMARK    1  A    between atoms: N_1  and  C_2
REMARK    2  A    between atoms: C_2  and  C_3
REMARK    3  A    between atoms: C_3  and  N_4
REMARK    4  A    between atoms: C_3  and  C_17
REMARK    5  A    between atoms: C_5  and  C_7
REMARK    6  A    between atoms: C_20  and  C_21
REMARK    7  A    between atoms: C_21  and  C_22
REMARK                            x       y       z     vdW  Elec       q    Type
REMARK                         _______ _______ _______ _____ _____    ______ ____
ROOT
ATOM      1  C   UNL     1      47.910   7.514  14.051  0.00  0.00    +0.000 C 
ENDROOT
BRANCH   1   2
ATOM      2  C   UNL     1      47.100   6.666  13.076  0.00  0.00    +0.000 A 
ATOM      3  C   UNL     1      46.629   5.409  13.483  0.00  0.00    +0.000 A 
ATOM      4  C   UNL     1      45.780   4.665  12.659  0.00  0.00    +0.000 A 
ATOM      5  C   UNL     1      45.405   5.148  11.398  0.00  0.00    +0.000 A 
ATOM      6  C   UNL     1      45.936   6.365  10.957  0.00  0.00    +0.000 A 
ATOM      7  C   UNL     1      46.784   7.105  11.780  0.00  0.00    +0.000 A 
BRANCH   5   8
ATOM      8  C   UNL     1      44.372   4.424  10.563  0.00  0.00    +0.000 C 
BRANCH   8   9
ATOM      9  C   UNL     1      45.003   3.651   9.428  0.00  0.00    +0.000 A 
ATOM     10  C   UNL     1      45.063   2.254   9.456  0.00  0.00    +0.000 A 
ATOM     11  C   UNL     1      45.760   1.598   8.452  0.00  0.00    +0.000 A 
ATOM     12  N   UNL     1      46.379   2.226   7.430  0.00  0.00    +0.000 NA
ATOM     13  C   UNL     1      46.302   3.574   7.416  0.00  0.00    +0.000 A 
ATOM     14  C   UNL     1      45.631   4.320   8.373  0.00  0.00    +0.000 A 
ENDBRANCH   8   9
ENDBRANCH   5   8
ENDBRANCH   1   2
BRANCH   1  15
ATOM     15  N   UNL     1      48.351   6.670  15.146  0.00  0.00    +0.000 N 
ATOM     16  C   UNL     1      48.580   7.129  16.413  0.00  0.00    +0.000 C 
ATOM     17  O   UNL     1      48.345   8.287  16.753  0.00  0.00    +0.000 OA
ATOM     18  H   UNL     1      48.715   5.764  14.873  0.00  0.00    +0.000 HD
BRANCH  16  19
ATOM     19  C   UNL     1      49.094   6.138  17.365  0.00  0.00    +0.000 A 
ATOM     20  C   UNL     1      48.259   5.554  18.307  0.00  0.00    +0.000 A 
ATOM     21  S   UNL     1      49.056   4.416  19.303  0.00  0.00    +0.000 S 
ATOM     22  C   UNL     1      50.555   4.717  18.549  0.00  0.00    +0.000 A 
ATOM     23  N   UNL     1      51.690   4.096  18.963  0.00  0.00    +0.000 NA
ATOM     24  C   UNL     1      52.757   4.455  18.323  0.00  0.00    +0.000 A 
ATOM     25  N   UNL     1      52.785   5.363  17.300  0.00  0.00    +0.000 N 
ATOM     26  C   UNL     1      51.657   5.969  16.812  0.00  0.00    +0.000 A 
ATOM     27  O   UNL     1      51.705   6.703  15.829  0.00  0.00    +0.000 OA
ATOM     28  C   UNL     1      50.437   5.636  17.524  0.00  0.00    +0.000 A 
ATOM     29  H   UNL     1      53.649   5.578  16.821  0.00  0.00    +0.000 HD
ENDBRANCH  16  19
ENDBRANCH   1  15
BRANCH   1  30
ATOM     30  C   UNL     1      49.106   8.267  13.386  0.00  0.00    +0.000 C 
BRANCH  30  31
ATOM     31  N   UNL     1      50.291   7.423  13.181  0.00  0.00    +0.000 NA
ATOM     32  H   UNL     1      51.132   7.928  13.446  0.00  0.00    +0.000 HD
ATOM     33  H   UNL     1      50.379   7.198  12.190  0.00  0.00    +0.000 HD
ENDBRANCH  30  31
ENDBRANCH   1  30
TORSDOF 7
ENDMDL
MODEL 9
REMARK VINA RESULT:    -7.052      4.067      8.577
REMARK INTER + INTRA:         -10.459
REMARK INTER:                  -9.112
REMARK INTRA:                  -1.348
REMARK UNBOUND:                -0.728
REMARK  Name = 
REMARK  7 active torsions:
REMARK  status: ('A' for Active; 'I' for Inactive)
REMARK    1  A    between atoms: N_1  and  C_2
REMARK    2  A    between atoms: C_2  and  C_3
REMARK    3  A    between atoms: C_3  and  N_4
REMARK    4  A    between atoms: C_3  and  C_17
REMARK    5  A    between atoms: C_5  and  C_7
REMARK    6  A    between atoms: C_20  and  C_21
REMARK    7  A    between atoms: C_21  and  C_22
REMARK                            x       y       z     vdW  Elec       q    Type
REMARK                         _______ _______ _______ _____ _____    ______ ____
ROOT
ATOM      1  C   UNL     1      48.469   7.784  14.319  0.00  0.00    +0.000 C 
ENDROOT
BRANCH   1   2
ATOM      2  C   UNL     1      49.054   6.809  15.336  0.00  0.00    +0.000 A 
ATOM      3  C   UNL     1      50.393   6.946  15.730  0.00  0.00    +0.000 A 
ATOM      4  C   UNL     1      50.920   6.150  16.751  0.00  0.00    +0.000 A 
ATOM      5  C   UNL     1      50.129   5.180  17.381  0.00  0.00    +0.000 A 
ATOM      6  C   UNL     1      48.817   4.988  16.937  0.00  0.00    +0.000 A 
ATOM      7  C   UNL     1      48.292   5.782  15.917  0.00  0.00    +0.000 A 
BRANCH   5   8
ATOM      8  C   UNL     1      50.642   4.418  18.583  0.00  0.00    +0.000 C 
BRANCH   8   9
ATOM      9  C   UNL     1      51.566   3.291  18.186  0.00  0.00    +0.000 A 
ATOM     10  C   UNL     1      51.080   2.165  17.513  0.00  0.00    +0.000 A 
ATOM     11  C   UNL     1      51.944   1.105  17.280  0.00  0.00    +0.000 A 
ATOM     12  N   UNL     1      53.241   1.094  17.652  0.00  0.00    +0.000 NA
ATOM     13  C   UNL     1      53.693   2.193  18.292  0.00  0.00    +0.000 A 
ATOM     14  C   UNL     1      52.910   3.302  18.571  0.00  0.00    +0.000 A 
ENDBRANCH   8   9
ENDBRANCH   5   8
ENDBRANCH   1   2
BRANCH   1  15
ATOM     15  N   UNL     1      47.249   7.214  13.777  0.00  0.00    +0.000 N 
ATOM     16  C   UNL     1      47.012   7.062  12.440  0.00  0.00    +0.000 C 
ATOM     17  O   UNL     1      47.855   7.317  11.581  0.00  0.00    +0.000 OA
ATOM     18  H   UNL     1      46.475   7.152  14.428  0.00  0.00    +0.000 HD
BRANCH  16  19
ATOM     19  C   UNL     1      45.689   6.535  12.084  0.00  0.00    +0.000 A 
ATOM     20  C   UNL     1      44.712   7.362  11.548  0.00  0.00    +0.000 A 
ATOM     21  S   UNL     1      43.255   6.542  11.190  0.00  0.00    +0.000 S 
ATOM     22  C   UNL     1      43.864   5.071  11.799  0.00  0.00    +0.000 A 
ATOM     23  N   UNL     1      43.096   3.952  11.837  0.00  0.00    +0.000 NA
ATOM     24  C   UNL     1      43.679   2.922  12.365  0.00  0.00    +0.000 A 
ATOM     25  N   UNL     1      44.963   2.912  12.839  0.00  0.00    +0.000 N 
ATOM     26  C   UNL     1      45.792   4.000  12.767  0.00  0.00    +0.000 A 
ATOM     27  O   UNL     1      46.968   3.926  13.112  0.00  0.00    +0.000 OA
ATOM     28  C   UNL     1      45.172   5.196  12.225  0.00  0.00    +0.000 A 
ATOM     29  H   UNL     1      45.370   2.066  13.212  0.00  0.00    +0.000 HD
ENDBRANCH  16  19
ENDBRANCH   1  15
BRANCH   1  30
ATOM     30  C   UNL     1      48.230   9.219  14.888  0.00  0.00    +0.000 C 
BRANCH  30  31
ATOM     31  N   UNL     1      47.593   9.228  16.212  0.00  0.00    +0.000 NA
ATOM     32  H   UNL     1      48.246   9.568  16.913  0.00  0.00    +0.000 HD
ATOM     33  H   UNL     1      47.344   8.275  16.474  0.00  0.00    +0.000 HD
ENDBRANCH  30  31
ENDBRANCH   1  30
TORSDOF 7
ENDMDL
