MODEL 1
REMARK VINA RESULT:    -8.645      0.000      0.000
REMARK INTER + INTRA:         -13.051
REMARK INTER:                 -11.930
REMARK INTRA:                  -1.121
REMARK UNBOUND:                -1.121
REMARK  Name = 
REMARK  7 active torsions:
REMARK  status: ('A' for Active; 'I' for Inactive)
REMARK    1  A    between atoms: N_1  and  C_2
REMARK    2  A    between atoms: C_2  and  C_3
REMARK    3  A    between atoms: C_2  and  C_25
REMARK    4  A    between atoms: C_3  and  N_4
REMARK    5  A    between atoms: C_8  and  C_9
REMARK    6  A    between atoms: C_9  and  N_10
REMARK    7  A    between atoms: C_11  and  C_13
REMARK                            x       y       z     vdW  Elec       q    Type
REMARK                         _______ _______ _______ _____ _____    ______ ____
ROOT
ATOM      1  N   UNL     1      43.760   4.798  10.126  0.00  0.00    +0.000 N 
ATOM      2  C   UNL     1      44.579   5.619  10.906  0.00  0.00    +0.000 A 
ATOM      3  C   UNL     1      44.096   6.234  12.078  0.00  0.00    +0.000 A 
ATOM      4  N   UNL     1      44.857   7.035  12.867  0.00  0.00    +0.000 NA
ATOM      5  C   UNL     1      46.145   7.200  12.469  0.00  0.00    +0.000 A 
ATOM      6  C   UNL     1      46.618   6.591  11.313  0.00  0.00    +0.000 A 
ATOM      7  N   UNL     1      45.858   5.814  10.524  0.00  0.00    +0.000 NA
ATOM      8  H   UNL     1      43.436   4.033  10.727  0.00  0.00    +0.000 HD
ENDROOT
BRANCH   1   9
ATOM      9  C   UNL     1      44.470   4.244   8.948  0.00  0.00    +0.000 C 
BRANCH   9  10
ATOM     10  C   UNL     1      44.528   2.683   8.973  0.00  0.00    +0.000 C 
BRANCH  10  11
ATOM     11  C   UNL     1      45.961   2.210   8.621  0.00  0.00    +0.000 C 
ATOM     12  C   UNL     1      46.590   2.817   7.373  0.00  0.00    +0.000 C 
ATOM     13  C   UNL     1      47.601   1.761   6.987  0.00  0.00    +0.000 C 
ATOM     14  C   UNL     1      46.895   0.476   7.361  0.00  0.00    +0.000 C 
ATOM     15  O   UNL     1      46.008   0.776   8.444  0.00  0.00    +0.000 OA
ENDBRANCH  10  11
BRANCH  10  16
ATOM     16  N   UNL     1      44.055   2.139  10.272  0.00  0.00    +0.000 NA
ATOM     17  H   UNL     1      44.865   1.858  10.824  0.00  0.00    +0.000 HD
ATOM     18  H   UNL     1      43.562   1.267  10.064  0.00  0.00    +0.000 HD
ENDBRANCH  10  16
ENDBRANCH   9  10
ENDBRANCH   1   9
BRANCH   5  19
ATOM     19  C   UNL     1      47.069   8.041  13.303  0.00  0.00    +0.000 C 
BRANCH  19  20
ATOM     20  N   UNL     1      47.479   7.353  14.505  0.00  0.00    +0.000 N 
ATOM     21  C   UNL     1      48.726   6.834  14.669  0.00  0.00    +0.000 C 
ATOM     22  O   UNL     1      49.583   6.900  13.785  0.00  0.00    +0.000 OA
ATOM     23  H   UNL     1      46.727   7.111  15.135  0.00  0.00    +0.000 HD
BRANCH  21  24
ATOM     24  C   UNL     1      49.012   6.203  15.960  0.00  0.00    +0.000 A 
ATOM     25  C   UNL     1      50.011   6.703  16.785  0.00  0.00    +0.000 A 
ATOM     26  S   UNL     1      50.179   5.841  18.249  0.00  0.00    +0.000 S 
ATOM     27  C   UNL     1      48.938   4.760  17.819  0.00  0.00    +0.000 A 
ATOM     28  N   UNL     1      48.588   3.726  18.632  0.00  0.00    +0.000 NA
ATOM     29  C   UNL     1      47.656   2.967  18.162  0.00  0.00    +0.000 A 
ATOM     30  N   UNL     1      47.030   3.155  16.955  0.00  0.00    +0.000 N 
ATOM     31  C   UNL     1      47.328   4.188  16.118  0.00  0.00    +0.000 A 
ATOM     32  O   UNL     1      46.728   4.312  15.046  0.00  0.00    +0.000 OA
ATOM     33  C   UNL     1      48.390   5.060  16.583  0.00  0.00    +0.000 A 
ATOM     34  H   UNL     1      46.302   2.523  16.644  0.00  0.00    +0.000 HD
ENDBRANCH  21  24
ENDBRANCH  19  20
ENDBRANCH   5  19
TORSDOF 7
ENDMDL
MODEL 2
REMARK VINA RESULT:    -7.576      3.153      4.250
REMARK INTER + INTRA:         -11.576
REMARK INTER:                 -10.336
REMARK INTRA:                  -1.240
REMARK UNBOUND:                -1.121
REMARK  Name = 
REMARK  7 active torsions:
REMARK  status: ('A' for Active; 'I' for Inactive)
REMARK    1  A    between atoms: N_1  and  C_2
REMARK    2  A    between atoms: C_2  and  C_3
REMARK    3  A    between atoms: C_2  and  C_25
REMARK    4  A    between atoms: C_3  and  N_4
REMARK    5  A    between atoms: C_8  and  C_9
REMARK    6  A    between atoms: C_9  and  N_10
REMARK    7  A    between atoms: C_11  and  C_13
REMARK                            x       y       z     vdW  Elec       q    Type
REMARK                         _______ _______ _______ _____ _____    ______ ____
ROOT
ATOM      1  N   UNL     1      46.379   4.554  12.478  0.00  0.00    +0.000 N 
ATOM      2  C   UNL     1      46.951   4.895  13.705  0.00  0.00    +0.000 A 
ATOM      3  C   UNL     1      47.659   6.103  13.874  0.00  0.00    +0.000 A 
ATOM      4  N   UNL     1      48.226   6.476  15.049  0.00  0.00    +0.000 NA
ATOM      5  C   UNL     1      48.057   5.614  16.084  0.00  0.00    +0.000 A 
ATOM      6  C   UNL     1      47.359   4.425  15.915  0.00  0.00    +0.000 A 
ATOM      7  N   UNL     1      46.813   4.048  14.747  0.00  0.00    +0.000 NA
ATOM      8  H   UNL     1      45.718   5.298  12.233  0.00  0.00    +0.000 HD
ENDROOT
BRANCH   1   9
ATOM      9  C   UNL     1      45.672   3.251  12.524  0.00  0.00    +0.000 C 
BRANCH   9  10
ATOM     10  C   UNL     1      44.181   3.371  12.072  0.00  0.00    +0.000 C 
BRANCH  10  11
ATOM     11  C   UNL     1      44.121   3.607  10.541  0.00  0.00    +0.000 C 
ATOM     12  C   UNL     1      44.721   2.517   9.661  0.00  0.00    +0.000 C 
ATOM     13  C   UNL     1      45.065   3.284   8.404  0.00  0.00    +0.000 C 
ATOM     14  C   UNL     1      45.488   4.632   8.946  0.00  0.00    +0.000 C 
ATOM     15  O   UNL     1      44.787   4.837  10.177  0.00  0.00    +0.000 OA
ENDBRANCH  10  11
BRANCH  10  16
ATOM     16  N   UNL     1      43.385   2.192  12.496  0.00  0.00    +0.000 NA
ATOM     17  H   UNL     1      43.226   2.249  13.502  0.00  0.00    +0.000 HD
ATOM     18  H   UNL     1      43.983   1.372  12.370  0.00  0.00    +0.000 HD
ENDBRANCH  10  16
ENDBRANCH   9  10
ENDBRANCH   1   9
BRANCH   5  19
ATOM     19  C   UNL     1      48.621   5.965  17.431  0.00  0.00    +0.000 C 
BRANCH  19  20
ATOM     20  N   UNL     1      49.730   5.110  17.786  0.00  0.00    +0.000 N 
ATOM     21  C   UNL     1      51.001   5.335  17.357  0.00  0.00    +0.000 C 
ATOM     22  O   UNL     1      51.284   6.276  16.614  0.00  0.00    +0.000 OA
ATOM     23  H   UNL     1      49.470   4.231  18.210  0.00  0.00    +0.000 HD
BRANCH  21  24
ATOM     24  C   UNL     1      52.030   4.408  17.837  0.00  0.00    +0.000 A 
ATOM     25  C   UNL     1      53.193   4.887  18.426  0.00  0.00    +0.000 A 
ATOM     26  S   UNL     1      54.258   3.651  18.930  0.00  0.00    +0.000 S 
ATOM     27  C   UNL     1      53.211   2.438  18.359  0.00  0.00    +0.000 A 
ATOM     28  N   UNL     1      53.540   1.121  18.446  0.00  0.00    +0.000 NA
ATOM     29  C   UNL     1      52.668   0.316  17.940  0.00  0.00    +0.000 A 
ATOM     30  N   UNL     1      51.485   0.708  17.365  0.00  0.00    +0.000 N 
ATOM     31  C   UNL     1      51.099   2.012  17.276  0.00  0.00    +0.000 A 
ATOM     32  O   UNL     1      50.021   2.306  16.753  0.00  0.00    +0.000 OA
ATOM     33  C   UNL     1      52.056   2.966  17.805  0.00  0.00    +0.000 A 
ATOM     34  H   UNL     1      50.839   0.024  16.988  0.00  0.00    +0.000 HD
ENDBRANCH  21  24
ENDBRANCH  19  20
ENDBRANCH   5  19
TORSDOF 7
ENDMDL
MODEL 3
REMARK VINA RESULT:    -7.521      4.943      8.964
REMARK INTER + INTRA:         -11.500
REMARK INTER:                 -10.500
REMARK INTRA:                  -1.000
REMARK UNBOUND:                -1.121
REMARK  Name = 
REMARK  7 active torsions:
REMARK  status: ('A' for Active; 'I' for Inactive)
REMARK    1  A    between atoms: N_1  and  C_2
REMARK    2  A    between atoms: C_2  and  C_3
REMARK    3  A    between atoms: C_2  and  C_25
REMARK    4  A    between atoms: C_3  and  N_4
REMARK    5  A    between atoms: C_8  and  C_9
REMARK    6  A    between atoms: C_9  and  N_10
REMARK    7  A    between atoms: C_11  and  C_13
REMARK                            x       y       z     vdW  Elec       q    Type
REMARK                         _______ _______ _______ _____ _____    ______ ____
ROOT
ATOM      1  N   UNL     1      51.973   0.703  17.355  0.00  0.00    +0.000 N 
ATOM      2  C   UNL     1      51.214   1.876  17.331  0.00  0.00    +0.000 A 
ATOM      3  C   UNL     1      49.862   1.865  16.933  0.00  0.00    +0.000 A 
ATOM      4  N   UNL     1      49.086   2.978  16.899  0.00  0.00    +0.000 NA
ATOM      5  C   UNL     1      49.690   4.128  17.298  0.00  0.00    +0.000 A 
ATOM      6  C   UNL     1      51.022   4.134  17.691  0.00  0.00    +0.000 A 
ATOM      7  N   UNL     1      51.794   3.035  17.706  0.00  0.00    +0.000 NA
ATOM      8  H   UNL     1      51.503   0.049  17.989  0.00  0.00    +0.000 HD
ENDROOT
BRANCH   1   9
ATOM      9  C   UNL     1      53.363   0.938  17.817  0.00  0.00    +0.000 C 
BRANCH   9  10
ATOM     10  C   UNL     1      54.361  -0.122  17.249  0.00  0.00    +0.000 C 
BRANCH  10  11
ATOM     11  C   UNL     1      54.574  -1.247  18.294  0.00  0.00    +0.000 C 
ATOM     12  C   UNL     1      54.756  -2.657  17.748  0.00  0.00    +0.000 C 
ATOM     13  C   UNL     1      54.314  -3.506  18.919  0.00  0.00    +0.000 C 
ATOM     14  C   UNL     1      53.195  -2.683  19.518  0.00  0.00    +0.000 C 
ATOM     15  O   UNL     1      53.469  -1.310  19.224  0.00  0.00    +0.000 OA
ENDBRANCH  10  11
BRANCH  10  16
ATOM     16  N   UNL     1      53.911  -0.647  15.935  0.00  0.00    +0.000 NA
ATOM     17  H   UNL     1      53.608   0.137  15.356  0.00  0.00    +0.000 HD
ATOM     18  H   UNL     1      53.062  -1.190  16.109  0.00  0.00    +0.000 HD
ENDBRANCH  10  16
ENDBRANCH   9  10
ENDBRANCH   1   9
BRANCH   5  19
ATOM     19  C   UNL     1      48.894   5.402  17.327  0.00  0.00    +0.000 C 
BRANCH  19  20
ATOM     20  N   UNL     1      48.037   5.524  16.171  0.00  0.00    +0.000 N 
ATOM     21  C   UNL     1      48.437   6.119  15.015  0.00  0.00    +0.000 C 
ATOM     22  O   UNL     1      49.558   6.616  14.890  0.00  0.00    +0.000 OA
ATOM     23  H   UNL     1      47.063   5.315  16.340  0.00  0.00    +0.000 HD
BRANCH  21  24
ATOM     24  C   UNL     1      47.473   6.129  13.912  0.00  0.00    +0.000 A 
ATOM     25  C   UNL     1      47.133   7.318  13.281  0.00  0.00    +0.000 A 
ATOM     26  S   UNL     1      46.008   7.118  12.013  0.00  0.00    +0.000 S 
ATOM     27  C   UNL     1      45.922   5.439  12.279  0.00  0.00    +0.000 A 
ATOM     28  N   UNL     1      45.095   4.648  11.544  0.00  0.00    +0.000 NA
ATOM     29  C   UNL     1      45.108   3.402  11.880  0.00  0.00    +0.000 A 
ATOM     30  N   UNL     1      45.883   2.870  12.879  0.00  0.00    +0.000 N 
ATOM     31  C   UNL     1      46.745   3.617  13.627  0.00  0.00    +0.000 A 
ATOM     32  O   UNL     1      47.423   3.084  14.510  0.00  0.00    +0.000 OA
ATOM     33  C   UNL     1      46.752   5.033  13.311  0.00  0.00    +0.000 A 
ATOM     34  H   UNL     1      45.849   1.880  13.093  0.00  0.00    +0.000 HD
ENDBRANCH  21  24
ENDBRANCH  19  20
ENDBRANCH   5  19
TORSDOF 7
ENDMDL
MODEL 4
REMARK VINA RESULT:    -7.256      1.484      1.808
REMARK INTER + INTRA:         -11.134
REMARK INTER:                 -10.204
REMARK INTRA:                  -0.930
REMARK UNBOUND:                -1.121
REMARK  Name = 
REMARK  7 active torsions:
REMARK  status: ('A' for Active; 'I' for Inactive)
REMARK    1  A    between atoms: N_1  and  C_2
REMARK    2  A    between atoms: C_2  and  C_3
REMARK    3  A    between atoms: C_2  and  C_25
REMARK    4  A    between atoms: C_3  and  N_4
REMARK    5  A    between atoms: C_8  and  C_9
REMARK    6  A    between atoms: C_9  and  N_10
REMARK    7  A    between atoms: C_11  and  C_13
REMARK                            x       y       z     vdW  Elec       q    Type
REMARK                         _______ _______ _______ _____ _____    ______ ____
ROOT
ATOM      1  N   UNL     1      43.215   5.633  11.065  0.00  0.00    +0.000 N 
ATOM      2  C   UNL     1      44.246   6.339  11.689  0.00  0.00    +0.000 A 
ATOM      3  C   UNL     1      44.575   7.653  11.299  0.00  0.00    +0.000 A 
ATOM      4  N   UNL     1      45.565   8.376  11.880  0.00  0.00    +0.000 NA
ATOM      5  C   UNL     1      46.225   7.762  12.895  0.00  0.00    +0.000 A 
ATOM      6  C   UNL     1      45.898   6.467  13.278  0.00  0.00    +0.000 A 
ATOM      7  N   UNL     1      44.930   5.745  12.690  0.00  0.00    +0.000 NA
ATOM      8  H   UNL     1      42.356   6.180  11.183  0.00  0.00    +0.000 HD
ENDROOT
BRANCH   1   9
ATOM      9  C   UNL     1      43.029   4.277  11.638  0.00  0.00    +0.000 C 
BRANCH   9  10
ATOM     10  C   UNL     1      43.902   3.204  10.913  0.00  0.00    +0.000 C 
BRANCH  10  11
ATOM     11  C   UNL     1      44.208   3.674   9.468  0.00  0.00    +0.000 C 
ATOM     12  C   UNL     1      44.584   2.591   8.465  0.00  0.00    +0.000 C 
ATOM     13  C   UNL     1      45.383   3.372   7.446  0.00  0.00    +0.000 C 
ATOM     14  C   UNL     1      46.104   4.390   8.302  0.00  0.00    +0.000 C 
ATOM     15  O   UNL     1      45.287   4.637   9.451  0.00  0.00    +0.000 OA
ENDBRANCH  10  11
BRANCH  10  16
ATOM     16  N   UNL     1      45.135   2.893  11.681  0.00  0.00    +0.000 NA
ATOM     17  H   UNL     1      45.634   3.763  11.865  0.00  0.00    +0.000 HD
ATOM     18  H   UNL     1      45.747   2.365  11.053  0.00  0.00    +0.000 HD
ENDBRANCH  10  16
ENDBRANCH   9  10
ENDBRANCH   1   9
BRANCH   5  19
ATOM     19  C   UNL     1      47.312   8.504  13.619  0.00  0.00    +0.000 C 
BRANCH  19  20
ATOM     20  N   UNL     1      47.675   7.849  14.855  0.00  0.00    +0.000 N 
ATOM     21  C   UNL     1      48.798   7.092  14.986  0.00  0.00    +0.000 C 
ATOM     22  O   UNL     1      49.569   6.898  14.045  0.00  0.00    +0.000 OA
ATOM     23  H   UNL     1      46.948   7.828  15.555  0.00  0.00    +0.000 HD
BRANCH  21  24
ATOM     24  C   UNL     1      49.060   6.528  16.313  0.00  0.00    +0.000 A 
ATOM     25  C   UNL     1      49.766   7.254  17.263  0.00  0.00    +0.000 A 
ATOM     26  S   UNL     1      49.952   6.431  18.747  0.00  0.00    +0.000 S 
ATOM     27  C   UNL     1      49.114   5.071  18.162  0.00  0.00    +0.000 A 
ATOM     28  N   UNL     1      48.943   3.961  18.931  0.00  0.00    +0.000 NA
ATOM     29  C   UNL     1      48.320   2.995  18.345  0.00  0.00    +0.000 A 
ATOM     30  N   UNL     1      47.840   3.040  17.060  0.00  0.00    +0.000 N 
ATOM     31  C   UNL     1      47.966   4.136  16.259  0.00  0.00    +0.000 A 
ATOM     32  O   UNL     1      47.509   4.123  15.113  0.00  0.00    +0.000 OA
ATOM     33  C   UNL     1      48.683   5.246  16.858  0.00  0.00    +0.000 A 
ATOM     34  H   UNL     1      47.356   2.246  16.658  0.00  0.00    +0.000 HD
ENDBRANCH  21  24
ENDBRANCH  19  20
ENDBRANCH   5  19
TORSDOF 7
ENDMDL
MODEL 5
REMARK VINA RESULT:    -6.938      2.928      8.270
REMARK INTER + INTRA:         -10.696
REMARK INTER:                  -9.179
REMARK INTRA:                  -1.517
REMARK UNBOUND:                -1.121
REMARK  Name = 
REMARK  7 active torsions:
REMARK  status: ('A' for Active; 'I' for Inactive)
REMARK    1  A    between atoms: N_1  and  C_2
REMARK    2  A    between atoms: C_2  and  C_3
REMARK    3  A    between atoms: C_2  and  C_25
REMARK    4  A    between atoms: C_3  and  N_4
REMARK    5  A    between atoms: C_8  and  C_9
REMARK    6  A    between atoms: C_9  and  N_10
REMARK    7  A    between atoms: C_11  and  C_13
REMARK                            x       y       z     vdW  Elec       q    Type
REMARK                         _______ _______ _______ _____ _____    ______ ____
ROOT
ATOM      1  N   UNL     1      49.985   7.112  17.356  0.00  0.00    +0.000 N 
ATOM      2  C   UNL     1      49.311   7.246  16.139  0.00  0.00    +0.000 A 
ATOM      3  C   UNL     1      48.668   8.449  15.786  0.00  0.00    +0.000 A 
ATOM      4  N   UNL     1      48.006   8.624  14.614  0.00  0.00    +0.000 NA
ATOM      5  C   UNL     1      48.012   7.559  13.771  0.00  0.00    +0.000 A 
ATOM      6  C   UNL     1      48.648   6.375  14.122  0.00  0.00    +0.000 A 
ATOM      7  N   UNL     1      49.286   6.198  15.290  0.00  0.00    +0.000 NA
ATOM      8  H   UNL     1      50.713   7.833  17.380  0.00  0.00    +0.000 HD
ENDROOT
BRANCH   1   9
ATOM      9  C   UNL     1      50.599   5.772  17.519  0.00  0.00    +0.000 C 
BRANCH   9  10
ATOM     10  C   UNL     1      50.234   5.119  18.891  0.00  0.00    +0.000 C 
BRANCH  10  11
ATOM     11  C   UNL     1      48.932   4.291  18.740  0.00  0.00    +0.000 C 
ATOM     12  C   UNL     1      48.974   3.129  17.756  0.00  0.00    +0.000 C 
ATOM     13  C   UNL     1      47.515   2.973  17.393  0.00  0.00    +0.000 C 
ATOM     14  C   UNL     1      47.018   4.402  17.404  0.00  0.00    +0.000 C 
ATOM     15  O   UNL     1      47.826   5.129  18.335  0.00  0.00    +0.000 OA
ENDBRANCH  10  11
BRANCH  10  16
ATOM     16  N   UNL     1      51.359   4.313  19.429  0.00  0.00    +0.000 NA
ATOM     17  H   UNL     1      51.009   3.726  20.186  0.00  0.00    +0.000 HD
ATOM     18  H   UNL     1      52.001   4.970  19.881  0.00  0.00    +0.000 HD
ENDBRANCH  10  16
ENDBRANCH   9  10
ENDBRANCH   1   9
BRANCH   5  19
ATOM     19  C   UNL     1      47.334   7.678  12.435  0.00  0.00    +0.000 C 
BRANCH  19  20
ATOM     20  N   UNL     1      46.663   6.453  12.065  0.00  0.00    +0.000 N 
ATOM     21  C   UNL     1      45.314   6.297  12.148  0.00  0.00    +0.000 C 
ATOM     22  O   UNL     1      44.578   7.191  12.570  0.00  0.00    +0.000 OA
ATOM     23  H   UNL     1      47.272   5.659  11.927  0.00  0.00    +0.000 HD
BRANCH  21  24
ATOM     24  C   UNL     1      44.771   5.014  11.695  0.00  0.00    +0.000 A 
ATOM     25  C   UNL     1      44.006   4.230  12.548  0.00  0.00    +0.000 A 
ATOM     26  S   UNL     1      43.454   2.783  11.829  0.00  0.00    +0.000 S 
ATOM     27  C   UNL     1      44.237   3.147  10.363  0.00  0.00    +0.000 A 
ATOM     28  N   UNL     1      44.199   2.287   9.309  0.00  0.00    +0.000 NA
ATOM     29  C   UNL     1      44.866   2.677   8.276  0.00  0.00    +0.000 A 
ATOM     30  N   UNL     1      45.561   3.858   8.195  0.00  0.00    +0.000 N 
ATOM     31  C   UNL     1      45.609   4.762   9.214  0.00  0.00    +0.000 A 
ATOM     32  O   UNL     1      46.245   5.812   9.083  0.00  0.00    +0.000 OA
ATOM     33  C   UNL     1      44.898   4.363  10.414  0.00  0.00    +0.000 A 
ATOM     34  H   UNL     1      46.064   4.108   7.352  0.00  0.00    +0.000 HD
ENDBRANCH  21  24
ENDBRANCH  19  20
ENDBRANCH   5  19
TORSDOF 7
ENDMDL
MODEL 6
REMARK VINA RESULT:    -6.834      1.856      2.401
REMARK INTER + INTRA:         -10.552
REMARK INTER:                  -9.594
REMARK INTRA:                  -0.958
REMARK UNBOUND:                -1.121
REMARK  Name = 
REMARK  7 active torsions:
REMARK  status: ('A' for Active; 'I' for Inactive)
REMARK    1  A    between atoms: N_1  and  C_2
REMARK    2  A    between atoms: C_2  and  C_3
REMARK    3  A    between atoms: C_2  and  C_25
REMARK    4  A    between atoms: C_3  and  N_4
REMARK    5  A    between atoms: C_8  and  C_9
REMARK    6  A    between atoms: C_9  and  N_10
REMARK    7  A    between atoms: C_11  and  C_13
REMARK                            x       y       z     vdW  Elec       q    Type
REMARK                         _______ _______ _______ _____ _____    ______ ____
ROOT
ATOM      1  N   UNL     1      43.845   5.971  12.373  0.00  0.00    +0.000 N 
ATOM      2  C   UNL     1      45.145   6.474  12.470  0.00  0.00    +0.000 A 
ATOM      3  C   UNL     1      45.417   7.843  12.280  0.00  0.00    +0.000 A 
ATOM      4  N   UNL     1      46.663   8.375  12.370  0.00  0.00    +0.000 NA
ATOM      5  C   UNL     1      47.655   7.500  12.678  0.00  0.00    +0.000 A 
ATOM      6  C   UNL     1      47.383   6.151  12.865  0.00  0.00    +0.000 A 
ATOM      7  N   UNL     1      46.153   5.623  12.758  0.00  0.00    +0.000 NA
ATOM      8  H   UNL     1      43.275   6.465  13.067  0.00  0.00    +0.000 HD
ENDROOT
BRANCH   1   9
ATOM      9  C   UNL     1      43.783   4.510  12.620  0.00  0.00    +0.000 C 
BRANCH   9  10
ATOM     10  C   UNL     1      43.401   3.709  11.334  0.00  0.00    +0.000 C 
BRANCH  10  11
ATOM     11  C   UNL     1      44.571   3.769  10.319  0.00  0.00    +0.000 C 
ATOM     12  C   UNL     1      44.252   4.349   8.947  0.00  0.00    +0.000 C 
ATOM     13  C   UNL     1      45.316   3.710   8.082  0.00  0.00    +0.000 C 
ATOM     14  C   UNL     1      45.463   2.337   8.701  0.00  0.00    +0.000 C 
ATOM     15  O   UNL     1      45.126   2.454  10.087  0.00  0.00    +0.000 OA
ENDBRANCH  10  11
BRANCH  10  16
ATOM     16  N   UNL     1      43.001   2.316  11.657  0.00  0.00    +0.000 NA
ATOM     17  H   UNL     1      43.657   1.937  12.340  0.00  0.00    +0.000 HD
ATOM     18  H   UNL     1      43.153   1.762  10.810  0.00  0.00    +0.000 HD
ENDBRANCH  10  16
ENDBRANCH   9  10
ENDBRANCH   1   9
BRANCH   5  19
ATOM     19  C   UNL     1      49.060   8.009  12.833  0.00  0.00    +0.000 C 
BRANCH  19  20
ATOM     20  N   UNL     1      49.792   7.264  13.830  0.00  0.00    +0.000 N 
ATOM     21  C   UNL     1      50.073   7.762  15.064  0.00  0.00    +0.000 C 
ATOM     22  O   UNL     1      49.738   8.898  15.403  0.00  0.00    +0.000 OA
ATOM     23  H   UNL     1      50.248   6.430  13.488  0.00  0.00    +0.000 HD
BRANCH  21  24
ATOM     24  C   UNL     1      50.785   6.872  15.986  0.00  0.00    +0.000 A 
ATOM     25  C   UNL     1      52.134   7.063  16.252  0.00  0.00    +0.000 A 
ATOM     26  S   UNL     1      52.775   5.934  17.361  0.00  0.00    +0.000 S 
ATOM     27  C   UNL     1      51.276   5.141  17.506  0.00  0.00    +0.000 A 
ATOM     28  N   UNL     1      51.132   4.039  18.291  0.00  0.00    +0.000 NA
ATOM     29  C   UNL     1      49.950   3.523  18.277  0.00  0.00    +0.000 A 
ATOM     30  N   UNL     1      48.891   4.016  17.557  0.00  0.00    +0.000 N 
ATOM     31  C   UNL     1      48.978   5.130  16.776  0.00  0.00    +0.000 A 
ATOM     32  O   UNL     1      47.991   5.532  16.155  0.00  0.00    +0.000 OA
ATOM     33  C   UNL     1      50.295   5.738  16.732  0.00  0.00    +0.000 A 
ATOM     34  H   UNL     1      47.984   3.564  17.591  0.00  0.00    +0.000 HD
ENDBRANCH  21  24
ENDBRANCH  19  20
ENDBRANCH   5  19
TORSDOF 7
ENDMDL
MODEL 7
REMARK VINA RESULT:    -6.525      3.619      9.076
REMARK INTER + INTRA:         -10.126
REMARK INTER:                  -8.722
REMARK INTRA:                  -1.404
REMARK UNBOUND:                -1.121
REMARK  Name = 
REMARK  7 active torsions:
REMARK  status: ('A' for Active; 'I' for Inactive)
REMARK    1  A    between atoms: N_1  and  C_2
REMARK    2  A    between atoms: C_2  and  C_3
REMARK    3  A    between atoms: C_2  and  C_25
REMARK    4  A    between atoms: C_3  and  N_4
REMARK    5  A    between atoms: C_8  and  C_9
REMARK    6  A    between atoms: C_9  and  N_10
REMARK    7  A    between atoms: C_11  and  C_13
REMARK                            x       y       z     vdW  Elec       q    Type
REMARK                         _______ _______ _______ _____ _____    ______ ____
ROOT
ATOM      1  N   UNL     1      52.575   3.733  18.302  0.00  0.00    +0.000 N 
ATOM      2  C   UNL     1      51.231   3.651  17.930  0.00  0.00    +0.000 A 
ATOM      3  C   UNL     1      50.752   2.584  17.143  0.00  0.00    +0.000 A 
ATOM      4  N   UNL     1      49.455   2.462  16.762  0.00  0.00    +0.000 NA
ATOM      5  C   UNL     1      48.618   3.436  17.205  0.00  0.00    +0.000 A 
ATOM      6  C   UNL     1      49.094   4.486  17.981  0.00  0.00    +0.000 A 
ATOM      7  N   UNL     1      50.381   4.614  18.342  0.00  0.00    +0.000 NA
ATOM      8  H   UNL     1      52.798   2.881  18.827  0.00  0.00    +0.000 HD
ENDROOT
BRANCH   1   9
ATOM      9  C   UNL     1      52.860   4.925  19.137  0.00  0.00    +0.000 C 
BRANCH   9  10
ATOM     10  C   UNL     1      54.016   5.796  18.548  0.00  0.00    +0.000 C 
BRANCH  10  11
ATOM     11  C   UNL     1      53.426   6.859  17.588  0.00  0.00    +0.000 C 
ATOM     12  C   UNL     1      52.282   7.706  18.130  0.00  0.00    +0.000 C 
ATOM     13  C   UNL     1      51.576   8.127  16.860  0.00  0.00    +0.000 C 
ATOM     14  C   UNL     1      51.735   6.910  15.975  0.00  0.00    +0.000 C 
ATOM     15  O   UNL     1      52.941   6.249  16.370  0.00  0.00    +0.000 OA
ENDBRANCH  10  11
BRANCH  10  16
ATOM     16  N   UNL     1      54.847   6.399  19.621  0.00  0.00    +0.000 NA
ATOM     17  H   UNL     1      54.365   7.221  19.985  0.00  0.00    +0.000 HD
ATOM     18  H   UNL     1      55.689   6.765  19.171  0.00  0.00    +0.000 HD
ENDBRANCH  10  16
ENDBRANCH   9  10
ENDBRANCH   1   9
BRANCH   5  19
ATOM     19  C   UNL     1      47.158   3.361  16.861  0.00  0.00    +0.000 C 
BRANCH  19  20
ATOM     20  N   UNL     1      46.789   4.350  15.876  0.00  0.00    +0.000 N 
ATOM     21  C   UNL     1      46.820   4.107  14.538  0.00  0.00    +0.000 C 
ATOM     22  O   UNL     1      47.191   3.025  14.079  0.00  0.00    +0.000 OA
ATOM     23  H   UNL     1      46.694   5.291  16.232  0.00  0.00    +0.000 HD
BRANCH  21  24
ATOM     24  C   UNL     1      46.374   5.192  13.661  0.00  0.00    +0.000 A 
ATOM     25  C   UNL     1      47.162   6.320  13.475  0.00  0.00    +0.000 A 
ATOM     26  S   UNL     1      46.476   7.461  12.407  0.00  0.00    +0.000 S 
ATOM     27  C   UNL     1      45.094   6.496  12.175  0.00  0.00    +0.000 A 
ATOM     28  N   UNL     1      44.067   6.911  11.385  0.00  0.00    +0.000 NA
ATOM     29  C   UNL     1      43.070   6.093  11.330  0.00  0.00    +0.000 A 
ATOM     30  N   UNL     1      43.010   4.889  11.985  0.00  0.00    +0.000 N 
ATOM     31  C   UNL     1      44.023   4.419  12.769  0.00  0.00    +0.000 A 
ATOM     32  O   UNL     1      43.917   3.326  13.330  0.00  0.00    +0.000 OA
ATOM     33  C   UNL     1      45.161   5.312  12.889  0.00  0.00    +0.000 A 
ATOM     34  H   UNL     1      42.198   4.290  11.898  0.00  0.00    +0.000 HD
ENDBRANCH  21  24
ENDBRANCH  19  20
ENDBRANCH   5  19
TORSDOF 7
ENDMDL
MODEL 8
REMARK VINA RESULT:    -6.391      3.404      4.846
REMARK INTER + INTRA:          -9.940
REMARK INTER:                  -8.649
REMARK INTRA:                  -1.291
REMARK UNBOUND:                -1.121
REMARK  Name = 
REMARK  7 active torsions:
REMARK  status: ('A' for Active; 'I' for Inactive)
REMARK    1  A    between atoms: N_1  and  C_2
REMARK    2  A    between atoms: C_2  and  C_3
REMARK    3  A    between atoms: C_2  and  C_25
REMARK    4  A    between atoms: C_3  and  N_4
REMARK    5  A    between atoms: C_8  and  C_9
REMARK    6  A    between atoms: C_9  and  N_10
REMARK    7  A    between atoms: C_11  and  C_13
REMARK                            x       y       z     vdW  Elec       q    Type
REMARK                         _______ _______ _______ _____ _____    ______ ____
ROOT
ATOM      1  N   UNL     1      44.711   5.730  10.648  0.00  0.00    +0.000 N 
ATOM      2  C   UNL     1      45.451   6.519  11.531  0.00  0.00    +0.000 A 
ATOM      3  C   UNL     1      45.231   7.907  11.633  0.00  0.00    +0.000 A 
ATOM      4  N   UNL     1      45.924   8.711  12.481  0.00  0.00    +0.000 NA
ATOM      5  C   UNL     1      46.848   8.089  13.257  0.00  0.00    +0.000 A 
ATOM      6  C   UNL     1      47.061   6.720  13.154  0.00  0.00    +0.000 A 
ATOM      7  N   UNL     1      46.388   5.929  12.303  0.00  0.00    +0.000 NA
ATOM      8  H   UNL     1      43.723   5.835  10.900  0.00  0.00    +0.000 HD
ENDROOT
BRANCH   1   9
ATOM      9  C   UNL     1      45.093   4.298  10.710  0.00  0.00    +0.000 C 
BRANCH   9  10
ATOM     10  C   UNL     1      44.138   3.394   9.865  0.00  0.00    +0.000 C 
BRANCH  10  11
ATOM     11  C   UNL     1      44.790   3.091   8.492  0.00  0.00    +0.000 C 
ATOM     12  C   UNL     1      45.809   1.958   8.458  0.00  0.00    +0.000 C 
ATOM     13  C   UNL     1      46.650   2.330   7.257  0.00  0.00    +0.000 C 
ATOM     14  C   UNL     1      46.672   3.841   7.326  0.00  0.00    +0.000 C 
ATOM     15  O   UNL     1      45.461   4.258   7.965  0.00  0.00    +0.000 OA
ENDBRANCH  10  11
BRANCH  10  16
ATOM     16  N   UNL     1      43.763   2.160  10.600  0.00  0.00    +0.000 NA
ATOM     17  H   UNL     1      42.926   2.349  11.152  0.00  0.00    +0.000 HD
ATOM     18  H   UNL     1      44.500   1.991  11.289  0.00  0.00    +0.000 HD
ENDBRANCH  10  16
ENDBRANCH   9  10
ENDBRANCH   1   9
BRANCH   5  19
ATOM     19  C   UNL     1      47.635   8.896  14.250  0.00  0.00    +0.000 C 
BRANCH  19  20
ATOM     20  N   UNL     1      48.993   9.109  13.810  0.00  0.00    +0.000 N 
ATOM     21  C   UNL     1      50.054   8.441  14.339  0.00  0.00    +0.000 C 
ATOM     22  O   UNL     1      49.921   7.623  15.251  0.00  0.00    +0.000 OA
ATOM     23  H   UNL     1      49.129   9.921  13.224  0.00  0.00    +0.000 HD
BRANCH  21  24
ATOM     24  C   UNL     1      51.369   8.729  13.760  0.00  0.00    +0.000 A 
ATOM     25  C   UNL     1      52.372   9.299  14.533  0.00  0.00    +0.000 A 
ATOM     26  S   UNL     1      53.831   9.542  13.682  0.00  0.00    +0.000 S 
ATOM     27  C   UNL     1      53.165   8.914  12.248  0.00  0.00    +0.000 A 
ATOM     28  N   UNL     1      53.885   8.865  11.095  0.00  0.00    +0.000 NA
ATOM     29  C   UNL     1      53.241   8.398  10.080  0.00  0.00    +0.000 A 
ATOM     30  N   UNL     1      51.940   7.961  10.114  0.00  0.00    +0.000 N 
ATOM     31  C   UNL     1      51.185   7.967  11.249  0.00  0.00    +0.000 A 
ATOM     32  O   UNL     1      50.022   7.557  11.223  0.00  0.00    +0.000 OA
ATOM     33  C   UNL     1      51.851   8.509  12.419  0.00  0.00    +0.000 A 
ATOM     34  H   UNL     1      51.491   7.602   9.280  0.00  0.00    +0.000 HD
ENDBRANCH  21  24
ENDBRANCH  19  20
ENDBRANCH   5  19
TORSDOF 7
ENDMDL
MODEL 9
REMARK VINA RESULT:    -6.213      3.508      8.688
REMARK INTER + INTRA:          -9.696
REMARK INTER:                  -8.793
REMARK INTRA:                  -0.903
REMARK UNBOUND:                -1.121
REMARK  Name = 
REMARK  7 active torsions:
REMARK  status: ('A' for Active; 'I' for Inactive)
REMARK    1  A    between atoms: N_1  and  C_2
REMARK    2  A    between atoms: C_2  and  C_3
REMARK    3  A    between atoms: C_2  and  C_25
REMARK    4  A    between atoms: C_3  and  N_4
REMARK    5  A    between atoms: C_8  and  C_9
REMARK    6  A    between atoms: C_9  and  N_10
REMARK    7  A    between atoms: C_11  and  C_13
REMARK                            x       y       z     vdW  Elec       q    Type
REMARK                         _______ _______ _______ _____ _____    ______ ____
ROOT
ATOM      1  N   UNL     1      51.162   6.326  16.785  0.00  0.00    +0.000 N 
ATOM      2  C   UNL     1      50.383   6.772  15.714  0.00  0.00    +0.000 A 
ATOM      3  C   UNL     1      50.817   7.820  14.878  0.00  0.00    +0.000 A 
ATOM      4  N   UNL     1      50.095   8.281  13.826  0.00  0.00    +0.000 NA
ATOM      5  C   UNL     1      48.913   7.652  13.603  0.00  0.00    +0.000 A 
ATOM      6  C   UNL     1      48.488   6.619  14.428  0.00  0.00    +0.000 A 
ATOM      7  N   UNL     1      49.195   6.176  15.480  0.00  0.00    +0.000 NA
ATOM      8  H   UNL     1      52.061   6.018  16.399  0.00  0.00    +0.000 HD
ENDROOT
BRANCH   1   9
ATOM      9  C   UNL     1      50.525   5.209  17.524  0.00  0.00    +0.000 C 
BRANCH   9  10
ATOM     10  C   UNL     1      50.727   5.331  19.068  0.00  0.00    +0.000 C 
BRANCH  10  11
ATOM     11  C   UNL     1      49.346   5.403  19.768  0.00  0.00    +0.000 C 
ATOM     12  C   UNL     1      48.124   5.454  18.859  0.00  0.00    +0.000 C 
ATOM     13  C   UNL     1      47.101   6.124  19.748  0.00  0.00    +0.000 C 
ATOM     14  C   UNL     1      47.940   7.106  20.536  0.00  0.00    +0.000 C 
ATOM     15  O   UNL     1      49.260   6.559  20.632  0.00  0.00    +0.000 OA
ENDBRANCH  10  11
BRANCH  10  16
ATOM     16  N   UNL     1      51.574   4.231  19.597  0.00  0.00    +0.000 NA
ATOM     17  H   UNL     1      51.004   3.389  19.679  0.00  0.00    +0.000 HD
ATOM     18  H   UNL     1      51.814   4.482  20.559  0.00  0.00    +0.000 HD
ENDBRANCH  10  16
ENDBRANCH   9  10
ENDBRANCH   1   9
BRANCH   5  19
ATOM     19  C   UNL     1      48.066   8.074  12.436  0.00  0.00    +0.000 C 
BRANCH  19  20
ATOM     20  N   UNL     1      47.406   6.948  11.819  0.00  0.00    +0.000 N 
ATOM     21  C   UNL     1      46.091   6.964  11.468  0.00  0.00    +0.000 C 
ATOM     22  O   UNL     1      45.371   7.942  11.678  0.00  0.00    +0.000 OA
ATOM     23  H   UNL     1      47.928   6.084  11.842  0.00  0.00    +0.000 HD
BRANCH  21  24
ATOM     24  C   UNL     1      45.571   5.764  10.809  0.00  0.00    +0.000 A 
ATOM     25  C   UNL     1      45.791   5.550   9.454  0.00  0.00    +0.000 A 
ATOM     26  S   UNL     1      45.119   4.090   8.879  0.00  0.00    +0.000 S 
ATOM     27  C   UNL     1      44.496   3.706  10.415  0.00  0.00    +0.000 A 
ATOM     28  N   UNL     1      43.763   2.578  10.619  0.00  0.00    +0.000 NA
ATOM     29  C   UNL     1      43.326   2.434  11.824  0.00  0.00    +0.000 A 
ATOM     30  N   UNL     1      43.564   3.312  12.852  0.00  0.00    +0.000 N 
ATOM     31  C   UNL     1      44.312   4.442  12.703  0.00  0.00    +0.000 A 
ATOM     32  O   UNL     1      44.500   5.193  13.664  0.00  0.00    +0.000 OA
ATOM     33  C   UNL     1      44.809   4.669  11.359  0.00  0.00    +0.000 A 
ATOM     34  H   UNL     1      43.194   3.140  13.779  0.00  0.00    +0.000 HD
ENDBRANCH  21  24
ENDBRANCH  19  20
ENDBRANCH   5  19
TORSDOF 7
ENDMDL
