MODEL 1
REMARK VINA RESULT:    -7.264      0.000      0.000
REMARK INTER + INTRA:          -9.559
REMARK INTER:                  -9.175
REMARK INTRA:                  -0.384
REMARK UNBOUND:                -0.384
REMARK  Name = 
REMARK  5 active torsions:
REMARK  status: ('A' for Active; 'I' for Inactive)
REMARK    1  A    between atoms: N_1  and  C_2
REMARK    2  A    between atoms: C_2  and  C_3
REMARK    3  A    between atoms: C_6  and  C_7
REMARK    4  A    between atoms: C_7  and  C_8
REMARK    5  A    between atoms: C_8  and  C_9
REMARK                            x       y       z     vdW  Elec       q    Type
REMARK                         _______ _______ _______ _____ _____    ______ ____
ROOT
ATOM      1  C   UNL     1      46.327   4.538  13.544  0.00  0.00    +0.000 A 
ATOM      2  C   UNL     1      46.092   5.591  12.667  0.00  0.00    +0.000 A 
ATOM      3  N   UNL     1      45.425   5.445  11.494  0.00  0.00    +0.000 NA
ATOM      4  C   UNL     1      44.995   4.193  11.207  0.00  0.00    +0.000 A 
ATOM      5  C   UNL     1      45.206   3.145  12.099  0.00  0.00    +0.000 A 
ATOM      6  N   UNL     1      45.874   3.288  13.270  0.00  0.00    +0.000 NA
ENDROOT
BRANCH   1   7
ATOM      7  C   UNL     1      47.118   4.751  14.811  0.00  0.00    +0.000 C 
BRANCH   7   8
ATOM      8  N   UNL     1      47.492   3.500  15.479  0.00  0.00    +0.000 NA
ATOM      9  H   UNL     1      48.120   3.721  16.251  0.00  0.00    +0.000 HD
ATOM     10  H   UNL     1      48.044   2.945  14.824  0.00  0.00    +0.000 HD
ENDBRANCH   7   8
ENDBRANCH   1   7
BRANCH   4  11
ATOM     11  C   UNL     1      44.227   3.964   9.929  0.00  0.00    +0.000 C 
BRANCH  11  12
ATOM     12  C   UNL     1      44.410   2.548   9.369  0.00  0.00    +0.000 C 
BRANCH  12  13
ATOM     13  C   UNL     1      45.525   2.468   8.352  0.00  0.00    +0.000 A 
ATOM     14  C   UNL     1      46.240   1.276   8.173  0.00  0.00    +0.000 A 
ATOM     15  C   UNL     1      47.249   1.193   7.212  0.00  0.00    +0.000 A 
ATOM     16  C   UNL     1      47.558   2.301   6.426  0.00  0.00    +0.000 A 
ATOM     17  C   UNL     1      46.864   3.495   6.606  0.00  0.00    +0.000 A 
ATOM     18  C   UNL     1      45.854   3.581   7.567  0.00  0.00    +0.000 A 
ENDBRANCH  12  13
ENDBRANCH  11  12
ENDBRANCH   4  11
TORSDOF 5
ENDMDL
MODEL 2
REMARK VINA RESULT:    -6.920      0.939      1.445
REMARK INTER + INTRA:          -9.124
REMARK INTER:                  -8.760
REMARK INTRA:                  -0.363
REMARK UNBOUND:                -0.384
REMARK  Name = 
REMARK  5 active torsions:
REMARK  status: ('A' for Active; 'I' for Inactive)
REMARK    1  A    between atoms: N_1  and  C_2
REMARK    2  A    between atoms: C_2  and  C_3
REMARK    3  A    between atoms: C_6  and  C_7
REMARK    4  A    between atoms: C_7  and  C_8
REMARK    5  A    between atoms: C_8  and  C_9
REMARK                            x       y       z     vdW  Elec       q    Type
REMARK                         _______ _______ _______ _____ _____    ______ ____
ROOT
ATOM      1  C   UNL     1      46.641   5.544  12.827  0.00  0.00    +0.000 A 
ATOM      2  C   UNL     1      46.032   4.309  13.017  0.00  0.00    +0.000 A 
ATOM      3  N   UNL     1      45.204   3.742  12.103  0.00  0.00    +0.000 NA
ATOM      4  C   UNL     1      44.987   4.457  10.973  0.00  0.00    +0.000 A 
ATOM      5  C   UNL     1      45.620   5.680  10.772  0.00  0.00    +0.000 A 
ATOM      6  N   UNL     1      46.446   6.251  11.684  0.00  0.00    +0.000 NA
ENDROOT
BRANCH   1   7
ATOM      7  C   UNL     1      47.514   6.148  13.900  0.00  0.00    +0.000 C 
BRANCH   7   8
ATOM      8  N   UNL     1      47.590   5.330  15.114  0.00  0.00    +0.000 NA
ATOM      9  H   UNL     1      48.115   4.483  14.901  0.00  0.00    +0.000 HD
ATOM     10  H   UNL     1      46.646   5.018  15.346  0.00  0.00    +0.000 HD
ENDBRANCH   7   8
ENDBRANCH   1   7
BRANCH   4  11
ATOM     11  C   UNL     1      44.095   3.875   9.905  0.00  0.00    +0.000 C 
BRANCH  11  12
ATOM     12  C   UNL     1      44.492   2.448   9.509  0.00  0.00    +0.000 C 
BRANCH  12  13
ATOM     13  C   UNL     1      45.525   2.420   8.406  0.00  0.00    +0.000 A 
ATOM     14  C   UNL     1      46.279   1.263   8.167  0.00  0.00    +0.000 A 
ATOM     15  C   UNL     1      47.211   1.228   7.128  0.00  0.00    +0.000 A 
ATOM     16  C   UNL     1      47.404   2.349   6.324  0.00  0.00    +0.000 A 
ATOM     17  C   UNL     1      46.671   3.509   6.563  0.00  0.00    +0.000 A 
ATOM     18  C   UNL     1      45.738   3.548   7.601  0.00  0.00    +0.000 A 
ENDBRANCH  12  13
ENDBRANCH  11  12
ENDBRANCH   4  11
TORSDOF 5
ENDMDL
MODEL 3
REMARK VINA RESULT:    -6.774      2.652      6.024
REMARK INTER + INTRA:          -8.939
REMARK INTER:                  -8.608
REMARK INTRA:                  -0.331
REMARK UNBOUND:                -0.384
REMARK  Name = 
REMARK  5 active torsions:
REMARK  status: ('A' for Active; 'I' for Inactive)
REMARK    1  A    between atoms: N_1  and  C_2
REMARK    2  A    between atoms: C_2  and  C_3
REMARK    3  A    between atoms: C_6  and  C_7
REMARK    4  A    between atoms: C_7  and  C_8
REMARK    5  A    between atoms: C_8  and  C_9
REMARK                            x       y       z     vdW  Elec       q    Type
REMARK                         _______ _______ _______ _____ _____    ______ ____
ROOT
ATOM      1  C   UNL     1      46.615   2.790   6.874  0.00  0.00    +0.000 A 
ATOM      2  C   UNL     1      46.466   1.654   7.661  0.00  0.00    +0.000 A 
ATOM      3  N   UNL     1      45.715   1.628   8.791  0.00  0.00    +0.000 NA
ATOM      4  C   UNL     1      45.111   2.792   9.130  0.00  0.00    +0.000 A 
ATOM      5  C   UNL     1      45.238   3.921   8.327  0.00  0.00    +0.000 A 
ATOM      6  N   UNL     1      45.989   3.951   7.198  0.00  0.00    +0.000 NA
ENDROOT
BRANCH   1   7
ATOM      7  C   UNL     1      47.503   2.773   5.653  0.00  0.00    +0.000 C 
BRANCH   7   8
ATOM      8  N   UNL     1      48.562   1.761   5.720  0.00  0.00    +0.000 NA
ATOM      9  H   UNL     1      48.410   1.189   6.550  0.00  0.00    +0.000 HD
ATOM     10  H   UNL     1      49.449   2.241   5.875  0.00  0.00    +0.000 HD
ENDBRANCH   7   8
ENDBRANCH   1   7
BRANCH   4  11
ATOM     11  C   UNL     1      44.243   2.827  10.364  0.00  0.00    +0.000 C 
BRANCH  11  12
ATOM     12  C   UNL     1      43.991   4.251  10.875  0.00  0.00    +0.000 C 
BRANCH  12  13
ATOM     13  C   UNL     1      45.127   4.769  11.726  0.00  0.00    +0.000 A 
ATOM     14  C   UNL     1      45.587   4.031  12.825  0.00  0.00    +0.000 A 
ATOM     15  C   UNL     1      46.657   4.495  13.592  0.00  0.00    +0.000 A 
ATOM     16  C   UNL     1      47.272   5.704  13.274  0.00  0.00    +0.000 A 
ATOM     17  C   UNL     1      46.812   6.454  12.193  0.00  0.00    +0.000 A 
ATOM     18  C   UNL     1      45.743   5.992  11.424  0.00  0.00    +0.000 A 
ENDBRANCH  12  13
ENDBRANCH  11  12
ENDBRANCH   4  11
TORSDOF 5
ENDMDL
MODEL 4
REMARK VINA RESULT:    -6.649      1.676      2.716
REMARK INTER + INTRA:          -8.782
REMARK INTER:                  -8.392
REMARK INTRA:                  -0.390
REMARK UNBOUND:                -0.384
REMARK  Name = 
REMARK  5 active torsions:
REMARK  status: ('A' for Active; 'I' for Inactive)
REMARK    1  A    between atoms: N_1  and  C_2
REMARK    2  A    between atoms: C_2  and  C_3
REMARK    3  A    between atoms: C_6  and  C_7
REMARK    4  A    between atoms: C_7  and  C_8
REMARK    5  A    between atoms: C_8  and  C_9
REMARK                            x       y       z     vdW  Elec       q    Type
REMARK                         _______ _______ _______ _____ _____    ______ ____
ROOT
ATOM      1  C   UNL     1      45.514   7.247  12.490  0.00  0.00    +0.000 A 
ATOM      2  C   UNL     1      46.240   6.179  13.006  0.00  0.00    +0.000 A 
ATOM      3  N   UNL     1      46.023   4.890  12.641  0.00  0.00    +0.000 NA
ATOM      4  C   UNL     1      45.037   4.686  11.735  0.00  0.00    +0.000 A 
ATOM      5  C   UNL     1      44.330   5.758  11.198  0.00  0.00    +0.000 A 
ATOM      6  N   UNL     1      44.543   7.048  11.562  0.00  0.00    +0.000 NA
ENDROOT
BRANCH   1   7
ATOM      7  C   UNL     1      45.766   8.655  12.969  0.00  0.00    +0.000 C 
BRANCH   7   8
ATOM      8  N   UNL     1      44.641   9.562  12.723  0.00  0.00    +0.000 NA
ATOM      9  H   UNL     1      44.472   9.602  11.718  0.00  0.00    +0.000 HD
ATOM     10  H   UNL     1      44.929  10.504  12.991  0.00  0.00    +0.000 HD
ENDBRANCH   7   8
ENDBRANCH   1   7
BRANCH   4  11
ATOM     11  C   UNL     1      44.758   3.278  11.269  0.00  0.00    +0.000 C 
BRANCH  11  12
ATOM     12  C   UNL     1      44.199   3.223   9.842  0.00  0.00    +0.000 C 
BRANCH  12  13
ATOM     13  C   UNL     1      45.267   2.935   8.813  0.00  0.00    +0.000 A 
ATOM     14  C   UNL     1      45.749   1.631   8.633  0.00  0.00    +0.000 A 
ATOM     15  C   UNL     1      46.713   1.360   7.662  0.00  0.00    +0.000 A 
ATOM     16  C   UNL     1      47.211   2.389   6.865  0.00  0.00    +0.000 A 
ATOM     17  C   UNL     1      46.750   3.692   7.046  0.00  0.00    +0.000 A 
ATOM     18  C   UNL     1      45.786   3.966   8.017  0.00  0.00    +0.000 A 
ENDBRANCH  12  13
ENDBRANCH  11  12
ENDBRANCH   4  11
TORSDOF 5
ENDMDL
MODEL 5
REMARK VINA RESULT:    -5.255      1.670      3.054
REMARK INTER + INTRA:          -7.021
REMARK INTER:                  -6.688
REMARK INTRA:                  -0.333
REMARK UNBOUND:                -0.384
REMARK  Name = 
REMARK  5 active torsions:
REMARK  status: ('A' for Active; 'I' for Inactive)
REMARK    1  A    between atoms: N_1  and  C_2
REMARK    2  A    between atoms: C_2  and  C_3
REMARK    3  A    between atoms: C_6  and  C_7
REMARK    4  A    between atoms: C_7  and  C_8
REMARK    5  A    between atoms: C_8  and  C_9
REMARK                            x       y       z     vdW  Elec       q    Type
REMARK                         _______ _______ _______ _____ _____    ______ ____
ROOT
ATOM      1  C   UNL     1      47.907   5.510  15.294  0.00  0.00    +0.000 A 
ATOM      2  C   UNL     1      46.971   4.617  14.785  0.00  0.00    +0.000 A 
ATOM      3  N   UNL     1      46.346   4.798  13.594  0.00  0.00    +0.000 NA
ATOM      4  C   UNL     1      46.677   5.921  12.913  0.00  0.00    +0.000 A 
ATOM      5  C   UNL     1      47.635   6.800  13.410  0.00  0.00    +0.000 A 
ATOM      6  N   UNL     1      48.261   6.623  14.601  0.00  0.00    +0.000 NA
ENDROOT
BRANCH   1   7
ATOM      7  C   UNL     1      48.535   5.282  16.648  0.00  0.00    +0.000 C 
BRANCH   7   8
ATOM      8  N   UNL     1      47.687   5.717  17.762  0.00  0.00    +0.000 NA
ATOM      9  H   UNL     1      47.503   4.913  18.361  0.00  0.00    +0.000 HD
ATOM     10  H   UNL     1      46.779   5.989  17.381  0.00  0.00    +0.000 HD
ENDBRANCH   7   8
ENDBRANCH   1   7
BRANCH   4  11
ATOM     11  C   UNL     1      46.035   6.173  11.570  0.00  0.00    +0.000 C 
BRANCH  11  12
ATOM     12  C   UNL     1      44.793   5.307  11.332  0.00  0.00    +0.000 C 
BRANCH  12  13
ATOM     13  C   UNL     1      44.967   4.351  10.175  0.00  0.00    +0.000 A 
ATOM     14  C   UNL     1      44.446   3.051  10.242  0.00  0.00    +0.000 A 
ATOM     15  C   UNL     1      44.579   2.179   9.161  0.00  0.00    +0.000 A 
ATOM     16  C   UNL     1      45.241   2.592   8.007  0.00  0.00    +0.000 A 
ATOM     17  C   UNL     1      45.777   3.877   7.936  0.00  0.00    +0.000 A 
ATOM     18  C   UNL     1      45.644   4.752   9.016  0.00  0.00    +0.000 A 
ENDBRANCH  12  13
ENDBRANCH  11  12
ENDBRANCH   4  11
TORSDOF 5
ENDMDL
MODEL 6
REMARK VINA RESULT:    -5.151      2.427      4.577
REMARK INTER + INTRA:          -6.890
REMARK INTER:                  -6.630
REMARK INTRA:                  -0.260
REMARK UNBOUND:                -0.384
REMARK  Name = 
REMARK  5 active torsions:
REMARK  status: ('A' for Active; 'I' for Inactive)
REMARK    1  A    between atoms: N_1  and  C_2
REMARK    2  A    between atoms: C_2  and  C_3
REMARK    3  A    between atoms: C_6  and  C_7
REMARK    4  A    between atoms: C_7  and  C_8
REMARK    5  A    between atoms: C_8  and  C_9
REMARK                            x       y       z     vdW  Elec       q    Type
REMARK                         _______ _______ _______ _____ _____    ______ ____
ROOT
ATOM      1  C   UNL     1      48.147   4.704  17.482  0.00  0.00    +0.000 A 
ATOM      2  C   UNL     1      47.322   3.796  16.827  0.00  0.00    +0.000 A 
ATOM      3  N   UNL     1      46.950   3.936  15.529  0.00  0.00    +0.000 NA
ATOM      4  C   UNL     1      47.425   5.031  14.889  0.00  0.00    +0.000 A 
ATOM      5  C   UNL     1      48.273   5.924  15.538  0.00  0.00    +0.000 A 
ATOM      6  N   UNL     1      48.645   5.788  16.835  0.00  0.00    +0.000 NA
ENDROOT
BRANCH   1   7
ATOM      7  C   UNL     1      48.487   4.523  18.942  0.00  0.00    +0.000 C 
BRANCH   7   8
ATOM      8  N   UNL     1      48.330   3.142  19.408  0.00  0.00    +0.000 NA
ATOM      9  H   UNL     1      48.814   2.524  18.758  0.00  0.00    +0.000 HD
ATOM     10  H   UNL     1      47.342   2.895  19.338  0.00  0.00    +0.000 HD
ENDBRANCH   7   8
ENDBRANCH   1   7
BRANCH   4  11
ATOM     11  C   UNL     1      47.068   5.236  13.437  0.00  0.00    +0.000 C 
BRANCH  11  12
ATOM     12  C   UNL     1      45.562   5.131  13.173  0.00  0.00    +0.000 C 
BRANCH  12  13
ATOM     13  C   UNL     1      45.252   4.629  11.782  0.00  0.00    +0.000 A 
ATOM     14  C   UNL     1      45.571   5.405  10.659  0.00  0.00    +0.000 A 
ATOM     15  C   UNL     1      45.313   4.929   9.373  0.00  0.00    +0.000 A 
ATOM     16  C   UNL     1      44.728   3.676   9.196  0.00  0.00    +0.000 A 
ATOM     17  C   UNL     1      44.393   2.904  10.306  0.00  0.00    +0.000 A 
ATOM     18  C   UNL     1      44.649   3.378  11.593  0.00  0.00    +0.000 A 
ENDBRANCH  12  13
ENDBRANCH  11  12
ENDBRANCH   4  11
TORSDOF 5
ENDMDL
MODEL 7
REMARK VINA RESULT:    -5.142      2.874      7.460
REMARK INTER + INTRA:          -6.878
REMARK INTER:                  -6.588
REMARK INTRA:                  -0.290
REMARK UNBOUND:                -0.384
REMARK  Name = 
REMARK  5 active torsions:
REMARK  status: ('A' for Active; 'I' for Inactive)
REMARK    1  A    between atoms: N_1  and  C_2
REMARK    2  A    between atoms: C_2  and  C_3
REMARK    3  A    between atoms: C_6  and  C_7
REMARK    4  A    between atoms: C_7  and  C_8
REMARK    5  A    between atoms: C_8  and  C_9
REMARK                            x       y       z     vdW  Elec       q    Type
REMARK                         _______ _______ _______ _____ _____    ______ ____
ROOT
ATOM      1  C   UNL     1      45.245   4.660  11.697  0.00  0.00    +0.000 A 
ATOM      2  C   UNL     1      45.385   3.609  12.596  0.00  0.00    +0.000 A 
ATOM      3  N   UNL     1      46.100   3.708  13.746  0.00  0.00    +0.000 NA
ATOM      4  C   UNL     1      46.691   4.905  13.978  0.00  0.00    +0.000 A 
ATOM      5  C   UNL     1      46.527   5.964  13.090  0.00  0.00    +0.000 A 
ATOM      6  N   UNL     1      45.815   5.868  11.939  0.00  0.00    +0.000 NA
ENDROOT
BRANCH   1   7
ATOM      7  C   UNL     1      44.478   4.477  10.409  0.00  0.00    +0.000 C 
BRANCH   7   8
ATOM      8  N   UNL     1      43.365   5.419  10.258  0.00  0.00    +0.000 NA
ATOM      9  H   UNL     1      43.684   6.210   9.700  0.00  0.00    +0.000 HD
ATOM     10  H   UNL     1      43.146   5.801  11.179  0.00  0.00    +0.000 HD
ENDBRANCH   7   8
ENDBRANCH   1   7
BRANCH   4  11
ATOM     11  C   UNL     1      47.482   5.090  15.249  0.00  0.00    +0.000 C 
BRANCH  11  12
ATOM     12  C   UNL     1      47.404   3.877  16.182  0.00  0.00    +0.000 C 
BRANCH  12  13
ATOM     13  C   UNL     1      48.749   3.500  16.757  0.00  0.00    +0.000 A 
ATOM     14  C   UNL     1      49.247   2.198  16.609  0.00  0.00    +0.000 A 
ATOM     15  C   UNL     1      50.503   1.859  17.113  0.00  0.00    +0.000 A 
ATOM     16  C   UNL     1      51.272   2.814  17.775  0.00  0.00    +0.000 A 
ATOM     17  C   UNL     1      50.781   4.107  17.941  0.00  0.00    +0.000 A 
ATOM     18  C   UNL     1      49.524   4.449  17.438  0.00  0.00    +0.000 A 
ENDBRANCH  12  13
ENDBRANCH  11  12
ENDBRANCH   4  11
TORSDOF 5
ENDMDL
MODEL 8
REMARK VINA RESULT:    -5.069      3.754      6.080
REMARK INTER + INTRA:          -6.787
REMARK INTER:                  -6.454
REMARK INTRA:                  -0.333
REMARK UNBOUND:                -0.384
REMARK  Name = 
REMARK  5 active torsions:
REMARK  status: ('A' for Active; 'I' for Inactive)
REMARK    1  A    between atoms: N_1  and  C_2
REMARK    2  A    between atoms: C_2  and  C_3
REMARK    3  A    between atoms: C_6  and  C_7
REMARK    4  A    between atoms: C_7  and  C_8
REMARK    5  A    between atoms: C_8  and  C_9
REMARK                            x       y       z     vdW  Elec       q    Type
REMARK                         _______ _______ _______ _____ _____    ______ ____
ROOT
ATOM      1  C   UNL     1      50.568   2.381  17.199  0.00  0.00    +0.000 A 
ATOM      2  C   UNL     1      50.290   3.697  17.548  0.00  0.00    +0.000 A 
ATOM      3  N   UNL     1      49.193   4.365  17.109  0.00  0.00    +0.000 NA
ATOM      4  C   UNL     1      48.366   3.674  16.288  0.00  0.00    +0.000 A 
ATOM      5  C   UNL     1      48.631   2.347  15.962  0.00  0.00    +0.000 A 
ATOM      6  N   UNL     1      49.727   1.678  16.398  0.00  0.00    +0.000 NA
ENDROOT
BRANCH   1   7
ATOM      7  C   UNL     1      51.830   1.705  17.679  0.00  0.00    +0.000 C 
BRANCH   7   8
ATOM      8  N   UNL     1      51.629   0.304  18.059  0.00  0.00    +0.000 NA
ATOM      9  H   UNL     1      52.370   0.035  18.705  0.00  0.00    +0.000 HD
ATOM     10  H   UNL     1      51.767  -0.273  17.227  0.00  0.00    +0.000 HD
ENDBRANCH   7   8
ENDBRANCH   1   7
BRANCH   4  11
ATOM     11  C   UNL     1      47.115   4.349  15.780  0.00  0.00    +0.000 C 
BRANCH  11  12
ATOM     12  C   UNL     1      47.384   5.298  14.608  0.00  0.00    +0.000 C 
BRANCH  12  13
ATOM     13  C   UNL     1      46.526   4.989  13.403  0.00  0.00    +0.000 A 
ATOM     14  C   UNL     1      46.264   5.976  12.444  0.00  0.00    +0.000 A 
ATOM     15  C   UNL     1      45.496   5.681  11.316  0.00  0.00    +0.000 A 
ATOM     16  C   UNL     1      44.977   4.400  11.139  0.00  0.00    +0.000 A 
ATOM     17  C   UNL     1      45.218   3.416  12.095  0.00  0.00    +0.000 A 
ATOM     18  C   UNL     1      45.986   3.708  13.224  0.00  0.00    +0.000 A 
ENDBRANCH  12  13
ENDBRANCH  11  12
ENDBRANCH   4  11
TORSDOF 5
ENDMDL
MODEL 9
REMARK VINA RESULT:    -5.047      3.429      6.121
REMARK INTER + INTRA:          -6.759
REMARK INTER:                  -6.398
REMARK INTRA:                  -0.361
REMARK UNBOUND:                -0.384
REMARK  Name = 
REMARK  5 active torsions:
REMARK  status: ('A' for Active; 'I' for Inactive)
REMARK    1  A    between atoms: N_1  and  C_2
REMARK    2  A    between atoms: C_2  and  C_3
REMARK    3  A    between atoms: C_6  and  C_7
REMARK    4  A    between atoms: C_7  and  C_8
REMARK    5  A    between atoms: C_8  and  C_9
REMARK                            x       y       z     vdW  Elec       q    Type
REMARK                         _______ _______ _______ _____ _____    ______ ____
ROOT
ATOM      1  C   UNL     1      44.848   3.838  11.521  0.00  0.00    +0.000 A 
ATOM      2  C   UNL     1      45.248   5.046  10.962  0.00  0.00    +0.000 A 
ATOM      3  N   UNL     1      46.088   5.910  11.586  0.00  0.00    +0.000 NA
ATOM      4  C   UNL     1      46.522   5.535  12.813  0.00  0.00    +0.000 A 
ATOM      5  C   UNL     1      46.143   4.312  13.360  0.00  0.00    +0.000 A 
ATOM      6  N   UNL     1      45.303   3.448  12.739  0.00  0.00    +0.000 NA
ENDROOT
BRANCH   1   7
ATOM      7  C   UNL     1      43.873   2.939  10.800  0.00  0.00    +0.000 C 
BRANCH   7   8
ATOM      8  N   UNL     1      43.028   2.155  11.706  0.00  0.00    +0.000 NA
ATOM      9  H   UNL     1      42.063   2.222  11.387  0.00  0.00    +0.000 HD
ATOM     10  H   UNL     1      43.046   2.603  12.623  0.00  0.00    +0.000 HD
ENDBRANCH   7   8
ENDBRANCH   1   7
BRANCH   4  11
ATOM     11  C   UNL     1      47.477   6.439  13.554  0.00  0.00    +0.000 C 
BRANCH  11  12
ATOM     12  C   UNL     1      47.352   7.909  13.136  0.00  0.00    +0.000 C 
BRANCH  12  13
ATOM     13  C   UNL     1      48.587   8.415  12.428  0.00  0.00    +0.000 A 
ATOM     14  C   UNL     1      49.660   7.553  12.165  0.00  0.00    +0.000 A 
ATOM     15  C   UNL     1      50.788   8.014  11.484  0.00  0.00    +0.000 A 
ATOM     16  C   UNL     1      50.858   9.341  11.065  0.00  0.00    +0.000 A 
ATOM     17  C   UNL     1      49.803  10.210  11.335  0.00  0.00    +0.000 A 
ATOM     18  C   UNL     1      48.674   9.752  12.017  0.00  0.00    +0.000 A 
ENDBRANCH  12  13
ENDBRANCH  11  12
ENDBRANCH   4  11
TORSDOF 5
ENDMDL
