MODEL 1
REMARK VINA RESULT:    -8.557      0.000      0.000
REMARK INTER + INTRA:         -11.588
REMARK INTER:                 -11.059
REMARK INTRA:                  -0.530
REMARK UNBOUND:                -0.530
REMARK  Name = 
REMARK  5 active torsions:
REMARK  status: ('A' for Active; 'I' for Inactive)
REMARK    1  A    between atoms: C_2  and  C_4
REMARK    2  A    between atoms: C_7  and  O_8
REMARK    3  A    between atoms: O_8  and  C_9
REMARK    4  A    between atoms: C_9  and  C_10
REMARK    5  A    between atoms: C_15  and  C_16
REMARK                            x       y       z     vdW  Elec       q    Type
REMARK                         _______ _______ _______ _____ _____    ______ ____
ROOT
ATOM      1  C   UNL     1      43.876   4.316  11.572  0.00  0.00    +0.000 C 
ENDROOT
BRANCH   1   2
ATOM      2  C   UNL     1      45.098   4.876  12.258  0.00  0.00    +0.000 A 
ATOM      3  C   UNL     1      45.687   6.055  11.785  0.00  0.00    +0.000 A 
ATOM      4  C   UNL     1      46.794   6.591  12.433  0.00  0.00    +0.000 A 
ATOM      5  C   UNL     1      47.311   5.962  13.563  0.00  0.00    +0.000 A 
ATOM      6  F   UNL     1      48.389   6.516  14.140  0.00  0.00    +0.000 F 
ATOM      7  C   UNL     1      46.747   4.790  14.090  0.00  0.00    +0.000 A 
ATOM      8  C   UNL     1      45.638   4.254  13.401  0.00  0.00    +0.000 A 
BRANCH   7   9
ATOM      9  C   UNL     1      47.283   4.149  15.304  0.00  0.00    +0.000 A 
ATOM     10  C   UNL     1      47.180   4.714  16.577  0.00  0.00    +0.000 A 
ATOM     11  N   UNL     1      47.690   4.143  17.699  0.00  0.00    +0.000 NA
ATOM     12  C   UNL     1      48.321   2.968  17.508  0.00  0.00    +0.000 A 
ATOM     13  C   UNL     1      48.418   2.382  16.258  0.00  0.00    +0.000 A 
ATOM     14  N   UNL     1      47.897   2.946  15.140  0.00  0.00    +0.000 NA
ENDBRANCH   7   9
ENDBRANCH   1   2
BRANCH   1  15
ATOM     15  O   UNL     1      43.934   4.636  10.179  0.00  0.00    +0.000 OA
BRANCH  15  19
ATOM     16  C   UNL     1      46.428   2.521   7.758  0.00  0.00    +0.000 A 
ATOM     17  N   UNL     1      45.715   1.784   8.646  0.00  0.00    +0.000 NA
ATOM     18  C   UNL     1      44.886   2.484   9.450  0.00  0.00    +0.000 A 
ATOM     19  C   UNL     1      44.739   3.857   9.408  0.00  0.00    +0.000 A 
ATOM     20  C   UNL     1      45.516   4.491   8.458  0.00  0.00    +0.000 A 
ATOM     21  N   UNL     1      46.365   3.858   7.620  0.00  0.00    +0.000 NA
BRANCH  16  23
ATOM     22  N   UNL     1      48.465   2.466   6.408  0.00  0.00    +0.000 N 
ATOM     23  C   UNL     1      47.371   1.758   6.857  0.00  0.00    +0.000 C 
ATOM     24  O   UNL     1      47.210   0.588   6.524  0.00  0.00    +0.000 OA
ATOM     25  H   UNL     1      49.129   2.006   5.802  0.00  0.00    +0.000 HD
ATOM     26  H   UNL     1      48.596   3.431   6.686  0.00  0.00    +0.000 HD
ENDBRANCH  16  23
ENDBRANCH  15  19
ENDBRANCH   1  15
TORSDOF 5
ENDMDL
MODEL 2
REMARK VINA RESULT:    -8.134      2.503      3.750
REMARK INTER + INTRA:         -11.041
REMARK INTER:                 -10.442
REMARK INTRA:                  -0.599
REMARK UNBOUND:                -0.530
REMARK  Name = 
REMARK  5 active torsions:
REMARK  status: ('A' for Active; 'I' for Inactive)
REMARK    1  A    between atoms: C_2  and  C_4
REMARK    2  A    between atoms: C_7  and  O_8
REMARK    3  A    between atoms: O_8  and  C_9
REMARK    4  A    between atoms: C_9  and  C_10
REMARK    5  A    between atoms: C_15  and  C_16
REMARK                            x       y       z     vdW  Elec       q    Type
REMARK                         _______ _______ _______ _____ _____    ______ ____
ROOT
ATOM      1  C   UNL     1      43.557   4.930  10.604  0.00  0.00    +0.000 C 
ENDROOT
BRANCH   1   2
ATOM      2  C   UNL     1      44.654   5.215  11.602  0.00  0.00    +0.000 A 
ATOM      3  C   UNL     1      44.855   4.351  12.686  0.00  0.00    +0.000 A 
ATOM      4  C   UNL     1      45.884   4.593  13.590  0.00  0.00    +0.000 A 
ATOM      5  C   UNL     1      46.724   5.689  13.409  0.00  0.00    +0.000 A 
ATOM      6  F   UNL     1      47.692   5.881  14.319  0.00  0.00    +0.000 F 
ATOM      7  C   UNL     1      46.580   6.573  12.330  0.00  0.00    +0.000 A 
ATOM      8  C   UNL     1      45.515   6.319  11.439  0.00  0.00    +0.000 A 
BRANCH   7   9
ATOM      9  C   UNL     1      47.494   7.711  12.131  0.00  0.00    +0.000 A 
ATOM     10  C   UNL     1      47.103   9.043  12.283  0.00  0.00    +0.000 A 
ATOM     11  N   UNL     1      47.932  10.101  12.080  0.00  0.00    +0.000 NA
ATOM     12  C   UNL     1      49.187   9.781  11.710  0.00  0.00    +0.000 A 
ATOM     13  C   UNL     1      49.600   8.468  11.572  0.00  0.00    +0.000 A 
ATOM     14  N   UNL     1      48.777   7.412  11.788  0.00  0.00    +0.000 NA
ENDBRANCH   7   9
ENDBRANCH   1   2
BRANCH   1  15
ATOM     15  O   UNL     1      43.588   3.543  10.258  0.00  0.00    +0.000 OA
BRANCH  15  19
ATOM     16  C   UNL     1      46.374   2.640   7.433  0.00  0.00    +0.000 A 
ATOM     17  N   UNL     1      46.102   1.651   8.320  0.00  0.00    +0.000 NA
ATOM     18  C   UNL     1      45.177   1.948   9.258  0.00  0.00    +0.000 A 
ATOM     19  C   UNL     1      44.525   3.162   9.348  0.00  0.00    +0.000 A 
ATOM     20  C   UNL     1      44.887   4.084   8.385  0.00  0.00    +0.000 A 
ATOM     21  N   UNL     1      45.801   3.858   7.418  0.00  0.00    +0.000 NA
BRANCH  16  23
ATOM     22  N   UNL     1      47.423   3.173   5.291  0.00  0.00    +0.000 N 
ATOM     23  C   UNL     1      47.416   2.332   6.383  0.00  0.00    +0.000 C 
ATOM     24  O   UNL     1      48.218   1.407   6.458  0.00  0.00    +0.000 OA
ATOM     25  H   UNL     1      48.098   3.014   4.556  0.00  0.00    +0.000 HD
ATOM     26  H   UNL     1      46.761   3.937   5.231  0.00  0.00    +0.000 HD
ENDBRANCH  16  23
ENDBRANCH  15  19
ENDBRANCH   1  15
TORSDOF 5
ENDMDL
MODEL 3
REMARK VINA RESULT:    -7.856      2.699      3.337
REMARK INTER + INTRA:         -10.682
REMARK INTER:                 -10.009
REMARK INTRA:                  -0.673
REMARK UNBOUND:                -0.530
REMARK  Name = 
REMARK  5 active torsions:
REMARK  status: ('A' for Active; 'I' for Inactive)
REMARK    1  A    between atoms: C_2  and  C_4
REMARK    2  A    between atoms: C_7  and  O_8
REMARK    3  A    between atoms: O_8  and  C_9
REMARK    4  A    between atoms: C_9  and  C_10
REMARK    5  A    between atoms: C_15  and  C_16
REMARK                            x       y       z     vdW  Elec       q    Type
REMARK                         _______ _______ _______ _____ _____    ______ ____
ROOT
ATOM      1  C   UNL     1      44.100   3.577  11.630  0.00  0.00    +0.000 C 
ENDROOT
BRANCH   1   2
ATOM      2  C   UNL     1      44.519   5.027  11.691  0.00  0.00    +0.000 A 
ATOM      3  C   UNL     1      43.585   6.036  11.428  0.00  0.00    +0.000 A 
ATOM      4  C   UNL     1      43.959   7.373  11.514  0.00  0.00    +0.000 A 
ATOM      5  C   UNL     1      45.261   7.709  11.875  0.00  0.00    +0.000 A 
ATOM      6  F   UNL     1      45.570   9.013  11.929  0.00  0.00    +0.000 F 
ATOM      7  C   UNL     1      46.230   6.737  12.169  0.00  0.00    +0.000 A 
ATOM      8  C   UNL     1      45.832   5.388  12.053  0.00  0.00    +0.000 A 
BRANCH   7   9
ATOM      9  C   UNL     1      47.596   7.104  12.580  0.00  0.00    +0.000 A 
ATOM     10  C   UNL     1      48.004   7.163  13.915  0.00  0.00    +0.000 A 
ATOM     11  N   UNL     1      49.255   7.523  14.306  0.00  0.00    +0.000 NA
ATOM     12  C   UNL     1      50.102   7.829  13.305  0.00  0.00    +0.000 A 
ATOM     13  C   UNL     1      49.724   7.758  11.975  0.00  0.00    +0.000 A 
ATOM     14  N   UNL     1      48.480   7.386  11.585  0.00  0.00    +0.000 NA
ENDBRANCH   7   9
ENDBRANCH   1   2
BRANCH   1  15
ATOM     15  O   UNL     1      43.599   3.291  10.321  0.00  0.00    +0.000 OA
BRANCH  15  19
ATOM     16  C   UNL     1      46.394   2.643   7.436  0.00  0.00    +0.000 A 
ATOM     17  N   UNL     1      45.833   3.877   7.437  0.00  0.00    +0.000 NA
ATOM     18  C   UNL     1      44.905   4.095   8.395  0.00  0.00    +0.000 A 
ATOM     19  C   UNL     1      44.522   3.156   9.332  0.00  0.00    +0.000 A 
ATOM     20  C   UNL     1      45.170   1.940   9.228  0.00  0.00    +0.000 A 
ATOM     21  N   UNL     1      46.106   1.651   8.300  0.00  0.00    +0.000 NA
BRANCH  16  23
ATOM     22  N   UNL     1      47.386   3.222   5.280  0.00  0.00    +0.000 N 
ATOM     23  C   UNL     1      47.426   2.375   6.365  0.00  0.00    +0.000 C 
ATOM     24  O   UNL     1      48.258   1.476   6.420  0.00  0.00    +0.000 OA
ATOM     25  H   UNL     1      48.052   3.090   4.532  0.00  0.00    +0.000 HD
ATOM     26  H   UNL     1      46.700   3.965   5.237  0.00  0.00    +0.000 HD
ENDBRANCH  16  23
ENDBRANCH  15  19
ENDBRANCH   1  15
TORSDOF 5
ENDMDL
MODEL 4
REMARK VINA RESULT:    -7.753      2.791      7.623
REMARK INTER + INTRA:         -10.550
REMARK INTER:                 -10.624
REMARK INTRA:                   0.074
REMARK UNBOUND:                -0.530
REMARK  Name = 
REMARK  5 active torsions:
REMARK  status: ('A' for Active; 'I' for Inactive)
REMARK    1  A    between atoms: C_2  and  C_4
REMARK    2  A    between atoms: C_7  and  O_8
REMARK    3  A    between atoms: O_8  and  C_9
REMARK    4  A    between atoms: C_9  and  C_10
REMARK    5  A    between atoms: C_15  and  C_16
REMARK                            x       y       z     vdW  Elec       q    Type
REMARK                         _______ _______ _______ _____ _____    ______ ____
ROOT
ATOM      1  C   UNL     1      44.761   6.228  11.035  0.00  0.00    +0.000 C 
ENDROOT
BRANCH   1   2
ATOM      2  C   UNL     1      44.721   4.832  10.460  0.00  0.00    +0.000 A 
ATOM      3  C   UNL     1      43.847   3.880  10.997  0.00  0.00    +0.000 A 
ATOM      4  C   UNL     1      43.785   2.602  10.451  0.00  0.00    +0.000 A 
ATOM      5  C   UNL     1      44.585   2.273   9.359  0.00  0.00    +0.000 A 
ATOM      6  F   UNL     1      44.494   1.023   8.882  0.00  0.00    +0.000 F 
ATOM      7  C   UNL     1      45.464   3.196   8.771  0.00  0.00    +0.000 A 
ATOM      8  C   UNL     1      45.524   4.478   9.358  0.00  0.00    +0.000 A 
BRANCH   7   9
ATOM      9  C   UNL     1      46.283   2.847   7.597  0.00  0.00    +0.000 A 
ATOM     10  C   UNL     1      47.134   1.739   7.559  0.00  0.00    +0.000 A 
ATOM     11  N   UNL     1      47.911   1.422   6.490  0.00  0.00    +0.000 NA
ATOM     12  C   UNL     1      47.813   2.262   5.441  0.00  0.00    +0.000 A 
ATOM     13  C   UNL     1      46.962   3.354   5.452  0.00  0.00    +0.000 A 
ATOM     14  N   UNL     1      46.177   3.663   6.513  0.00  0.00    +0.000 NA
ENDBRANCH   7   9
ENDBRANCH   1   2
BRANCH   1  15
ATOM     15  O   UNL     1      46.076   6.490  11.535  0.00  0.00    +0.000 OA
BRANCH  15  19
ATOM     16  C   UNL     1      47.351   4.728  14.973  0.00  0.00    +0.000 A 
ATOM     17  N   UNL     1      46.096   4.397  14.580  0.00  0.00    +0.000 NA
ATOM     18  C   UNL     1      45.671   4.980  13.438  0.00  0.00    +0.000 A 
ATOM     19  C   UNL     1      46.427   5.859  12.687  0.00  0.00    +0.000 A 
ATOM     20  C   UNL     1      47.688   6.112  13.191  0.00  0.00    +0.000 A 
ATOM     21  N   UNL     1      48.180   5.566  14.324  0.00  0.00    +0.000 NA
BRANCH  16  23
ATOM     22  N   UNL     1      46.864   3.545  17.055  0.00  0.00    +0.000 N 
ATOM     23  C   UNL     1      47.841   4.096  16.255  0.00  0.00    +0.000 C 
ATOM     24  O   UNL     1      49.018   4.056  16.597  0.00  0.00    +0.000 OA
ATOM     25  H   UNL     1      47.134   3.109  17.926  0.00  0.00    +0.000 HD
ATOM     26  H   UNL     1      45.893   3.578  16.771  0.00  0.00    +0.000 HD
ENDBRANCH  16  23
ENDBRANCH  15  19
ENDBRANCH   1  15
TORSDOF 5
ENDMDL
MODEL 5
REMARK VINA RESULT:    -7.172      3.385      7.742
REMARK INTER + INTRA:          -9.799
REMARK INTER:                  -9.426
REMARK INTRA:                  -0.373
REMARK UNBOUND:                -0.530
REMARK  Name = 
REMARK  5 active torsions:
REMARK  status: ('A' for Active; 'I' for Inactive)
REMARK    1  A    between atoms: C_2  and  C_4
REMARK    2  A    between atoms: C_7  and  O_8
REMARK    3  A    between atoms: O_8  and  C_9
REMARK    4  A    between atoms: C_9  and  C_10
REMARK    5  A    between atoms: C_15  and  C_16
REMARK                            x       y       z     vdW  Elec       q    Type
REMARK                         _______ _______ _______ _____ _____    ______ ____
ROOT
ATOM      1  C   UNL     1      45.069   6.711  11.078  0.00  0.00    +0.000 C 
ENDROOT
BRANCH   1   2
ATOM      2  C   UNL     1      44.862   5.289  10.615  0.00  0.00    +0.000 A 
ATOM      3  C   UNL     1      43.915   4.477  11.251  0.00  0.00    +0.000 A 
ATOM      4  C   UNL     1      43.699   3.177  10.807  0.00  0.00    +0.000 A 
ATOM      5  C   UNL     1      44.418   2.685   9.721  0.00  0.00    +0.000 A 
ATOM      6  F   UNL     1      44.179   1.419   9.344  0.00  0.00    +0.000 F 
ATOM      7  C   UNL     1      45.364   3.462   9.035  0.00  0.00    +0.000 A 
ATOM      8  C   UNL     1      45.580   4.771   9.518  0.00  0.00    +0.000 A 
BRANCH   7   9
ATOM      9  C   UNL     1      46.096   2.942   7.868  0.00  0.00    +0.000 A 
ATOM     10  C   UNL     1      46.655   1.663   7.821  0.00  0.00    +0.000 A 
ATOM     11  N   UNL     1      47.352   1.182   6.758  0.00  0.00    +0.000 NA
ATOM     12  C   UNL     1      47.479   2.035   5.723  0.00  0.00    +0.000 A 
ATOM     13  C   UNL     1      46.917   3.300   5.742  0.00  0.00    +0.000 A 
ATOM     14  N   UNL     1      46.210   3.775   6.797  0.00  0.00    +0.000 NA
ENDBRANCH   7   9
ENDBRANCH   1   2
BRANCH   1  15
ATOM     15  O   UNL     1      45.103   6.737  12.508  0.00  0.00    +0.000 OA
BRANCH  15  19
ATOM     16  C   UNL     1      48.754   7.197  14.242  0.00  0.00    +0.000 A 
ATOM     17  N   UNL     1      48.108   8.348  13.932  0.00  0.00    +0.000 NA
ATOM     18  C   UNL     1      46.894   8.197  13.357  0.00  0.00    +0.000 A 
ATOM     19  C   UNL     1      46.311   6.976  13.084  0.00  0.00    +0.000 A 
ATOM     20  C   UNL     1      47.068   5.880  13.451  0.00  0.00    +0.000 A 
ATOM     21  N   UNL     1      48.286   5.953  14.030  0.00  0.00    +0.000 NA
BRANCH  16  23
ATOM     22  N   UNL     1      51.123   7.760  14.030  0.00  0.00    +0.000 N 
ATOM     23  C   UNL     1      50.119   7.343  14.876  0.00  0.00    +0.000 C 
ATOM     24  O   UNL     1      50.357   7.116  16.057  0.00  0.00    +0.000 OA
ATOM     25  H   UNL     1      52.056   7.875  14.398  0.00  0.00    +0.000 HD
ATOM     26  H   UNL     1      50.923   7.948  13.055  0.00  0.00    +0.000 HD
ENDBRANCH  16  23
ENDBRANCH  15  19
ENDBRANCH   1  15
TORSDOF 5
ENDMDL
MODEL 6
REMARK VINA RESULT:    -6.711      2.922      7.599
REMARK INTER + INTRA:          -9.202
REMARK INTER:                  -8.945
REMARK INTRA:                  -0.257
REMARK UNBOUND:                -0.530
REMARK  Name = 
REMARK  5 active torsions:
REMARK  status: ('A' for Active; 'I' for Inactive)
REMARK    1  A    between atoms: C_2  and  C_4
REMARK    2  A    between atoms: C_7  and  O_8
REMARK    3  A    between atoms: O_8  and  C_9
REMARK    4  A    between atoms: C_9  and  C_10
REMARK    5  A    between atoms: C_15  and  C_16
REMARK                            x       y       z     vdW  Elec       q    Type
REMARK                         _______ _______ _______ _____ _____    ______ ____
ROOT
ATOM      1  C   UNL     1      46.884   7.644  12.579  0.00  0.00    +0.000 C 
ENDROOT
BRANCH   1   2
ATOM      2  C   UNL     1      45.849   6.744  11.948  0.00  0.00    +0.000 A 
ATOM      3  C   UNL     1      44.509   6.834  12.345  0.00  0.00    +0.000 A 
ATOM      4  C   UNL     1      43.548   6.028  11.744  0.00  0.00    +0.000 A 
ATOM      5  C   UNL     1      43.917   5.140  10.737  0.00  0.00    +0.000 A 
ATOM      6  F   UNL     1      42.950   4.378  10.202  0.00  0.00    +0.000 F 
ATOM      7  C   UNL     1      45.241   5.025  10.288  0.00  0.00    +0.000 A 
ATOM      8  C   UNL     1      46.201   5.837  10.929  0.00  0.00    +0.000 A 
BRANCH   7   9
ATOM      9  C   UNL     1      45.615   4.104   9.200  0.00  0.00    +0.000 A 
ATOM     10  C   UNL     1      45.475   2.717   9.289  0.00  0.00    +0.000 A 
ATOM     11  N   UNL     1      45.839   1.858   8.301  0.00  0.00    +0.000 NA
ATOM     12  C   UNL     1      46.357   2.437   7.200  0.00  0.00    +0.000 A 
ATOM     13  C   UNL     1      46.486   3.810   7.085  0.00  0.00    +0.000 A 
ATOM     14  N   UNL     1      46.112   4.668   8.066  0.00  0.00    +0.000 NA
ENDBRANCH   7   9
ENDBRANCH   1   2
BRANCH   1  15
ATOM     15  O   UNL     1      48.016   6.858  12.963  0.00  0.00    +0.000 OA
BRANCH  15  19
ATOM     16  C   UNL     1      47.753   4.742  16.429  0.00  0.00    +0.000 A 
ATOM     17  N   UNL     1      47.031   4.252  15.391  0.00  0.00    +0.000 NA
ATOM     18  C   UNL     1      47.117   4.953  14.239  0.00  0.00    +0.000 A 
ATOM     19  C   UNL     1      47.877   6.095  14.081  0.00  0.00    +0.000 A 
ATOM     20  C   UNL     1      48.569   6.489  15.209  0.00  0.00    +0.000 A 
ATOM     21  N   UNL     1      48.532   5.840  16.392  0.00  0.00    +0.000 NA
BRANCH  16  23
ATOM     22  N   UNL     1      46.958   2.796  17.675  0.00  0.00    +0.000 N 
ATOM     23  C   UNL     1      47.661   3.980  17.730  0.00  0.00    +0.000 C 
ATOM     24  O   UNL     1      48.162   4.355  18.785  0.00  0.00    +0.000 OA
ATOM     25  H   UNL     1      46.863   2.245  18.516  0.00  0.00    +0.000 HD
ATOM     26  H   UNL     1      46.546   2.488  16.803  0.00  0.00    +0.000 HD
ENDBRANCH  16  23
ENDBRANCH  15  19
ENDBRANCH   1  15
TORSDOF 5
ENDMDL
MODEL 7
REMARK VINA RESULT:    -6.647      4.195      7.688
REMARK INTER + INTRA:          -9.120
REMARK INTER:                  -8.455
REMARK INTRA:                  -0.665
REMARK UNBOUND:                -0.530
REMARK  Name = 
REMARK  5 active torsions:
REMARK  status: ('A' for Active; 'I' for Inactive)
REMARK    1  A    between atoms: C_2  and  C_4
REMARK    2  A    between atoms: C_7  and  O_8
REMARK    3  A    between atoms: O_8  and  C_9
REMARK    4  A    between atoms: C_9  and  C_10
REMARK    5  A    between atoms: C_15  and  C_16
REMARK                            x       y       z     vdW  Elec       q    Type
REMARK                         _______ _______ _______ _____ _____    ______ ____
ROOT
ATOM      1  C   UNL     1      48.835   6.130  16.356  0.00  0.00    +0.000 C 
ENDROOT
BRANCH   1   2
ATOM      2  C   UNL     1      48.299   6.256  14.950  0.00  0.00    +0.000 A 
ATOM      3  C   UNL     1      48.990   7.024  14.005  0.00  0.00    +0.000 A 
ATOM      4  C   UNL     1      48.517   7.117  12.700  0.00  0.00    +0.000 A 
ATOM      5  C   UNL     1      47.360   6.435  12.330  0.00  0.00    +0.000 A 
ATOM      6  F   UNL     1      46.942   6.572  11.062  0.00  0.00    +0.000 F 
ATOM      7  C   UNL     1      46.641   5.637  13.232  0.00  0.00    +0.000 A 
ATOM      8  C   UNL     1      47.130   5.576  14.555  0.00  0.00    +0.000 A 
BRANCH   7   9
ATOM      9  C   UNL     1      45.436   4.895  12.822  0.00  0.00    +0.000 A 
ATOM     10  C   UNL     1      45.471   3.586  12.335  0.00  0.00    +0.000 A 
ATOM     11  N   UNL     1      44.369   2.901  11.932  0.00  0.00    +0.000 NA
ATOM     12  C   UNL     1      43.208   3.577  12.031  0.00  0.00    +0.000 A 
ATOM     13  C   UNL     1      43.148   4.867  12.528  0.00  0.00    +0.000 A 
ATOM     14  N   UNL     1      44.247   5.545  12.943  0.00  0.00    +0.000 NA
ENDBRANCH   7   9
ENDBRANCH   1   2
BRANCH   1  15
ATOM     15  O   UNL     1      48.332   4.926  16.941  0.00  0.00    +0.000 OA
BRANCH  15  19
ATOM     16  C   UNL     1      51.131   2.009  17.403  0.00  0.00    +0.000 A 
ATOM     17  N   UNL     1      49.935   1.596  16.917  0.00  0.00    +0.000 NA
ATOM     18  C   UNL     1      49.004   2.563  16.762  0.00  0.00    +0.000 A 
ATOM     19  C   UNL     1      49.211   3.895  17.064  0.00  0.00    +0.000 A 
ATOM     20  C   UNL     1      50.471   4.188  17.547  0.00  0.00    +0.000 A 
ATOM     21  N   UNL     1      51.450   3.276  17.727  0.00  0.00    +0.000 NA
BRANCH  16  23
ATOM     22  N   UNL     1      51.783  -0.159  18.325  0.00  0.00    +0.000 N 
ATOM     23  C   UNL     1      52.182   0.940  17.596  0.00  0.00    +0.000 C 
ATOM     24  O   UNL     1      53.323   1.008  17.151  0.00  0.00    +0.000 OA
ATOM     25  H   UNL     1      52.445  -0.905  18.486  0.00  0.00    +0.000 HD
ATOM     26  H   UNL     1      50.841  -0.213  18.690  0.00  0.00    +0.000 HD
ENDBRANCH  16  23
ENDBRANCH  15  19
ENDBRANCH   1  15
TORSDOF 5
ENDMDL
MODEL 8
REMARK VINA RESULT:    -6.538      3.463      7.688
REMARK INTER + INTRA:          -8.979
REMARK INTER:                  -8.419
REMARK INTRA:                  -0.560
REMARK UNBOUND:                -0.530
REMARK  Name = 
REMARK  5 active torsions:
REMARK  status: ('A' for Active; 'I' for Inactive)
REMARK    1  A    between atoms: C_2  and  C_4
REMARK    2  A    between atoms: C_7  and  O_8
REMARK    3  A    between atoms: O_8  and  C_9
REMARK    4  A    between atoms: C_9  and  C_10
REMARK    5  A    between atoms: C_15  and  C_16
REMARK                            x       y       z     vdW  Elec       q    Type
REMARK                         _______ _______ _______ _____ _____    ______ ____
ROOT
ATOM      1  C   UNL     1      48.694   7.474  13.235  0.00  0.00    +0.000 C 
ENDROOT
BRANCH   1   2
ATOM      2  C   UNL     1      47.305   7.420  12.646  0.00  0.00    +0.000 A 
ATOM      3  C   UNL     1      46.413   8.478  12.861  0.00  0.00    +0.000 A 
ATOM      4  C   UNL     1      45.143   8.446  12.295  0.00  0.00    +0.000 A 
ATOM      5  C   UNL     1      44.762   7.365  11.502  0.00  0.00    +0.000 A 
ATOM      6  F   UNL     1      43.521   7.381  10.993  0.00  0.00    +0.000 F 
ATOM      7  C   UNL     1      45.624   6.290  11.240  0.00  0.00    +0.000 A 
ATOM      8  C   UNL     1      46.899   6.335  11.843  0.00  0.00    +0.000 A 
BRANCH   7   9
ATOM      9  C   UNL     1      45.222   5.167  10.375  0.00  0.00    +0.000 A 
ATOM     10  C   UNL     1      44.389   4.131  10.802  0.00  0.00    +0.000 A 
ATOM     11  N   UNL     1      44.031   3.078  10.020  0.00  0.00    +0.000 NA
ATOM     12  C   UNL     1      44.542   3.092   8.774  0.00  0.00    +0.000 A 
ATOM     13  C   UNL     1      45.354   4.119   8.324  0.00  0.00    +0.000 A 
ATOM     14  N   UNL     1      45.700   5.176   9.100  0.00  0.00    +0.000 NA
ENDBRANCH   7   9
ENDBRANCH   1   2
BRANCH   1  15
ATOM     15  O   UNL     1      48.595   7.630  14.653  0.00  0.00    +0.000 OA
BRANCH  15  19
ATOM     16  C   UNL     1      49.090   4.336  16.990  0.00  0.00    +0.000 A 
ATOM     17  N   UNL     1      47.989   4.329  16.199  0.00  0.00    +0.000 NA
ATOM     18  C   UNL     1      47.823   5.422  15.422  0.00  0.00    +0.000 A 
ATOM     19  C   UNL     1      48.689   6.497  15.399  0.00  0.00    +0.000 A 
ATOM     20  C   UNL     1      49.775   6.381  16.246  0.00  0.00    +0.000 A 
ATOM     21  N   UNL     1      50.006   5.321  17.049  0.00  0.00    +0.000 NA
BRANCH  16  23
ATOM     22  N   UNL     1      48.493   3.083  19.001  0.00  0.00    +0.000 N 
ATOM     23  C   UNL     1      49.288   3.128  17.877  0.00  0.00    +0.000 C 
ATOM     24  O   UNL     1      50.090   2.230  17.647  0.00  0.00    +0.000 OA
ATOM     25  H   UNL     1      48.582   2.299  19.631  0.00  0.00    +0.000 HD
ATOM     26  H   UNL     1      47.831   3.825  19.188  0.00  0.00    +0.000 HD
ENDBRANCH  16  23
ENDBRANCH  15  19
ENDBRANCH   1  15
TORSDOF 5
ENDMDL
MODEL 9
REMARK VINA RESULT:    -6.426      4.188      6.067
REMARK INTER + INTRA:          -8.834
REMARK INTER:                  -8.216
REMARK INTRA:                  -0.618
REMARK UNBOUND:                -0.530
REMARK  Name = 
REMARK  5 active torsions:
REMARK  status: ('A' for Active; 'I' for Inactive)
REMARK    1  A    between atoms: C_2  and  C_4
REMARK    2  A    between atoms: C_7  and  O_8
REMARK    3  A    between atoms: O_8  and  C_9
REMARK    4  A    between atoms: C_9  and  C_10
REMARK    5  A    between atoms: C_15  and  C_16
REMARK                            x       y       z     vdW  Elec       q    Type
REMARK                         _______ _______ _______ _____ _____    ______ ____
ROOT
ATOM      1  C   UNL     1      48.634   7.264  15.402  0.00  0.00    +0.000 C 
ENDROOT
BRANCH   1   2
ATOM      2  C   UNL     1      49.015   6.548  16.676  0.00  0.00    +0.000 A 
ATOM      3  C   UNL     1      48.559   7.026  17.910  0.00  0.00    +0.000 A 
ATOM      4  C   UNL     1      48.883   6.351  19.083  0.00  0.00    +0.000 A 
ATOM      5  C   UNL     1      49.653   5.192  19.028  0.00  0.00    +0.000 A 
ATOM      6  F   UNL     1      49.946   4.590  20.191  0.00  0.00    +0.000 F 
ATOM      7  C   UNL     1      50.119   4.660  17.816  0.00  0.00    +0.000 A 
ATOM      8  C   UNL     1      49.795   5.374  16.642  0.00  0.00    +0.000 A 
BRANCH   7   9
ATOM      9  C   UNL     1      50.906   3.415  17.767  0.00  0.00    +0.000 A 
ATOM     10  C   UNL     1      50.396   2.205  17.289  0.00  0.00    +0.000 A 
ATOM     11  N   UNL     1      51.106   1.047  17.261  0.00  0.00    +0.000 NA
ATOM     12  C   UNL     1      52.364   1.134  17.735  0.00  0.00    +0.000 A 
ATOM     13  C   UNL     1      52.894   2.327  18.195  0.00  0.00    +0.000 A 
ATOM     14  N   UNL     1      52.190   3.486  18.210  0.00  0.00    +0.000 NA
ENDBRANCH   7   9
ENDBRANCH   1   2
BRANCH   1  15
ATOM     15  O   UNL     1      48.653   6.331  14.318  0.00  0.00    +0.000 OA
BRANCH  15  19
ATOM     16  C   UNL     1      45.096   4.719  13.180  0.00  0.00    +0.000 A 
ATOM     17  N   UNL     1      45.334   5.977  12.734  0.00  0.00    +0.000 NA
ATOM     18  C   UNL     1      46.515   6.515  13.110  0.00  0.00    +0.000 A 
ATOM     19  C   UNL     1      47.449   5.865  13.894  0.00  0.00    +0.000 A 
ATOM     20  C   UNL     1      47.090   4.588  14.279  0.00  0.00    +0.000 A 
ATOM     21  N   UNL     1      45.929   3.986  13.942  0.00  0.00    +0.000 NA
BRANCH  16  23
ATOM     22  N   UNL     1      43.788   2.739  12.593  0.00  0.00    +0.000 N 
ATOM     23  C   UNL     1      43.774   4.104  12.780  0.00  0.00    +0.000 C 
ATOM     24  O   UNL     1      42.738   4.741  12.623  0.00  0.00    +0.000 OA
ATOM     25  H   UNL     1      42.933   2.274  12.324  0.00  0.00    +0.000 HD
ATOM     26  H   UNL     1      44.644   2.215  12.724  0.00  0.00    +0.000 HD
ENDBRANCH  16  23
ENDBRANCH  15  19
ENDBRANCH   1  15
TORSDOF 5
ENDMDL
