MODEL 1
REMARK VINA RESULT:    -6.694      0.000      0.000
REMARK INTER + INTRA:          -8.275
REMARK INTER:                  -7.867
REMARK INTRA:                  -0.408
REMARK UNBOUND:                -0.408
REMARK  Name = 
REMARK  4 active torsions:
REMARK  status: ('A' for Active; 'I' for Inactive)
REMARK    1  A    between atoms: C_1  and  C_2
REMARK    2  A    between atoms: C_2  and  N_3
REMARK    3  A    between atoms: C_2  and  C_13
REMARK    4  A    between atoms: C_7  and  C_8
REMARK                            x       y       z     vdW  Elec       q    Type
REMARK                         _______ _______ _______ _____ _____    ______ ____
ROOT
ATOM      1  N   UNL     1      45.142   4.282  12.036  0.00  0.00    +0.000 N 
ATOM      2  C   UNL     1      46.077   5.027  12.764  0.00  0.00    +0.000 A 
ATOM      3  C   UNL     1      46.492   4.526  14.004  0.00  0.00    +0.000 A 
ATOM      4  N   UNL     1      47.418   5.114  14.798  0.00  0.00    +0.000 NA
ATOM      5  C   UNL     1      47.950   6.251  14.276  0.00  0.00    +0.000 A 
ATOM      6  C   UNL     1      47.563   6.760  13.045  0.00  0.00    +0.000 A 
ATOM      7  N   UNL     1      46.616   6.162  12.268  0.00  0.00    +0.000 NA
ATOM      8  H   UNL     1      45.619   3.440  11.727  0.00  0.00    +0.000 HD
ENDROOT
BRANCH   5   9
ATOM      9  C   UNL     1      48.977   6.946  15.096  0.00  0.00    +0.000 C 
ATOM     10  N   UNL     1      48.513   7.550  16.236  0.00  0.00    +0.000 N 
ATOM     11  O   UNL     1      50.158   6.980  14.775  0.00  0.00    +0.000 OA
ATOM     12  H   UNL     1      47.524   7.511  16.457  0.00  0.00    +0.000 HD
ATOM     13  H   UNL     1      49.153   8.048  16.838  0.00  0.00    +0.000 HD
ENDBRANCH   5   9
BRANCH   1  15
ATOM     14  C   UNL     1      42.904   5.043  11.390  0.00  0.00    +0.000 C 
ATOM     15  C   UNL     1      44.375   4.925  10.963  0.00  0.00    +0.000 C 
BRANCH  15  16
ATOM     16  C   UNL     1      44.495   4.053   9.664  0.00  0.00    +0.000 C 
ATOM     17  C   UNL     1      44.649   2.548   9.980  0.00  0.00    +0.000 C 
ATOM     18  C   UNL     1      44.912   1.695   8.744  0.00  0.00    +0.000 C 
ATOM     19  C   UNL     1      46.105   2.219   7.958  0.00  0.00    +0.000 C 
ATOM     20  C   UNL     1      45.866   3.663   7.531  0.00  0.00    +0.000 C 
ATOM     21  C   UNL     1      45.620   4.567   8.738  0.00  0.00    +0.000 C 
ENDBRANCH  15  16
ENDBRANCH   1  15
TORSDOF 3
ENDMDL
MODEL 2
REMARK VINA RESULT:    -6.475      2.436      3.145
REMARK INTER + INTRA:          -8.018
REMARK INTER:                  -7.698
REMARK INTRA:                  -0.321
REMARK UNBOUND:                -0.408
REMARK  Name = 
REMARK  4 active torsions:
REMARK  status: ('A' for Active; 'I' for Inactive)
REMARK    1  A    between atoms: C_1  and  C_2
REMARK    2  A    between atoms: C_2  and  N_3
REMARK    3  A    between atoms: C_2  and  C_13
REMARK    4  A    between atoms: C_7  and  C_8
REMARK                            x       y       z     vdW  Elec       q    Type
REMARK                         _______ _______ _______ _____ _____    ______ ____
ROOT
ATOM      1  N   UNL     1      45.251   3.193  10.891  0.00  0.00    +0.000 N 
ATOM      2  C   UNL     1      45.318   4.516  11.341  0.00  0.00    +0.000 A 
ATOM      3  C   UNL     1      45.384   4.738  12.722  0.00  0.00    +0.000 A 
ATOM      4  N   UNL     1      45.494   5.957  13.300  0.00  0.00    +0.000 NA
ATOM      5  C   UNL     1      45.562   6.984  12.412  0.00  0.00    +0.000 A 
ATOM      6  C   UNL     1      45.511   6.788  11.039  0.00  0.00    +0.000 A 
ATOM      7  N   UNL     1      45.382   5.554  10.477  0.00  0.00    +0.000 NA
ATOM      8  H   UNL     1      46.156   2.774  11.086  0.00  0.00    +0.000 HD
ENDROOT
BRANCH   5   9
ATOM      9  C   UNL     1      45.688   8.351  12.980  0.00  0.00    +0.000 C 
ATOM     10  N   UNL     1      46.647   8.504  13.948  0.00  0.00    +0.000 N 
ATOM     11  O   UNL     1      44.980   9.280  12.612  0.00  0.00    +0.000 OA
ATOM     12  H   UNL     1      47.200   7.704  14.234  0.00  0.00    +0.000 HD
ATOM     13  H   UNL     1      46.783   9.404  14.384  0.00  0.00    +0.000 HD
ENDBRANCH   5   9
BRANCH   1  15
ATOM     14  C   UNL     1      44.010   1.578   9.529  0.00  0.00    +0.000 C 
ATOM     15  C   UNL     1      44.777   2.909   9.531  0.00  0.00    +0.000 C 
BRANCH  15  16
ATOM     16  C   UNL     1      46.015   2.823   8.572  0.00  0.00    +0.000 C 
ATOM     17  C   UNL     1      45.879   3.763   7.352  0.00  0.00    +0.000 C 
ATOM     18  C   UNL     1      46.998   3.594   6.332  0.00  0.00    +0.000 C 
ATOM     19  C   UNL     1      47.131   2.141   5.897  0.00  0.00    +0.000 C 
ATOM     20  C   UNL     1      47.410   1.250   7.101  0.00  0.00    +0.000 C 
ATOM     21  C   UNL     1      46.303   1.365   8.147  0.00  0.00    +0.000 C 
ENDBRANCH  15  16
ENDBRANCH   1  15
TORSDOF 3
ENDMDL
MODEL 3
REMARK VINA RESULT:    -6.366      3.811      6.368
REMARK INTER + INTRA:          -7.890
REMARK INTER:                  -8.443
REMARK INTRA:                   0.553
REMARK UNBOUND:                -0.408
REMARK  Name = 
REMARK  4 active torsions:
REMARK  status: ('A' for Active; 'I' for Inactive)
REMARK    1  A    between atoms: C_1  and  C_2
REMARK    2  A    between atoms: C_2  and  N_3
REMARK    3  A    between atoms: C_2  and  C_13
REMARK    4  A    between atoms: C_7  and  C_8
REMARK                            x       y       z     vdW  Elec       q    Type
REMARK                         _______ _______ _______ _____ _____    ______ ____
ROOT
ATOM      1  N   UNL     1      44.118   2.977  10.724  0.00  0.00    +0.000 N 
ATOM      2  C   UNL     1      44.950   2.998   9.599  0.00  0.00    +0.000 A 
ATOM      3  C   UNL     1      45.343   1.770   9.051  0.00  0.00    +0.000 A 
ATOM      4  N   UNL     1      46.110   1.635   7.943  0.00  0.00    +0.000 NA
ATOM      5  C   UNL     1      46.463   2.815   7.369  0.00  0.00    +0.000 A 
ATOM      6  C   UNL     1      46.076   4.043   7.887  0.00  0.00    +0.000 A 
ATOM      7  N   UNL     1      45.318   4.159   9.013  0.00  0.00    +0.000 NA
ATOM      8  H   UNL     1      43.214   2.635  10.410  0.00  0.00    +0.000 HD
ENDROOT
BRANCH   5   9
ATOM      9  C   UNL     1      47.303   2.738   6.145  0.00  0.00    +0.000 C 
ATOM     10  N   UNL     1      48.632   2.479   6.356  0.00  0.00    +0.000 N 
ATOM     11  O   UNL     1      46.841   2.898   5.023  0.00  0.00    +0.000 OA
ATOM     12  H   UNL     1      48.977   2.369   7.304  0.00  0.00    +0.000 HD
ATOM     13  H   UNL     1      49.265   2.420   5.571  0.00  0.00    +0.000 HD
ENDBRANCH   5   9
BRANCH   1  15
ATOM     14  C   UNL     1      43.153   5.225  10.855  0.00  0.00    +0.000 C 
ATOM     15  C   UNL     1      44.009   4.170  11.571  0.00  0.00    +0.000 C 
BRANCH  15  16
ATOM     16  C   UNL     1      45.448   4.732  11.842  0.00  0.00    +0.000 C 
ATOM     17  C   UNL     1      45.951   4.396  13.265  0.00  0.00    +0.000 C 
ATOM     18  C   UNL     1      47.285   5.051  13.605  0.00  0.00    +0.000 C 
ATOM     19  C   UNL     1      47.232   6.555  13.378  0.00  0.00    +0.000 C 
ATOM     20  C   UNL     1      46.875   6.862  11.929  0.00  0.00    +0.000 C 
ATOM     21  C   UNL     1      45.532   6.245  11.543  0.00  0.00    +0.000 C 
ENDBRANCH  15  16
ENDBRANCH   1  15
TORSDOF 3
ENDMDL
MODEL 4
REMARK VINA RESULT:    -5.849      3.576      7.295
REMARK INTER + INTRA:          -7.282
REMARK INTER:                  -6.900
REMARK INTRA:                  -0.382
REMARK UNBOUND:                -0.408
REMARK  Name = 
REMARK  4 active torsions:
REMARK  status: ('A' for Active; 'I' for Inactive)
REMARK    1  A    between atoms: C_1  and  C_2
REMARK    2  A    between atoms: C_2  and  N_3
REMARK    3  A    between atoms: C_2  and  C_13
REMARK    4  A    between atoms: C_7  and  C_8
REMARK                            x       y       z     vdW  Elec       q    Type
REMARK                         _______ _______ _______ _____ _____    ______ ____
ROOT
ATOM      1  N   UNL     1      47.294   5.110  15.299  0.00  0.00    +0.000 N 
ATOM      2  C   UNL     1      46.548   4.758  14.169  0.00  0.00    +0.000 A 
ATOM      3  C   UNL     1      46.009   5.791  13.391  0.00  0.00    +0.000 A 
ATOM      4  N   UNL     1      45.303   5.605  12.251  0.00  0.00    +0.000 NA
ATOM      5  C   UNL     1      45.169   4.301  11.892  0.00  0.00    +0.000 A 
ATOM      6  C   UNL     1      45.704   3.262  12.639  0.00  0.00    +0.000 A 
ATOM      7  N   UNL     1      46.398   3.469  13.794  0.00  0.00    +0.000 NA
ATOM      8  H   UNL     1      48.154   5.531  14.959  0.00  0.00    +0.000 HD
ENDROOT
BRANCH   5   9
ATOM      9  C   UNL     1      44.407   4.026  10.646  0.00  0.00    +0.000 C 
ATOM     10  N   UNL     1      43.723   5.094  10.124  0.00  0.00    +0.000 N 
ATOM     11  O   UNL     1      44.386   2.920  10.122  0.00  0.00    +0.000 OA
ATOM     12  H   UNL     1      43.754   5.989  10.598  0.00  0.00    +0.000 HD
ATOM     13  H   UNL     1      43.176   4.979   9.282  0.00  0.00    +0.000 HD
ENDBRANCH   5   9
BRANCH   1  15
ATOM     14  C   UNL     1      47.001   4.662  17.690  0.00  0.00    +0.000 C 
ATOM     15  C   UNL     1      47.529   4.117  16.355  0.00  0.00    +0.000 C 
BRANCH  15  16
ATOM     16  C   UNL     1      49.070   3.839  16.453  0.00  0.00    +0.000 C 
ATOM     17  C   UNL     1      49.378   2.452  17.062  0.00  0.00    +0.000 C 
ATOM     18  C   UNL     1      50.865   2.215  17.302  0.00  0.00    +0.000 C 
ATOM     19  C   UNL     1      51.471   3.332  18.139  0.00  0.00    +0.000 C 
ATOM     20  C   UNL     1      51.282   4.677  17.447  0.00  0.00    +0.000 C 
ATOM     21  C   UNL     1      49.803   4.974  17.203  0.00  0.00    +0.000 C 
ENDBRANCH  15  16
ENDBRANCH   1  15
TORSDOF 3
ENDMDL
MODEL 5
REMARK VINA RESULT:    -5.587      3.248      4.347
REMARK INTER + INTRA:          -6.974
REMARK INTER:                  -6.646
REMARK INTRA:                  -0.328
REMARK UNBOUND:                -0.408
REMARK  Name = 
REMARK  4 active torsions:
REMARK  status: ('A' for Active; 'I' for Inactive)
REMARK    1  A    between atoms: C_1  and  C_2
REMARK    2  A    between atoms: C_2  and  N_3
REMARK    3  A    between atoms: C_2  and  C_13
REMARK    4  A    between atoms: C_7  and  C_8
REMARK                            x       y       z     vdW  Elec       q    Type
REMARK                         _______ _______ _______ _____ _____    ______ ____
ROOT
ATOM      1  N   UNL     1      47.242   6.505  14.062  0.00  0.00    +0.000 N 
ATOM      2  C   UNL     1      47.714   5.586  15.005  0.00  0.00    +0.000 A 
ATOM      3  C   UNL     1      48.535   6.064  16.034  0.00  0.00    +0.000 A 
ATOM      4  N   UNL     1      49.031   5.303  17.037  0.00  0.00    +0.000 NA
ATOM      5  C   UNL     1      48.644   4.001  16.985  0.00  0.00    +0.000 A 
ATOM      6  C   UNL     1      47.822   3.506  15.982  0.00  0.00    +0.000 A 
ATOM      7  N   UNL     1      47.346   4.286  14.971  0.00  0.00    +0.000 NA
ATOM      8  H   UNL     1      46.575   7.100  14.546  0.00  0.00    +0.000 HD
ENDROOT
BRANCH   5   9
ATOM      9  C   UNL     1      49.151   3.110  18.060  0.00  0.00    +0.000 C 
ATOM     10  N   UNL     1      48.471   3.171  19.249  0.00  0.00    +0.000 N 
ATOM     11  O   UNL     1      50.114   2.371  17.898  0.00  0.00    +0.000 OA
ATOM     12  H   UNL     1      47.688   3.808  19.346  0.00  0.00    +0.000 HD
ATOM     13  H   UNL     1      48.765   2.598  20.028  0.00  0.00    +0.000 HD
ENDBRANCH   5   9
BRANCH   1  15
ATOM     14  C   UNL     1      47.345   6.879  11.643  0.00  0.00    +0.000 C 
ATOM     15  C   UNL     1      46.739   6.028  12.768  0.00  0.00    +0.000 C 
BRANCH  15  16
ATOM     16  C   UNL     1      45.175   6.150  12.757  0.00  0.00    +0.000 C 
ATOM     17  C   UNL     1      44.481   4.834  13.177  0.00  0.00    +0.000 C 
ATOM     18  C   UNL     1      42.963   4.880  13.036  0.00  0.00    +0.000 C 
ATOM     19  C   UNL     1      42.554   5.296  11.631  0.00  0.00    +0.000 C 
ATOM     20  C   UNL     1      43.131   6.666  11.294  0.00  0.00    +0.000 C 
ATOM     21  C   UNL     1      44.656   6.667  11.398  0.00  0.00    +0.000 C 
ENDBRANCH  15  16
ENDBRANCH   1  15
TORSDOF 3
ENDMDL
MODEL 6
REMARK VINA RESULT:    -5.383      3.361      3.942
REMARK INTER + INTRA:          -6.734
REMARK INTER:                  -6.360
REMARK INTRA:                  -0.374
REMARK UNBOUND:                -0.408
REMARK  Name = 
REMARK  4 active torsions:
REMARK  status: ('A' for Active; 'I' for Inactive)
REMARK    1  A    between atoms: C_1  and  C_2
REMARK    2  A    between atoms: C_2  and  N_3
REMARK    3  A    between atoms: C_2  and  C_13
REMARK    4  A    between atoms: C_7  and  C_8
REMARK                            x       y       z     vdW  Elec       q    Type
REMARK                         _______ _______ _______ _____ _____    ______ ____
ROOT
ATOM      1  N   UNL     1      44.913   5.360  11.205  0.00  0.00    +0.000 N 
ATOM      2  C   UNL     1      44.702   6.737  11.341  0.00  0.00    +0.000 A 
ATOM      3  C   UNL     1      45.663   7.483  12.033  0.00  0.00    +0.000 A 
ATOM      4  N   UNL     1      45.614   8.825  12.207  0.00  0.00    +0.000 NA
ATOM      5  C   UNL     1      44.540   9.418  11.622  0.00  0.00    +0.000 A 
ATOM      6  C   UNL     1      43.581   8.701  10.921  0.00  0.00    +0.000 A 
ATOM      7  N   UNL     1      43.639   7.348  10.771  0.00  0.00    +0.000 NA
ATOM      8  H   UNL     1      45.701   5.248  10.572  0.00  0.00    +0.000 HD
ENDROOT
BRANCH   5   9
ATOM      9  C   UNL     1      44.427  10.892  11.772  0.00  0.00    +0.000 C 
ATOM     10  N   UNL     1      45.502  11.511  12.357  0.00  0.00    +0.000 N 
ATOM     11  O   UNL     1      43.440  11.514  11.403  0.00  0.00    +0.000 OA
ATOM     12  H   UNL     1      46.293  10.957  12.663  0.00  0.00    +0.000 HD
ATOM     13  H   UNL     1      45.491  12.511  12.499  0.00  0.00    +0.000 HD
ENDBRANCH   5   9
BRANCH   1  15
ATOM     14  C   UNL     1      43.529   3.518  12.036  0.00  0.00    +0.000 C 
ATOM     15  C   UNL     1      43.788   4.480  10.868  0.00  0.00    +0.000 C 
BRANCH  15  16
ATOM     16  C   UNL     1      44.148   3.674   9.571  0.00  0.00    +0.000 C 
ATOM     17  C   UNL     1      44.533   2.209   9.878  0.00  0.00    +0.000 C 
ATOM     18  C   UNL     1      45.026   1.445   8.655  0.00  0.00    +0.000 C 
ATOM     19  C   UNL     1      46.166   2.183   7.967  0.00  0.00    +0.000 C 
ATOM     20  C   UNL     1      45.717   3.576   7.543  0.00  0.00    +0.000 C 
ATOM     21  C   UNL     1      45.233   4.394   8.739  0.00  0.00    +0.000 C 
ENDBRANCH  15  16
ENDBRANCH   1  15
TORSDOF 3
ENDMDL
MODEL 7
REMARK VINA RESULT:    -5.382      1.826      2.426
REMARK INTER + INTRA:          -6.733
REMARK INTER:                  -6.389
REMARK INTRA:                  -0.345
REMARK UNBOUND:                -0.408
REMARK  Name = 
REMARK  4 active torsions:
REMARK  status: ('A' for Active; 'I' for Inactive)
REMARK    1  A    between atoms: C_1  and  C_2
REMARK    2  A    between atoms: C_2  and  N_3
REMARK    3  A    between atoms: C_2  and  C_13
REMARK    4  A    between atoms: C_7  and  C_8
REMARK                            x       y       z     vdW  Elec       q    Type
REMARK                         _______ _______ _______ _____ _____    ______ ____
ROOT
ATOM      1  N   UNL     1      46.157   5.341  13.171  0.00  0.00    +0.000 N 
ATOM      2  C   UNL     1      47.311   6.129  13.242  0.00  0.00    +0.000 A 
ATOM      3  C   UNL     1      48.021   6.145  14.449  0.00  0.00    +0.000 A 
ATOM      4  N   UNL     1      49.174   6.825  14.651  0.00  0.00    +0.000 NA
ATOM      5  C   UNL     1      49.620   7.495  13.556  0.00  0.00    +0.000 A 
ATOM      6  C   UNL     1      48.939   7.484  12.346  0.00  0.00    +0.000 A 
ATOM      7  N   UNL     1      47.770   6.807  12.167  0.00  0.00    +0.000 NA
ATOM      8  H   UNL     1      46.464   4.373  13.198  0.00  0.00    +0.000 HD
ENDROOT
BRANCH   5   9
ATOM      9  C   UNL     1      50.884   8.261  13.709  0.00  0.00    +0.000 C 
ATOM     10  N   UNL     1      51.906   7.889  12.874  0.00  0.00    +0.000 N 
ATOM     11  O   UNL     1      51.008   9.162  14.528  0.00  0.00    +0.000 OA
ATOM     12  H   UNL     1      51.766   7.126  12.221  0.00  0.00    +0.000 HD
ATOM     13  H   UNL     1      52.797   8.360  12.927  0.00  0.00    +0.000 HD
ENDBRANCH   5   9
BRANCH   1  15
ATOM     14  C   UNL     1      43.756   5.385  12.685  0.00  0.00    +0.000 C 
ATOM     15  C   UNL     1      45.167   5.591  12.116  0.00  0.00    +0.000 C 
BRANCH  15  16
ATOM     16  C   UNL     1      45.427   4.592  10.933  0.00  0.00    +0.000 C 
ATOM     17  C   UNL     1      45.689   5.322   9.596  0.00  0.00    +0.000 C 
ATOM     18  C   UNL     1      45.801   4.378   8.405  0.00  0.00    +0.000 C 
ATOM     19  C   UNL     1      44.584   3.469   8.308  0.00  0.00    +0.000 C 
ATOM     20  C   UNL     1      44.430   2.651   9.585  0.00  0.00    +0.000 C 
ATOM     21  C   UNL     1      44.291   3.553  10.810  0.00  0.00    +0.000 C 
ENDBRANCH  15  16
ENDBRANCH   1  15
TORSDOF 3
ENDMDL
MODEL 8
REMARK VINA RESULT:    -5.343      1.927      2.191
REMARK INTER + INTRA:          -6.688
REMARK INTER:                  -6.307
REMARK INTRA:                  -0.380
REMARK UNBOUND:                -0.408
REMARK  Name = 
REMARK  4 active torsions:
REMARK  status: ('A' for Active; 'I' for Inactive)
REMARK    1  A    between atoms: C_1  and  C_2
REMARK    2  A    between atoms: C_2  and  N_3
REMARK    3  A    between atoms: C_2  and  C_13
REMARK    4  A    between atoms: C_7  and  C_8
REMARK                            x       y       z     vdW  Elec       q    Type
REMARK                         _______ _______ _______ _____ _____    ______ ____
ROOT
ATOM      1  N   UNL     1      46.332   5.601  11.842  0.00  0.00    +0.000 N 
ATOM      2  C   UNL     1      46.965   6.748  12.334  0.00  0.00    +0.000 A 
ATOM      3  C   UNL     1      48.171   6.585  13.026  0.00  0.00    +0.000 A 
ATOM      4  N   UNL     1      48.915   7.602  13.521  0.00  0.00    +0.000 NA
ATOM      5  C   UNL     1      48.401   8.835  13.269  0.00  0.00    +0.000 A 
ATOM      6  C   UNL     1      47.214   9.021  12.575  0.00  0.00    +0.000 A 
ATOM      7  N   UNL     1      46.470   7.983  12.099  0.00  0.00    +0.000 NA
ATOM      8  H   UNL     1      46.913   5.249  11.086  0.00  0.00    +0.000 HD
ENDROOT
BRANCH   5   9
ATOM      9  C   UNL     1      49.171   9.998  13.783  0.00  0.00    +0.000 C 
ATOM     10  N   UNL     1      48.588  10.683  14.816  0.00  0.00    +0.000 N 
ATOM     11  O   UNL     1      50.253  10.325  13.313  0.00  0.00    +0.000 OA
ATOM     12  H   UNL     1      47.683  10.387  15.165  0.00  0.00    +0.000 HD
ATOM     13  H   UNL     1      49.050  11.489  15.211  0.00  0.00    +0.000 HD
ENDBRANCH   5   9
BRANCH   1  15
ATOM     14  C   UNL     1      44.066   5.218  12.693  0.00  0.00    +0.000 C 
ATOM     15  C   UNL     1      44.909   5.651  11.484  0.00  0.00    +0.000 C 
BRANCH  15  16
ATOM     16  C   UNL     1      44.658   4.685  10.274  0.00  0.00    +0.000 C 
ATOM     17  C   UNL     1      44.648   3.199  10.701  0.00  0.00    +0.000 C 
ATOM     18  C   UNL     1      44.551   2.233   9.525  0.00  0.00    +0.000 C 
ATOM     19  C   UNL     1      45.641   2.506   8.499  0.00  0.00    +0.000 C 
ATOM     20  C   UNL     1      45.540   3.936   7.984  0.00  0.00    +0.000 C 
ATOM     21  C   UNL     1      45.655   4.947   9.123  0.00  0.00    +0.000 C 
ENDBRANCH  15  16
ENDBRANCH   1  15
TORSDOF 3
ENDMDL
MODEL 9
REMARK VINA RESULT:    -5.334      2.941      7.413
REMARK INTER + INTRA:          -6.677
REMARK INTER:                  -6.305
REMARK INTRA:                  -0.372
REMARK UNBOUND:                -0.408
REMARK  Name = 
REMARK  4 active torsions:
REMARK  status: ('A' for Active; 'I' for Inactive)
REMARK    1  A    between atoms: C_1  and  C_2
REMARK    2  A    between atoms: C_2  and  N_3
REMARK    3  A    between atoms: C_2  and  C_13
REMARK    4  A    between atoms: C_7  and  C_8
REMARK                            x       y       z     vdW  Elec       q    Type
REMARK                         _______ _______ _______ _____ _____    ______ ____
ROOT
ATOM      1  N   UNL     1      47.346   6.394  13.955  0.00  0.00    +0.000 N 
ATOM      2  C   UNL     1      46.581   5.556  13.137  0.00  0.00    +0.000 A 
ATOM      3  C   UNL     1      46.373   4.237  13.559  0.00  0.00    +0.000 A 
ATOM      4  N   UNL     1      45.623   3.327  12.895  0.00  0.00    +0.000 NA
ATOM      5  C   UNL     1      45.048   3.809  11.762  0.00  0.00    +0.000 A 
ATOM      6  C   UNL     1      45.229   5.115  11.329  0.00  0.00    +0.000 A 
ATOM      7  N   UNL     1      46.003   6.011  12.003  0.00  0.00    +0.000 NA
ATOM      8  H   UNL     1      46.793   6.570  14.789  0.00  0.00    +0.000 HD
ENDROOT
BRANCH   5   9
ATOM      9  C   UNL     1      44.207   2.861  10.985  0.00  0.00    +0.000 C 
ATOM     10  N   UNL     1      44.802   2.312   9.879  0.00  0.00    +0.000 N 
ATOM     11  O   UNL     1      43.057   2.591  11.307  0.00  0.00    +0.000 OA
ATOM     12  H   UNL     1      45.752   2.576   9.639  0.00  0.00    +0.000 HD
ATOM     13  H   UNL     1      44.288   1.665   9.298  0.00  0.00    +0.000 HD
ENDBRANCH   5   9
BRANCH   1  15
ATOM     14  C   UNL     1      49.288   7.284  12.755  0.00  0.00    +0.000 C 
ATOM     15  C   UNL     1      47.934   7.618  13.398  0.00  0.00    +0.000 C 
BRANCH  15  16
ATOM     16  C   UNL     1      48.126   8.659  14.556  0.00  0.00    +0.000 C 
ATOM     17  C   UNL     1      48.961   9.882  14.114  0.00  0.00    +0.000 C 
ATOM     18  C   UNL     1      49.285  10.838  15.257  0.00  0.00    +0.000 C 
ATOM     19  C   UNL     1      49.947  10.106  16.415  0.00  0.00    +0.000 C 
ATOM     20  C   UNL     1      49.040   8.995  16.930  0.00  0.00    +0.000 C 
ATOM     21  C   UNL     1      48.703   7.995  15.826  0.00  0.00    +0.000 C 
ENDBRANCH  15  16
ENDBRANCH   1  15
TORSDOF 3
ENDMDL
