MODEL 1
REMARK VINA RESULT:    -8.490      0.000      0.000
REMARK INTER + INTRA:         -12.606
REMARK INTER:                 -11.964
REMARK INTRA:                  -0.643
REMARK UNBOUND:                -0.643
REMARK  Name = 
REMARK  7 active torsions:
REMARK  status: ('A' for Active; 'I' for Inactive)
REMARK    1  A    between atoms: C_2  and  C_20
REMARK    2  A    between atoms: N_3  and  C_4
REMARK    3  A    between atoms: C_4  and  C_5
REMARK    4  A    between atoms: C_8  and  C_9
REMARK    5  A    between atoms: C_9  and  N_10
REMARK    6  A    between atoms: N_10  and  C_11
REMARK    7  A    between atoms: C_11  and  C_12
REMARK                            x       y       z     vdW  Elec       q    Type
REMARK                         _______ _______ _______ _____ _____    ______ ____
ROOT
ATOM      1  C   UNL     1      46.401   4.677  14.874  0.00  0.00    +0.000 C 
ENDROOT
BRANCH   1   2
ATOM      2  C   UNL     1      46.818   4.481  13.405  0.00  0.00    +0.000 C 
ATOM      3  C   UNL     1      45.978   3.413  12.682  0.00  0.00    +0.000 C 
ATOM      4  C   UNL     1      44.548   3.864  12.388  0.00  0.00    +0.000 C 
ATOM      5  C   UNL     1      44.474   5.217  11.651  0.00  0.00    +0.000 C 
ATOM      6  C   UNL     1      45.316   6.272  12.384  0.00  0.00    +0.000 C 
ATOM      7  C   UNL     1      46.751   5.815  12.648  0.00  0.00    +0.000 C 
BRANCH   5   8
ATOM      8  C   UNL     1      44.860   5.121  10.156  0.00  0.00    +0.000 C 
BRANCH   8   9
ATOM      9  N   UNL     1      44.596   3.770   9.680  0.00  0.00    +0.000 NA
ATOM     10  H   UNL     1      43.656   3.473   9.949  0.00  0.00    +0.000 HD
BRANCH   9  11
ATOM     11  C   UNL     1      44.701   3.632   8.218  0.00  0.00    +0.000 C 
BRANCH  11  12
ATOM     12  C   UNL     1      45.907   2.782   7.840  0.00  0.00    +0.000 A 
ATOM     13  N   UNL     1      46.871   3.380   7.120  0.00  0.00    +0.000 NA
ATOM     14  C   UNL     1      47.841   2.566   6.709  0.00  0.00    +0.000 A 
ATOM     15  N   UNL     1      47.933   1.263   6.960  0.00  0.00    +0.000 NA
ATOM     16  C   UNL     1      46.930   0.786   7.694  0.00  0.00    +0.000 A 
ATOM     17  N   UNL     1      45.898   1.484   8.167  0.00  0.00    +0.000 NA
ENDBRANCH  11  12
ENDBRANCH   9  11
ENDBRANCH   8   9
ENDBRANCH   5   8
ENDBRANCH   1   2
BRANCH   1  20
ATOM     18  O   UNL     1      46.747   3.272  17.310  0.00  0.00    +0.000 OA
ATOM     19  C   UNL     1      47.635   4.024  16.923  0.00  0.00    +0.000 C 
ATOM     20  N   UNL     1      47.534   4.750  15.764  0.00  0.00    +0.000 N 
ATOM     21  H   UNL     1      48.319   5.309  15.450  0.00  0.00    +0.000 HD
BRANCH  19  22
ATOM     22  C   UNL     1      48.866   4.228  17.696  0.00  0.00    +0.000 A 
ATOM     23  C   UNL     1      48.949   5.285  18.592  0.00  0.00    +0.000 A 
ATOM     24  S   UNL     1      50.448   5.380  19.399  0.00  0.00    +0.000 S 
ATOM     25  C   UNL     1      51.026   3.990  18.607  0.00  0.00    +0.000 A 
ATOM     26  N   UNL     1      52.269   3.502  18.869  0.00  0.00    +0.000 NA
ATOM     27  C   UNL     1      52.564   2.422  18.224  0.00  0.00    +0.000 A 
ATOM     28  N   UNL     1      51.737   1.791  17.333  0.00  0.00    +0.000 N 
ATOM     29  C   UNL     1      50.504   2.288  16.985  0.00  0.00    +0.000 A 
ATOM     30  O   UNL     1      49.845   1.760  16.094  0.00  0.00    +0.000 OA
ATOM     31  C   UNL     1      50.101   3.475  17.717  0.00  0.00    +0.000 A 
ATOM     32  H   UNL     1      52.044   0.970  16.833  0.00  0.00    +0.000 HD
ENDBRANCH  19  22
ENDBRANCH   1  20
TORSDOF 7
ENDMDL
MODEL 2
REMARK VINA RESULT:    -8.356      2.061      2.855
REMARK INTER + INTRA:         -12.419
REMARK INTER:                 -11.363
REMARK INTRA:                  -1.056
REMARK UNBOUND:                -0.643
REMARK  Name = 
REMARK  7 active torsions:
REMARK  status: ('A' for Active; 'I' for Inactive)
REMARK    1  A    between atoms: C_2  and  C_20
REMARK    2  A    between atoms: N_3  and  C_4
REMARK    3  A    between atoms: C_4  and  C_5
REMARK    4  A    between atoms: C_8  and  C_9
REMARK    5  A    between atoms: C_9  and  N_10
REMARK    6  A    between atoms: N_10  and  C_11
REMARK    7  A    between atoms: C_11  and  C_12
REMARK                            x       y       z     vdW  Elec       q    Type
REMARK                         _______ _______ _______ _____ _____    ______ ____
ROOT
ATOM      1  C   UNL     1      46.957   7.236  13.069  0.00  0.00    +0.000 C 
ENDROOT
BRANCH   1   2
ATOM      2  C   UNL     1      45.471   6.973  12.765  0.00  0.00    +0.000 C 
ATOM      3  C   UNL     1      45.123   7.151  11.276  0.00  0.00    +0.000 C 
ATOM      4  C   UNL     1      45.672   6.035  10.389  0.00  0.00    +0.000 C 
ATOM      5  C   UNL     1      45.294   4.622  10.879  0.00  0.00    +0.000 C 
ATOM      6  C   UNL     1      45.646   4.460  12.366  0.00  0.00    +0.000 C 
ATOM      7  C   UNL     1      45.069   5.571  13.243  0.00  0.00    +0.000 C 
BRANCH   5   8
ATOM      8  C   UNL     1      43.816   4.255  10.603  0.00  0.00    +0.000 C 
BRANCH   8   9
ATOM      9  N   UNL     1      43.754   3.345   9.466  0.00  0.00    +0.000 NA
ATOM     10  H   UNL     1      43.968   3.841   8.600  0.00  0.00    +0.000 HD
BRANCH   9  11
ATOM     11  C   UNL     1      44.687   2.212   9.570  0.00  0.00    +0.000 C 
BRANCH  11  12
ATOM     12  C   UNL     1      45.647   2.191   8.387  0.00  0.00    +0.000 A 
ATOM     13  N   UNL     1      46.329   1.053   8.177  0.00  0.00    +0.000 NA
ATOM     14  C   UNL     1      47.243   1.124   7.212  0.00  0.00    +0.000 A 
ATOM     15  N   UNL     1      47.509   2.188   6.459  0.00  0.00    +0.000 NA
ATOM     16  C   UNL     1      46.761   3.251   6.748  0.00  0.00    +0.000 A 
ATOM     17  N   UNL     1      45.817   3.319   7.686  0.00  0.00    +0.000 NA
ENDBRANCH  11  12
ENDBRANCH   9  11
ENDBRANCH   8   9
ENDBRANCH   5   8
ENDBRANCH   1   2
BRANCH   1  20
ATOM     18  O   UNL     1      49.588   6.949  14.080  0.00  0.00    +0.000 OA
ATOM     19  C   UNL     1      48.637   6.700  14.812  0.00  0.00    +0.000 C 
ATOM     20  N   UNL     1      47.336   6.799  14.390  0.00  0.00    +0.000 N 
ATOM     21  H   UNL     1      46.579   6.645  15.048  0.00  0.00    +0.000 HD
BRANCH  19  22
ATOM     22  C   UNL     1      48.824   6.240  16.193  0.00  0.00    +0.000 A 
ATOM     23  C   UNL     1      49.461   7.063  17.113  0.00  0.00    +0.000 A 
ATOM     24  S   UNL     1      49.600   6.372  18.665  0.00  0.00    +0.000 S 
ATOM     25  C   UNL     1      48.783   4.963  18.173  0.00  0.00    +0.000 A 
ATOM     26  N   UNL     1      48.541   3.952  19.052  0.00  0.00    +0.000 NA
ATOM     27  C   UNL     1      47.880   2.960  18.553  0.00  0.00    +0.000 A 
ATOM     28  N   UNL     1      47.450   2.879  17.256  0.00  0.00    +0.000 N 
ATOM     29  C   UNL     1      47.733   3.842  16.318  0.00  0.00    +0.000 A 
ATOM     30  O   UNL     1      47.434   3.676  15.140  0.00  0.00    +0.000 OA
ATOM     31  C   UNL     1      48.432   5.004  16.836  0.00  0.00    +0.000 A 
ATOM     32  H   UNL     1      46.970   2.057  16.920  0.00  0.00    +0.000 HD
ENDBRANCH  19  22
ENDBRANCH   1  20
TORSDOF 7
ENDMDL
MODEL 3
REMARK VINA RESULT:    -7.840      1.468      1.775
REMARK INTER + INTRA:         -11.690
REMARK INTER:                 -10.801
REMARK INTRA:                  -0.890
REMARK UNBOUND:                -0.643
REMARK  Name = 
REMARK  7 active torsions:
REMARK  status: ('A' for Active; 'I' for Inactive)
REMARK    1  A    between atoms: C_2  and  C_20
REMARK    2  A    between atoms: N_3  and  C_4
REMARK    3  A    between atoms: C_4  and  C_5
REMARK    4  A    between atoms: C_8  and  C_9
REMARK    5  A    between atoms: C_9  and  N_10
REMARK    6  A    between atoms: N_10  and  C_11
REMARK    7  A    between atoms: C_11  and  C_12
REMARK                            x       y       z     vdW  Elec       q    Type
REMARK                         _______ _______ _______ _____ _____    ______ ____
ROOT
ATOM      1  C   UNL     1      48.256   6.789  15.093  0.00  0.00    +0.000 C 
ENDROOT
BRANCH   1   2
ATOM      2  C   UNL     1      48.187   6.320  13.628  0.00  0.00    +0.000 C 
ATOM      3  C   UNL     1      47.371   5.027  13.451  0.00  0.00    +0.000 C 
ATOM      4  C   UNL     1      45.868   5.230  13.631  0.00  0.00    +0.000 C 
ATOM      5  C   UNL     1      45.296   6.367  12.759  0.00  0.00    +0.000 C 
ATOM      6  C   UNL     1      46.120   7.650  12.946  0.00  0.00    +0.000 C 
ATOM      7  C   UNL     1      47.619   7.435  12.738  0.00  0.00    +0.000 C 
BRANCH   5   8
ATOM      8  C   UNL     1      45.170   5.986  11.264  0.00  0.00    +0.000 C 
BRANCH   8   9
ATOM      9  N   UNL     1      44.510   4.692  11.154  0.00  0.00    +0.000 NA
ATOM     10  H   UNL     1      43.714   4.642  11.792  0.00  0.00    +0.000 HD
BRANCH   9  11
ATOM     11  C   UNL     1      44.011   4.401   9.801  0.00  0.00    +0.000 C 
BRANCH  11  12
ATOM     12  C   UNL     1      45.062   3.661   8.983  0.00  0.00    +0.000 A 
ATOM     13  N   UNL     1      45.731   4.375   8.063  0.00  0.00    +0.000 NA
ATOM     14  C   UNL     1      46.547   3.660   7.292  0.00  0.00    +0.000 A 
ATOM     15  N   UNL     1      46.753   2.348   7.371  0.00  0.00    +0.000 NA
ATOM     16  C   UNL     1      46.047   1.751   8.328  0.00  0.00    +0.000 A 
ATOM     17  N   UNL     1      45.195   2.341   9.166  0.00  0.00    +0.000 NA
ENDBRANCH  11  12
ENDBRANCH   9  11
ENDBRANCH   8   9
ENDBRANCH   5   8
ENDBRANCH   1   2
BRANCH   1  20
ATOM     18  O   UNL     1      47.961   4.807  17.097  0.00  0.00    +0.000 OA
ATOM     19  C   UNL     1      49.088   5.172  16.779  0.00  0.00    +0.000 C 
ATOM     20  N   UNL     1      49.311   6.136  15.831  0.00  0.00    +0.000 N 
ATOM     21  H   UNL     1      50.260   6.361  15.554  0.00  0.00    +0.000 HD
BRANCH  19  22
ATOM     22  C   UNL     1      50.287   4.621  17.421  0.00  0.00    +0.000 A 
ATOM     23  C   UNL     1      51.104   5.449  18.180  0.00  0.00    +0.000 A 
ATOM     24  S   UNL     1      52.455   4.649  18.846  0.00  0.00    +0.000 S 
ATOM     25  C   UNL     1      51.977   3.162  18.173  0.00  0.00    +0.000 A 
ATOM     26  N   UNL     1      52.705   2.031  18.388  0.00  0.00    +0.000 NA
ATOM     27  C   UNL     1      52.208   0.967  17.849  0.00  0.00    +0.000 A 
ATOM     28  N   UNL     1      51.058   0.930  17.107  0.00  0.00    +0.000 N 
ATOM     29  C   UNL     1      50.331   2.057  16.806  0.00  0.00    +0.000 A 
ATOM     30  O   UNL     1      49.375   1.999  16.038  0.00  0.00    +0.000 OA
ATOM     31  C   UNL     1      50.818   3.275  17.427  0.00  0.00    +0.000 A 
ATOM     32  H   UNL     1      50.743   0.071  16.681  0.00  0.00    +0.000 HD
ENDBRANCH  19  22
ENDBRANCH   1  20
TORSDOF 7
ENDMDL
MODEL 4
REMARK VINA RESULT:    -7.778      2.440      3.077
REMARK INTER + INTRA:         -11.604
REMARK INTER:                 -10.933
REMARK INTRA:                  -0.671
REMARK UNBOUND:                -0.643
REMARK  Name = 
REMARK  7 active torsions:
REMARK  status: ('A' for Active; 'I' for Inactive)
REMARK    1  A    between atoms: C_2  and  C_20
REMARK    2  A    between atoms: N_3  and  C_4
REMARK    3  A    between atoms: C_4  and  C_5
REMARK    4  A    between atoms: C_8  and  C_9
REMARK    5  A    between atoms: C_9  and  N_10
REMARK    6  A    between atoms: N_10  and  C_11
REMARK    7  A    between atoms: C_11  and  C_12
REMARK                            x       y       z     vdW  Elec       q    Type
REMARK                         _______ _______ _______ _____ _____    ______ ____
ROOT
ATOM      1  C   UNL     1      46.881   6.948  13.273  0.00  0.00    +0.000 C 
ENDROOT
BRANCH   1   2
ATOM      2  C   UNL     1      45.456   6.851  12.698  0.00  0.00    +0.000 C 
ATOM      3  C   UNL     1      45.414   7.020  11.168  0.00  0.00    +0.000 C 
ATOM      4  C   UNL     1      45.979   5.820  10.411  0.00  0.00    +0.000 C 
ATOM      5  C   UNL     1      45.349   4.477  10.835  0.00  0.00    +0.000 C 
ATOM      6  C   UNL     1      45.396   4.323  12.362  0.00  0.00    +0.000 C 
ATOM      7  C   UNL     1      44.805   5.521  13.105  0.00  0.00    +0.000 C 
BRANCH   5   8
ATOM      8  C   UNL     1      43.915   4.277  10.289  0.00  0.00    +0.000 C 
BRANCH   8   9
ATOM      9  N   UNL     1      43.980   3.553   9.026  0.00  0.00    +0.000 NA
ATOM     10  H   UNL     1      44.595   4.036   8.369  0.00  0.00    +0.000 HD
BRANCH   9  11
ATOM     11  C   UNL     1      44.476   2.175   9.166  0.00  0.00    +0.000 C 
BRANCH  11  12
ATOM     12  C   UNL     1      45.748   1.972   8.351  0.00  0.00    +0.000 A 
ATOM     13  N   UNL     1      46.263   3.056   7.748  0.00  0.00    +0.000 NA
ATOM     14  C   UNL     1      47.299   2.807   6.950  0.00  0.00    +0.000 A 
ATOM     15  N   UNL     1      47.850   1.617   6.727  0.00  0.00    +0.000 NA
ATOM     16  C   UNL     1      47.265   0.622   7.390  0.00  0.00    +0.000 A 
ATOM     17  N   UNL     1      46.224   0.729   8.215  0.00  0.00    +0.000 NA
ENDBRANCH  11  12
ENDBRANCH   9  11
ENDBRANCH   8   9
ENDBRANCH   5   8
ENDBRANCH   1   2
BRANCH   1  20
ATOM     18  O   UNL     1      49.284   6.522  14.711  0.00  0.00    +0.000 OA
ATOM     19  C   UNL     1      48.248   6.005  15.114  0.00  0.00    +0.000 C 
ATOM     20  N   UNL     1      47.050   6.151  14.464  0.00  0.00    +0.000 N 
ATOM     21  H   UNL     1      46.206   5.760  14.868  0.00  0.00    +0.000 HD
BRANCH  19  22
ATOM     22  C   UNL     1      48.222   5.158  16.312  0.00  0.00    +0.000 A 
ATOM     23  C   UNL     1      47.858   3.822  16.204  0.00  0.00    +0.000 A 
ATOM     24  S   UNL     1      47.875   2.987  17.690  0.00  0.00    +0.000 S 
ATOM     25  C   UNL     1      48.403   4.372  18.526  0.00  0.00    +0.000 A 
ATOM     26  N   UNL     1      48.642   4.332  19.865  0.00  0.00    +0.000 NA
ATOM     27  C   UNL     1      49.073   5.443  20.364  0.00  0.00    +0.000 A 
ATOM     28  N   UNL     1      49.277   6.594  19.650  0.00  0.00    +0.000 N 
ATOM     29  C   UNL     1      48.981   6.700  18.312  0.00  0.00    +0.000 A 
ATOM     30  O   UNL     1      49.063   7.781  17.736  0.00  0.00    +0.000 OA
ATOM     31  C   UNL     1      48.539   5.465  17.690  0.00  0.00    +0.000 A 
ATOM     32  H   UNL     1      49.580   7.441  20.107  0.00  0.00    +0.000 HD
ENDBRANCH  19  22
ENDBRANCH   1  20
TORSDOF 7
ENDMDL
MODEL 5
REMARK VINA RESULT:    -7.623      5.054      5.616
REMARK INTER + INTRA:         -11.385
REMARK INTER:                 -10.630
REMARK INTRA:                  -0.755
REMARK UNBOUND:                -0.643
REMARK  Name = 
REMARK  7 active torsions:
REMARK  status: ('A' for Active; 'I' for Inactive)
REMARK    1  A    between atoms: C_2  and  C_20
REMARK    2  A    between atoms: N_3  and  C_4
REMARK    3  A    between atoms: C_4  and  C_5
REMARK    4  A    between atoms: C_8  and  C_9
REMARK    5  A    between atoms: C_9  and  N_10
REMARK    6  A    between atoms: N_10  and  C_11
REMARK    7  A    between atoms: C_11  and  C_12
REMARK                            x       y       z     vdW  Elec       q    Type
REMARK                         _______ _______ _______ _____ _____    ______ ____
ROOT
ATOM      1  C   UNL     1      45.105   7.402  12.873  0.00  0.00    +0.000 C 
ENDROOT
BRANCH   1   2
ATOM      2  C   UNL     1      44.819   6.576  11.605  0.00  0.00    +0.000 C 
ATOM      3  C   UNL     1      45.730   5.342  11.476  0.00  0.00    +0.000 C 
ATOM      4  C   UNL     1      45.396   4.234  12.474  0.00  0.00    +0.000 C 
ATOM      5  C   UNL     1      43.908   3.826  12.457  0.00  0.00    +0.000 C 
ATOM      6  C   UNL     1      43.011   5.066  12.587  0.00  0.00    +0.000 C 
ATOM      7  C   UNL     1      43.343   6.154  11.565  0.00  0.00    +0.000 C 
BRANCH   5   8
ATOM      8  C   UNL     1      43.523   2.973  11.225  0.00  0.00    +0.000 C 
BRANCH   8   9
ATOM      9  N   UNL     1      44.730   2.628  10.485  0.00  0.00    +0.000 NA
ATOM     10  H   UNL     1      44.962   1.643  10.621  0.00  0.00    +0.000 HD
BRANCH   9  11
ATOM     11  C   UNL     1      44.616   2.861   9.037  0.00  0.00    +0.000 C 
BRANCH  11  12
ATOM     12  C   UNL     1      45.830   2.304   8.302  0.00  0.00    +0.000 A 
ATOM     13  N   UNL     1      46.575   3.180   7.608  0.00  0.00    +0.000 NA
ATOM     14  C   UNL     1      47.548   2.630   6.885  0.00  0.00    +0.000 A 
ATOM     15  N   UNL     1      47.835   1.333   6.813  0.00  0.00    +0.000 NA
ATOM     16  C   UNL     1      47.040   0.565   7.554  0.00  0.00    +0.000 A 
ATOM     17  N   UNL     1      46.031   0.981   8.319  0.00  0.00    +0.000 NA
ENDBRANCH  11  12
ENDBRANCH   9  11
ENDBRANCH   8   9
ENDBRANCH   5   8
ENDBRANCH   1   2
BRANCH   1  20
ATOM     18  O   UNL     1      45.678   9.976  11.838  0.00  0.00    +0.000 OA
ATOM     19  C   UNL     1      46.588   9.311  12.322  0.00  0.00    +0.000 C 
ATOM     20  N   UNL     1      46.392   8.052  12.827  0.00  0.00    +0.000 N 
ATOM     21  H   UNL     1      47.160   7.564  13.276  0.00  0.00    +0.000 HD
BRANCH  19  22
ATOM     22  C   UNL     1      47.969   9.807  12.364  0.00  0.00    +0.000 A 
ATOM     23  C   UNL     1      48.225  11.096  12.812  0.00  0.00    +0.000 A 
ATOM     24  S   UNL     1      49.879  11.510  12.790  0.00  0.00    +0.000 S 
ATOM     25  C   UNL     1      50.315   9.969  12.215  0.00  0.00    +0.000 A 
ATOM     26  N   UNL     1      51.619   9.647  11.999  0.00  0.00    +0.000 NA
ATOM     27  C   UNL     1      51.809   8.433  11.598  0.00  0.00    +0.000 A 
ATOM     28  N   UNL     1      50.816   7.516  11.383  0.00  0.00    +0.000 N 
ATOM     29  C   UNL     1      49.482   7.819  11.520  0.00  0.00    +0.000 A 
ATOM     30  O   UNL     1      48.619   7.007  11.201  0.00  0.00    +0.000 OA
ATOM     31  C   UNL     1      49.213   9.157  12.015  0.00  0.00    +0.000 A 
ATOM     32  H   UNL     1      51.029   6.594  11.033  0.00  0.00    +0.000 HD
ENDBRANCH  19  22
ENDBRANCH   1  20
TORSDOF 7
ENDMDL
MODEL 6
REMARK VINA RESULT:    -7.368      3.788      8.830
REMARK INTER + INTRA:         -11.026
REMARK INTER:                 -10.024
REMARK INTRA:                  -1.002
REMARK UNBOUND:                -0.643
REMARK  Name = 
REMARK  7 active torsions:
REMARK  status: ('A' for Active; 'I' for Inactive)
REMARK    1  A    between atoms: C_2  and  C_20
REMARK    2  A    between atoms: N_3  and  C_4
REMARK    3  A    between atoms: C_4  and  C_5
REMARK    4  A    between atoms: C_8  and  C_9
REMARK    5  A    between atoms: C_9  and  N_10
REMARK    6  A    between atoms: N_10  and  C_11
REMARK    7  A    between atoms: C_11  and  C_12
REMARK                            x       y       z     vdW  Elec       q    Type
REMARK                         _______ _______ _______ _____ _____    ______ ____
ROOT
ATOM      1  C   UNL     1      46.836   8.311  12.022  0.00  0.00    +0.000 C 
ENDROOT
BRANCH   1   2
ATOM      2  C   UNL     1      48.364   8.264  12.203  0.00  0.00    +0.000 C 
ATOM      3  C   UNL     1      48.887   9.346  13.165  0.00  0.00    +0.000 C 
ATOM      4  C   UNL     1      48.539   9.074  14.628  0.00  0.00    +0.000 C 
ATOM      5  C   UNL     1      48.954   7.666  15.103  0.00  0.00    +0.000 C 
ATOM      6  C   UNL     1      48.426   6.598  14.134  0.00  0.00    +0.000 C 
ATOM      7  C   UNL     1      48.803   6.871  12.678  0.00  0.00    +0.000 C 
BRANCH   5   8
ATOM      8  C   UNL     1      50.477   7.522  15.332  0.00  0.00    +0.000 C 
BRANCH   8   9
ATOM      9  N   UNL     1      50.756   6.204  15.887  0.00  0.00    +0.000 NA
ATOM     10  H   UNL     1      51.762   6.030  15.904  0.00  0.00    +0.000 HD
BRANCH   9  11
ATOM     11  C   UNL     1      50.251   6.026  17.257  0.00  0.00    +0.000 C 
BRANCH  11  12
ATOM     12  C   UNL     1      49.175   4.949  17.303  0.00  0.00    +0.000 A 
ATOM     13  N   UNL     1      49.521   3.725  16.870  0.00  0.00    +0.000 NA
ATOM     14  C   UNL     1      48.516   2.853  16.812  0.00  0.00    +0.000 A 
ATOM     15  N   UNL     1      47.252   3.088  17.152  0.00  0.00    +0.000 NA
ATOM     16  C   UNL     1      47.033   4.330  17.580  0.00  0.00    +0.000 A 
ATOM     17  N   UNL     1      47.941   5.300  17.685  0.00  0.00    +0.000 NA
ENDBRANCH  11  12
ENDBRANCH   9  11
ENDBRANCH   8   9
ENDBRANCH   5   8
ENDBRANCH   1   2
BRANCH   1  20
ATOM     18  O   UNL     1      44.151   7.714  11.342  0.00  0.00    +0.000 OA
ATOM     19  C   UNL     1      44.956   6.796  11.457  0.00  0.00    +0.000 C 
ATOM     20  N   UNL     1      46.267   7.004  11.799  0.00  0.00    +0.000 N 
ATOM     21  H   UNL     1      46.913   6.222  11.820  0.00  0.00    +0.000 HD
BRANCH  19  22
ATOM     22  C   UNL     1      44.562   5.395  11.268  0.00  0.00    +0.000 A 
ATOM     23  C   UNL     1      43.756   4.773  12.212  0.00  0.00    +0.000 A 
ATOM     24  S   UNL     1      43.400   3.147  11.841  0.00  0.00    +0.000 S 
ATOM     25  C   UNL     1      44.282   3.228  10.388  0.00  0.00    +0.000 A 
ATOM     26  N   UNL     1      44.361   2.152   9.558  0.00  0.00    +0.000 NA
ATOM     27  C   UNL     1      45.031   2.364   8.474  0.00  0.00    +0.000 A 
ATOM     28  N   UNL     1      45.638   3.547   8.147  0.00  0.00    +0.000 N 
ATOM     29  C   UNL     1      45.643   4.635   8.987  0.00  0.00    +0.000 A 
ATOM     30  O   UNL     1      46.300   5.635   8.711  0.00  0.00    +0.000 OA
ATOM     31  C   UNL     1      44.864   4.468  10.199  0.00  0.00    +0.000 A 
ATOM     32  H   UNL     1      46.179   3.636   7.300  0.00  0.00    +0.000 HD
ENDBRANCH  19  22
ENDBRANCH   1  20
TORSDOF 7
ENDMDL
MODEL 7
REMARK VINA RESULT:    -7.202      2.256      3.027
REMARK INTER + INTRA:         -10.791
REMARK INTER:                 -10.366
REMARK INTRA:                  -0.425
REMARK UNBOUND:                -0.643
REMARK  Name = 
REMARK  7 active torsions:
REMARK  status: ('A' for Active; 'I' for Inactive)
REMARK    1  A    between atoms: C_2  and  C_20
REMARK    2  A    between atoms: N_3  and  C_4
REMARK    3  A    between atoms: C_4  and  C_5
REMARK    4  A    between atoms: C_8  and  C_9
REMARK    5  A    between atoms: C_9  and  N_10
REMARK    6  A    between atoms: N_10  and  C_11
REMARK    7  A    between atoms: C_11  and  C_12
REMARK                            x       y       z     vdW  Elec       q    Type
REMARK                         _______ _______ _______ _____ _____    ______ ____
ROOT
ATOM      1  C   UNL     1      46.346   4.356  14.834  0.00  0.00    +0.000 C 
ENDROOT
BRANCH   1   2
ATOM      2  C   UNL     1      46.533   4.532  13.316  0.00  0.00    +0.000 C 
ATOM      3  C   UNL     1      46.001   3.337  12.504  0.00  0.00    +0.000 C 
ATOM      4  C   UNL     1      44.475   3.257  12.474  0.00  0.00    +0.000 C 
ATOM      5  C   UNL     1      43.803   4.572  12.027  0.00  0.00    +0.000 C 
ATOM      6  C   UNL     1      44.345   5.754  12.845  0.00  0.00    +0.000 C 
ATOM      7  C   UNL     1      45.871   5.834  12.844  0.00  0.00    +0.000 C 
BRANCH   5   8
ATOM      8  C   UNL     1      43.922   4.832  10.506  0.00  0.00    +0.000 C 
BRANCH   8   9
ATOM      9  N   UNL     1      44.655   3.735   9.889  0.00  0.00    +0.000 NA
ATOM     10  H   UNL     1      44.131   2.863   9.973  0.00  0.00    +0.000 HD
BRANCH   9  11
ATOM     11  C   UNL     1      44.935   3.947   8.460  0.00  0.00    +0.000 C 
BRANCH  11  12
ATOM     12  C   UNL     1      46.026   3.001   7.975  0.00  0.00    +0.000 A 
ATOM     13  N   UNL     1      46.984   3.527   7.193  0.00  0.00    +0.000 NA
ATOM     14  C   UNL     1      47.842   2.639   6.695  0.00  0.00    +0.000 A 
ATOM     15  N   UNL     1      47.832   1.327   6.916  0.00  0.00    +0.000 NA
ATOM     16  C   UNL     1      46.847   0.925   7.717  0.00  0.00    +0.000 A 
ATOM     17  N   UNL     1      45.922   1.702   8.280  0.00  0.00    +0.000 NA
ENDBRANCH  11  12
ENDBRANCH   9  11
ENDBRANCH   8   9
ENDBRANCH   5   8
ENDBRANCH   1   2
BRANCH   1  20
ATOM     18  O   UNL     1      48.638   3.634  16.335  0.00  0.00    +0.000 OA
ATOM     19  C   UNL     1      48.300   4.812  16.291  0.00  0.00    +0.000 C 
ATOM     20  N   UNL     1      47.195   5.236  15.599  0.00  0.00    +0.000 N 
ATOM     21  H   UNL     1      46.989   6.228  15.537  0.00  0.00    +0.000 HD
BRANCH  19  22
ATOM     22  C   UNL     1      49.042   5.856  17.008  0.00  0.00    +0.000 A 
ATOM     23  C   UNL     1      50.273   6.280  16.527  0.00  0.00    +0.000 A 
ATOM     24  S   UNL     1      50.999   7.491  17.484  0.00  0.00    +0.000 S 
ATOM     25  C   UNL     1      49.676   7.517  18.554  0.00  0.00    +0.000 A 
ATOM     26  N   UNL     1      49.649   8.373  19.612  0.00  0.00    +0.000 NA
ATOM     27  C   UNL     1      48.570   8.311  20.320  0.00  0.00    +0.000 A 
ATOM     28  N   UNL     1      47.521   7.466  20.076  0.00  0.00    +0.000 N 
ATOM     29  C   UNL     1      47.536   6.537  19.063  0.00  0.00    +0.000 A 
ATOM     30  O   UNL     1      46.630   5.717  18.952  0.00  0.00    +0.000 OA
ATOM     31  C   UNL     1      48.705   6.595  18.205  0.00  0.00    +0.000 A 
ATOM     32  H   UNL     1      46.721   7.442  20.691  0.00  0.00    +0.000 HD
ENDBRANCH  19  22
ENDBRANCH   1  20
TORSDOF 7
ENDMDL
MODEL 8
REMARK VINA RESULT:    -7.150      2.485      3.178
REMARK INTER + INTRA:         -10.719
REMARK INTER:                 -10.184
REMARK INTRA:                  -0.535
REMARK UNBOUND:                -0.643
REMARK  Name = 
REMARK  7 active torsions:
REMARK  status: ('A' for Active; 'I' for Inactive)
REMARK    1  A    between atoms: C_2  and  C_20
REMARK    2  A    between atoms: N_3  and  C_4
REMARK    3  A    between atoms: C_4  and  C_5
REMARK    4  A    between atoms: C_8  and  C_9
REMARK    5  A    between atoms: C_9  and  N_10
REMARK    6  A    between atoms: N_10  and  C_11
REMARK    7  A    between atoms: C_11  and  C_12
REMARK                            x       y       z     vdW  Elec       q    Type
REMARK                         _______ _______ _______ _____ _____    ______ ____
ROOT
ATOM      1  C   UNL     1      46.338   4.114  14.512  0.00  0.00    +0.000 C 
ENDROOT
BRANCH   1   2
ATOM      2  C   UNL     1      46.308   4.359  12.993  0.00  0.00    +0.000 C 
ATOM      3  C   UNL     1      45.530   3.274  12.227  0.00  0.00    +0.000 C 
ATOM      4  C   UNL     1      44.018   3.351  12.436  0.00  0.00    +0.000 C 
ATOM      5  C   UNL     1      43.433   4.751  12.157  0.00  0.00    +0.000 C 
ATOM      6  C   UNL     1      44.220   5.822  12.927  0.00  0.00    +0.000 C 
ATOM      7  C   UNL     1      45.727   5.747  12.687  0.00  0.00    +0.000 C 
BRANCH   5   8
ATOM      8  C   UNL     1      43.344   5.086  10.649  0.00  0.00    +0.000 C 
BRANCH   8   9
ATOM      9  N   UNL     1      44.028   4.050   9.887  0.00  0.00    +0.000 NA
ATOM     10  H   UNL     1      43.390   3.619   9.217  0.00  0.00    +0.000 HD
BRANCH   9  11
ATOM     11  C   UNL     1      45.191   4.546   9.134  0.00  0.00    +0.000 C 
BRANCH  11  12
ATOM     12  C   UNL     1      45.750   3.461   8.223  0.00  0.00    +0.000 A 
ATOM     13  N   UNL     1      45.826   2.219   8.731  0.00  0.00    +0.000 NA
ATOM     14  C   UNL     1      46.433   1.335   7.944  0.00  0.00    +0.000 A 
ATOM     15  N   UNL     1      46.936   1.573   6.736  0.00  0.00    +0.000 NA
ATOM     16  C   UNL     1      46.790   2.833   6.332  0.00  0.00    +0.000 A 
ATOM     17  N   UNL     1      46.207   3.817   7.016  0.00  0.00    +0.000 NA
ENDBRANCH  11  12
ENDBRANCH   9  11
ENDBRANCH   8   9
ENDBRANCH   5   8
ENDBRANCH   1   2
BRANCH   1  20
ATOM     18  O   UNL     1      48.325   3.638  16.475  0.00  0.00    +0.000 OA
ATOM     19  C   UNL     1      48.077   4.792  16.145  0.00  0.00    +0.000 C 
ATOM     20  N   UNL     1      47.119   5.103  15.215  0.00  0.00    +0.000 N 
ATOM     21  H   UNL     1      46.992   6.067  14.925  0.00  0.00    +0.000 HD
BRANCH  19  22
ATOM     22  C   UNL     1      48.770   5.935  16.751  0.00  0.00    +0.000 A 
ATOM     23  C   UNL     1      48.805   6.066  18.133  0.00  0.00    +0.000 A 
ATOM     24  S   UNL     1      49.643   7.452  18.666  0.00  0.00    +0.000 S 
ATOM     25  C   UNL     1      50.020   7.907  17.071  0.00  0.00    +0.000 A 
ATOM     26  N   UNL     1      50.760   9.020  16.818  0.00  0.00    +0.000 NA
ATOM     27  C   UNL     1      51.001   9.227  15.565  0.00  0.00    +0.000 A 
ATOM     28  N   UNL     1      50.562   8.430  14.542  0.00  0.00    +0.000 N 
ATOM     29  C   UNL     1      49.754   7.338  14.746  0.00  0.00    +0.000 A 
ATOM     30  O   UNL     1      49.282   6.721  13.795  0.00  0.00    +0.000 OA
ATOM     31  C   UNL     1      49.490   7.031  16.140  0.00  0.00    +0.000 A 
ATOM     32  H   UNL     1      50.754   8.668  13.580  0.00  0.00    +0.000 HD
ENDBRANCH  19  22
ENDBRANCH   1  20
TORSDOF 7
ENDMDL
MODEL 9
REMARK VINA RESULT:    -7.001      3.710      8.571
REMARK INTER + INTRA:         -10.508
REMARK INTER:                  -9.223
REMARK INTRA:                  -1.286
REMARK UNBOUND:                -0.643
REMARK  Name = 
REMARK  7 active torsions:
REMARK  status: ('A' for Active; 'I' for Inactive)
REMARK    1  A    between atoms: C_2  and  C_20
REMARK    2  A    between atoms: N_3  and  C_4
REMARK    3  A    between atoms: C_4  and  C_5
REMARK    4  A    between atoms: C_8  and  C_9
REMARK    5  A    between atoms: C_9  and  N_10
REMARK    6  A    between atoms: N_10  and  C_11
REMARK    7  A    between atoms: C_11  and  C_12
REMARK                            x       y       z     vdW  Elec       q    Type
REMARK                         _______ _______ _______ _____ _____    ______ ____
ROOT
ATOM      1  C   UNL     1      48.437   8.138  11.843  0.00  0.00    +0.000 C 
ENDROOT
BRANCH   1   2
ATOM      2  C   UNL     1      49.509   7.664  12.841  0.00  0.00    +0.000 C 
ATOM      3  C   UNL     1      50.120   8.818  13.657  0.00  0.00    +0.000 C 
ATOM      4  C   UNL     1      49.164   9.393  14.701  0.00  0.00    +0.000 C 
ATOM      5  C   UNL     1      48.557   8.321  15.630  0.00  0.00    +0.000 C 
ATOM      6  C   UNL     1      47.953   7.176  14.803  0.00  0.00    +0.000 C 
ATOM      7  C   UNL     1      48.930   6.596  13.780  0.00  0.00    +0.000 C 
BRANCH   5   8
ATOM      8  C   UNL     1      49.557   7.792  16.686  0.00  0.00    +0.000 C 
BRANCH   8   9
ATOM      9  N   UNL     1      49.021   6.577  17.286  0.00  0.00    +0.000 NA
ATOM     10  H   UNL     1      48.425   6.083  16.620  0.00  0.00    +0.000 HD
BRANCH   9  11
ATOM     11  C   UNL     1      50.060   5.636  17.732  0.00  0.00    +0.000 C 
BRANCH  11  12
ATOM     12  C   UNL     1      49.817   4.247  17.153  0.00  0.00    +0.000 A 
ATOM     13  N   UNL     1      48.623   4.028  16.579  0.00  0.00    +0.000 NA
ATOM     14  C   UNL     1      48.412   2.769  16.201  0.00  0.00    +0.000 A 
ATOM     15  N   UNL     1      49.266   1.757  16.330  0.00  0.00    +0.000 NA
ATOM     16  C   UNL     1      50.421   2.098  16.899  0.00  0.00    +0.000 A 
ATOM     17  N   UNL     1      50.761   3.313  17.325  0.00  0.00    +0.000 NA
ENDBRANCH  11  12
ENDBRANCH   9  11
ENDBRANCH   8   9
ENDBRANCH   5   8
ENDBRANCH   1   2
BRANCH   1  20
ATOM     18  O   UNL     1      45.615   7.895  11.883  0.00  0.00    +0.000 OA
ATOM     19  C   UNL     1      46.283   7.009  11.362  0.00  0.00    +0.000 C 
ATOM     20  N   UNL     1      47.653   7.047  11.318  0.00  0.00    +0.000 N 
ATOM     21  H   UNL     1      48.161   6.324  10.821  0.00  0.00    +0.000 HD
BRANCH  19  22
ATOM     22  C   UNL     1      45.660   5.817  10.774  0.00  0.00    +0.000 A 
ATOM     23  C   UNL     1      45.845   5.537   9.427  0.00  0.00    +0.000 A 
ATOM     24  S   UNL     1      45.048   4.122   8.908  0.00  0.00    +0.000 S 
ATOM     25  C   UNL     1      44.457   3.814  10.473  0.00  0.00    +0.000 A 
ATOM     26  N   UNL     1      43.700   2.712  10.730  0.00  0.00    +0.000 NA
ATOM     27  C   UNL     1      43.350   2.583  11.967  0.00  0.00    +0.000 A 
ATOM     28  N   UNL     1      43.676   3.458  12.968  0.00  0.00    +0.000 N 
ATOM     29  C   UNL     1      44.376   4.619  12.741  0.00  0.00    +0.000 A 
ATOM     30  O   UNL     1      44.543   5.436  13.642  0.00  0.00    +0.000 OA
ATOM     31  C   UNL     1      44.837   4.790  11.376  0.00  0.00    +0.000 A 
ATOM     32  H   UNL     1      43.338   3.319  13.909  0.00  0.00    +0.000 HD
ENDBRANCH  19  22
ENDBRANCH   1  20
TORSDOF 7
ENDMDL
