MODEL 1
REMARK VINA RESULT:    -8.831      0.000      0.000
REMARK INTER + INTRA:         -13.386
REMARK INTER:                 -12.445
REMARK INTRA:                  -0.941
REMARK UNBOUND:                -0.941
REMARK  Name = 
REMARK  8 active torsions:
REMARK  status: ('A' for Active; 'I' for Inactive)
REMARK    1  A    between atoms: C_1  and  C_2
REMARK    2  A    between atoms: C_2  and  N_3
REMARK    3  A    between atoms: C_2  and  C_25
REMARK    4  A    between atoms: N_3  and  C_4
REMARK    5  A    between atoms: C_4  and  C_5
REMARK    6  A    between atoms: C_8  and  C_9
REMARK    7  A    between atoms: C_9  and  N_10
REMARK    8  A    between atoms: C_11  and  C_13
REMARK                            x       y       z     vdW  Elec       q    Type
REMARK                         _______ _______ _______ _____ _____    ______ ____
ROOT
ATOM      1  C   UNL     1      43.483   4.667  12.157  0.00  0.00    +0.000 C 
ATOM      2  C   UNL     1      44.205   3.333  12.438  0.00  0.00    +0.000 C 
ATOM      3  C   UNL     1      45.725   3.430  12.335  0.00  0.00    +0.000 C 
ATOM      4  C   UNL     1      46.293   4.519  13.255  0.00  0.00    +0.000 C 
ATOM      5  C   UNL     1      45.676   5.863  12.847  0.00  0.00    +0.000 C 
ATOM      6  C   UNL     1      44.146   5.866  12.867  0.00  0.00    +0.000 C 
ENDROOT
BRANCH   1   7
ATOM      7  C   UNL     1      43.335   4.946  10.644  0.00  0.00    +0.000 C 
BRANCH   7   8
ATOM      8  N   UNL     1      44.088   3.954   9.882  0.00  0.00    +0.000 NA
ATOM      9  H   UNL     1      43.437   3.307   9.433  0.00  0.00    +0.000 HD
BRANCH   8  11
ATOM     10  C   UNL     1      45.940   5.558   9.344  0.00  0.00    +0.000 C 
ATOM     11  C   UNL     1      44.946   4.516   8.823  0.00  0.00    +0.000 C 
BRANCH  11  12
ATOM     12  C   UNL     1      45.701   3.388   8.117  0.00  0.00    +0.000 A 
ATOM     13  C   UNL     1      45.720   2.097   8.655  0.00  0.00    +0.000 A 
ATOM     14  C   UNL     1      46.390   1.085   7.978  0.00  0.00    +0.000 A 
ATOM     15  C   UNL     1      47.027   1.381   6.773  0.00  0.00    +0.000 A 
ATOM     16  C   UNL     1      46.957   2.682   6.307  0.00  0.00    +0.000 A 
ATOM     17  N   UNL     1      46.317   3.686   6.943  0.00  0.00    +0.000 NA
ENDBRANCH  11  12
ENDBRANCH   8  11
ENDBRANCH   7   8
ENDBRANCH   1   7
BRANCH   4  18
ATOM     18  C   UNL     1      46.071   4.215  14.748  0.00  0.00    +0.000 C 
BRANCH  18  19
ATOM     19  N   UNL     1      47.232   4.531  15.554  0.00  0.00    +0.000 N 
ATOM     20  C   UNL     1      47.520   3.962  16.766  0.00  0.00    +0.000 C 
ATOM     21  O   UNL     1      46.748   3.212  17.351  0.00  0.00    +0.000 OA
ATOM     22  H   UNL     1      47.910   5.156  15.131  0.00  0.00    +0.000 HD
BRANCH  20  23
ATOM     23  C   UNL     1      48.835   4.309  17.326  0.00  0.00    +0.000 A 
ATOM     24  C   UNL     1      49.049   5.538  17.931  0.00  0.00    +0.000 A 
ATOM     25  S   UNL     1      50.604   5.691  18.624  0.00  0.00    +0.000 S 
ATOM     26  C   UNL     1      51.018   4.099  18.186  0.00  0.00    +0.000 A 
ATOM     27  N   UNL     1      52.193   3.536  18.579  0.00  0.00    +0.000 NA
ATOM     28  C   UNL     1      52.330   2.297  18.245  0.00  0.00    +0.000 A 
ATOM     29  N   UNL     1      51.420   1.581  17.509  0.00  0.00    +0.000 N 
ATOM     30  C   UNL     1      50.316   2.165  16.941  0.00  0.00    +0.000 A 
ATOM     31  O   UNL     1      49.690   1.605  16.046  0.00  0.00    +0.000 OA
ATOM     32  C   UNL     1      50.028   3.501  17.429  0.00  0.00    +0.000 A 
ATOM     33  H   UNL     1      51.634   0.645  17.199  0.00  0.00    +0.000 HD
ENDBRANCH  20  23
ENDBRANCH  18  19
ENDBRANCH   4  18
TORSDOF 7
ENDMDL
MODEL 2
REMARK VINA RESULT:    -8.132      1.345      2.056
REMARK INTER + INTRA:         -12.401
REMARK INTER:                 -11.664
REMARK INTRA:                  -0.737
REMARK UNBOUND:                -0.941
REMARK  Name = 
REMARK  8 active torsions:
REMARK  status: ('A' for Active; 'I' for Inactive)
REMARK    1  A    between atoms: C_1  and  C_2
REMARK    2  A    between atoms: C_2  and  N_3
REMARK    3  A    between atoms: C_2  and  C_25
REMARK    4  A    between atoms: N_3  and  C_4
REMARK    5  A    between atoms: C_4  and  C_5
REMARK    6  A    between atoms: C_8  and  C_9
REMARK    7  A    between atoms: C_9  and  N_10
REMARK    8  A    between atoms: C_11  and  C_13
REMARK                            x       y       z     vdW  Elec       q    Type
REMARK                         _______ _______ _______ _____ _____    ______ ____
ROOT
ATOM      1  C   UNL     1      43.575   4.708  12.227  0.00  0.00    +0.000 C 
ATOM      2  C   UNL     1      44.199   3.368  12.671  0.00  0.00    +0.000 C 
ATOM      3  C   UNL     1      45.717   3.324  12.517  0.00  0.00    +0.000 C 
ATOM      4  C   UNL     1      46.402   4.476  13.264  0.00  0.00    +0.000 C 
ATOM      5  C   UNL     1      45.879   5.800  12.691  0.00  0.00    +0.000 C 
ATOM      6  C   UNL     1      44.356   5.933  12.749  0.00  0.00    +0.000 C 
ENDROOT
BRANCH   1   7
ATOM      7  C   UNL     1      43.395   4.792  10.695  0.00  0.00    +0.000 C 
BRANCH   7   8
ATOM      8  N   UNL     1      44.264   3.819  10.040  0.00  0.00    +0.000 NA
ATOM      9  H   UNL     1      43.706   3.023   9.726  0.00  0.00    +0.000 HD
BRANCH   8  11
ATOM     10  C   UNL     1      45.954   5.475   9.206  0.00  0.00    +0.000 C 
ATOM     11  C   UNL     1      44.988   4.336   8.864  0.00  0.00    +0.000 C 
BRANCH  11  12
ATOM     12  C   UNL     1      45.751   3.197   8.184  0.00  0.00    +0.000 A 
ATOM     13  C   UNL     1      46.605   3.454   7.108  0.00  0.00    +0.000 A 
ATOM     14  C   UNL     1      47.307   2.405   6.527  0.00  0.00    +0.000 A 
ATOM     15  C   UNL     1      47.145   1.117   7.036  0.00  0.00    +0.000 A 
ATOM     16  C   UNL     1      46.283   0.947   8.105  0.00  0.00    +0.000 A 
ATOM     17  N   UNL     1      45.587   1.946   8.688  0.00  0.00    +0.000 NA
ENDBRANCH  11  12
ENDBRANCH   8  11
ENDBRANCH   7   8
ENDBRANCH   1   7
BRANCH   4  18
ATOM     18  C   UNL     1      46.212   4.395  14.790  0.00  0.00    +0.000 C 
BRANCH  18  19
ATOM     19  N   UNL     1      47.455   4.143  15.488  0.00  0.00    +0.000 N 
ATOM     20  C   UNL     1      47.562   3.460  16.671  0.00  0.00    +0.000 C 
ATOM     21  O   UNL     1      46.589   3.100  17.323  0.00  0.00    +0.000 OA
ATOM     22  H   UNL     1      48.302   4.425  15.007  0.00  0.00    +0.000 HD
BRANCH  20  23
ATOM     23  C   UNL     1      48.936   3.177  17.111  0.00  0.00    +0.000 A 
ATOM     24  C   UNL     1      49.536   1.959  16.831  0.00  0.00    +0.000 A 
ATOM     25  S   UNL     1      51.172   1.881  17.320  0.00  0.00    +0.000 S 
ATOM     26  C   UNL     1      51.144   3.492  17.869  0.00  0.00    +0.000 A 
ATOM     27  N   UNL     1      52.272   4.110  18.315  0.00  0.00    +0.000 NA
ATOM     28  C   UNL     1      52.114   5.355  18.616  0.00  0.00    +0.000 A 
ATOM     29  N   UNL     1      50.919   6.028  18.560  0.00  0.00    +0.000 N 
ATOM     30  C   UNL     1      49.733   5.391  18.294  0.00  0.00    +0.000 A 
ATOM     31  O   UNL     1      48.657   5.922  18.549  0.00  0.00    +0.000 OA
ATOM     32  C   UNL     1      49.880   4.042  17.781  0.00  0.00    +0.000 A 
ATOM     33  H   UNL     1      50.847   6.974  18.904  0.00  0.00    +0.000 HD
ENDBRANCH  20  23
ENDBRANCH  18  19
ENDBRANCH   4  18
TORSDOF 7
ENDMDL
MODEL 3
REMARK VINA RESULT:    -8.030      2.018      2.943
REMARK INTER + INTRA:         -12.257
REMARK INTER:                 -11.008
REMARK INTRA:                  -1.249
REMARK UNBOUND:                -0.941
REMARK  Name = 
REMARK  8 active torsions:
REMARK  status: ('A' for Active; 'I' for Inactive)
REMARK    1  A    between atoms: C_1  and  C_2
REMARK    2  A    between atoms: C_2  and  N_3
REMARK    3  A    between atoms: C_2  and  C_25
REMARK    4  A    between atoms: N_3  and  C_4
REMARK    5  A    between atoms: C_4  and  C_5
REMARK    6  A    between atoms: C_8  and  C_9
REMARK    7  A    between atoms: C_9  and  N_10
REMARK    8  A    between atoms: C_11  and  C_13
REMARK                            x       y       z     vdW  Elec       q    Type
REMARK                         _______ _______ _______ _____ _____    ______ ____
ROOT
ATOM      1  C   UNL     1      45.383   5.060  10.768  0.00  0.00    +0.000 C 
ATOM      2  C   UNL     1      45.596   6.557  10.458  0.00  0.00    +0.000 C 
ATOM      3  C   UNL     1      44.921   7.488  11.462  0.00  0.00    +0.000 C 
ATOM      4  C   UNL     1      45.368   7.198  12.901  0.00  0.00    +0.000 C 
ATOM      5  C   UNL     1      44.998   5.747  13.237  0.00  0.00    +0.000 C 
ATOM      6  C   UNL     1      45.584   4.724  12.261  0.00  0.00    +0.000 C 
ENDROOT
BRANCH   1   7
ATOM      7  C   UNL     1      44.009   4.549  10.277  0.00  0.00    +0.000 C 
BRANCH   7   8
ATOM      8  N   UNL     1      44.171   3.829   9.017  0.00  0.00    +0.000 NA
ATOM      9  H   UNL     1      44.596   4.448   8.325  0.00  0.00    +0.000 HD
BRANCH   8  11
ATOM     10  C   UNL     1      44.206   1.325   9.177  0.00  0.00    +0.000 C 
ATOM     11  C   UNL     1      45.016   2.623   9.104  0.00  0.00    +0.000 C 
BRANCH  11  12
ATOM     12  C   UNL     1      45.967   2.572   7.906  0.00  0.00    +0.000 A 
ATOM     13  C   UNL     1      46.779   1.455   7.688  0.00  0.00    +0.000 A 
ATOM     14  C   UNL     1      47.613   1.423   6.577  0.00  0.00    +0.000 A 
ATOM     15  C   UNL     1      47.618   2.508   5.702  0.00  0.00    +0.000 A 
ATOM     16  C   UNL     1      46.782   3.573   5.987  0.00  0.00    +0.000 A 
ATOM     17  N   UNL     1      45.964   3.634   7.059  0.00  0.00    +0.000 NA
ENDBRANCH  11  12
ENDBRANCH   8  11
ENDBRANCH   7   8
ENDBRANCH   1   7
BRANCH   4  18
ATOM     18  C   UNL     1      46.865   7.478  13.130  0.00  0.00    +0.000 C 
BRANCH  18  19
ATOM     19  N   UNL     1      47.368   6.838  14.327  0.00  0.00    +0.000 N 
ATOM     20  C   UNL     1      48.695   6.700  14.639  0.00  0.00    +0.000 C 
ATOM     21  O   UNL     1      49.597   6.997  13.865  0.00  0.00    +0.000 OA
ATOM     22  H   UNL     1      46.672   6.559  15.009  0.00  0.00    +0.000 HD
BRANCH  20  23
ATOM     23  C   UNL     1      48.972   6.170  15.983  0.00  0.00    +0.000 A 
ATOM     24  C   UNL     1      49.758   6.878  16.878  0.00  0.00    +0.000 A 
ATOM     25  S   UNL     1      49.854   6.149  18.421  0.00  0.00    +0.000 S 
ATOM     26  C   UNL     1      48.801   4.895  17.956  0.00  0.00    +0.000 A 
ATOM     27  N   UNL     1      48.362   3.968  18.850  0.00  0.00    +0.000 NA
ATOM     28  C   UNL     1      47.502   3.132  18.373  0.00  0.00    +0.000 A 
ATOM     29  N   UNL     1      47.078   3.105  17.068  0.00  0.00    +0.000 N 
ATOM     30  C   UNL     1      47.635   3.904  16.102  0.00  0.00    +0.000 A 
ATOM     31  O   UNL     1      47.478   3.661  14.909  0.00  0.00    +0.000 OA
ATOM     32  C   UNL     1      48.471   4.972  16.616  0.00  0.00    +0.000 A 
ATOM     33  H   UNL     1      46.479   2.363  16.738  0.00  0.00    +0.000 HD
ENDBRANCH  20  23
ENDBRANCH  18  19
ENDBRANCH   4  18
TORSDOF 7
ENDMDL
MODEL 4
REMARK VINA RESULT:    -7.394      3.818      8.903
REMARK INTER + INTRA:         -11.360
REMARK INTER:                 -10.043
REMARK INTRA:                  -1.317
REMARK UNBOUND:                -0.941
REMARK  Name = 
REMARK  8 active torsions:
REMARK  status: ('A' for Active; 'I' for Inactive)
REMARK    1  A    between atoms: C_1  and  C_2
REMARK    2  A    between atoms: C_2  and  N_3
REMARK    3  A    between atoms: C_2  and  C_25
REMARK    4  A    between atoms: N_3  and  C_4
REMARK    5  A    between atoms: C_4  and  C_5
REMARK    6  A    between atoms: C_8  and  C_9
REMARK    7  A    between atoms: C_9  and  N_10
REMARK    8  A    between atoms: C_11  and  C_13
REMARK                            x       y       z     vdW  Elec       q    Type
REMARK                         _______ _______ _______ _____ _____    ______ ____
ROOT
ATOM      1  C   UNL     1      49.031   7.968  15.035  0.00  0.00    +0.000 C 
ATOM      2  C   UNL     1      48.715   9.331  14.384  0.00  0.00    +0.000 C 
ATOM      3  C   UNL     1      49.185   9.437  12.936  0.00  0.00    +0.000 C 
ATOM      4  C   UNL     1      48.611   8.312  12.064  0.00  0.00    +0.000 C 
ATOM      5  C   UNL     1      49.075   6.969  12.644  0.00  0.00    +0.000 C 
ATOM      6  C   UNL     1      48.698   6.775  14.115  0.00  0.00    +0.000 C 
ENDROOT
BRANCH   1   7
ATOM      7  C   UNL     1      50.491   7.880  15.532  0.00  0.00    +0.000 C 
BRANCH   7   8
ATOM      8  N   UNL     1      50.853   6.484  15.761  0.00  0.00    +0.000 NA
ATOM      9  H   UNL     1      51.826   6.337  15.487  0.00  0.00    +0.000 HD
BRANCH   8  11
ATOM     10  C   UNL     1      50.498   7.192  18.141  0.00  0.00    +0.000 C 
ATOM     11  C   UNL     1      50.720   6.037  17.160  0.00  0.00    +0.000 C 
BRANCH  11  12
ATOM     12  C   UNL     1      49.572   5.033  17.275  0.00  0.00    +0.000 A 
ATOM     13  C   UNL     1      48.302   5.446  17.690  0.00  0.00    +0.000 A 
ATOM     14  C   UNL     1      47.270   4.518  17.759  0.00  0.00    +0.000 A 
ATOM     15  C   UNL     1      47.525   3.193  17.408  0.00  0.00    +0.000 A 
ATOM     16  C   UNL     1      48.808   2.866  17.004  0.00  0.00    +0.000 A 
ATOM     17  N   UNL     1      49.830   3.745  16.930  0.00  0.00    +0.000 NA
ENDBRANCH  11  12
ENDBRANCH   8  11
ENDBRANCH   7   8
ENDBRANCH   1   7
BRANCH   4  18
ATOM     18  C   UNL     1      47.079   8.382  11.931  0.00  0.00    +0.000 C 
BRANCH  18  19
ATOM     19  N   UNL     1      46.465   7.071  11.922  0.00  0.00    +0.000 N 
ATOM     20  C   UNL     1      45.147   6.827  11.641  0.00  0.00    +0.000 C 
ATOM     21  O   UNL     1      44.321   7.719  11.490  0.00  0.00    +0.000 OA
ATOM     22  H   UNL     1      47.093   6.284  12.050  0.00  0.00    +0.000 HD
BRANCH  20  23
ATOM     23  C   UNL     1      44.782   5.407  11.524  0.00  0.00    +0.000 A 
ATOM     24  C   UNL     1      44.138   4.750  12.561  0.00  0.00    +0.000 A 
ATOM     25  S   UNL     1      43.693   3.146  12.176  0.00  0.00    +0.000 S 
ATOM     26  C   UNL     1      44.297   3.299  10.591  0.00  0.00    +0.000 A 
ATOM     27  N   UNL     1      44.134   2.310   9.670  0.00  0.00    +0.000 NA
ATOM     28  C   UNL     1      44.567   2.604   8.490  0.00  0.00    +0.000 A 
ATOM     29  N   UNL     1      45.195   3.777   8.157  0.00  0.00    +0.000 N 
ATOM     30  C   UNL     1      45.540   4.715   9.098  0.00  0.00    +0.000 A 
ATOM     31  O   UNL     1      46.359   5.594   8.848  0.00  0.00    +0.000 OA
ATOM     32  C   UNL     1      44.925   4.514  10.397  0.00  0.00    +0.000 A 
ATOM     33  H   UNL     1      45.597   3.902   7.240  0.00  0.00    +0.000 HD
ENDBRANCH  20  23
ENDBRANCH  18  19
ENDBRANCH   4  18
TORSDOF 7
ENDMDL
MODEL 5
REMARK VINA RESULT:    -7.244      1.938      2.699
REMARK INTER + INTRA:         -11.150
REMARK INTER:                 -10.495
REMARK INTRA:                  -0.655
REMARK UNBOUND:                -0.941
REMARK  Name = 
REMARK  8 active torsions:
REMARK  status: ('A' for Active; 'I' for Inactive)
REMARK    1  A    between atoms: C_1  and  C_2
REMARK    2  A    between atoms: C_2  and  N_3
REMARK    3  A    between atoms: C_2  and  C_25
REMARK    4  A    between atoms: N_3  and  C_4
REMARK    5  A    between atoms: C_4  and  C_5
REMARK    6  A    between atoms: C_8  and  C_9
REMARK    7  A    between atoms: C_9  and  N_10
REMARK    8  A    between atoms: C_11  and  C_13
REMARK                            x       y       z     vdW  Elec       q    Type
REMARK                         _______ _______ _______ _____ _____    ______ ____
ROOT
ATOM      1  C   UNL     1      46.175   6.860  12.816  0.00  0.00    +0.000 C 
ATOM      2  C   UNL     1      47.102   5.669  13.137  0.00  0.00    +0.000 C 
ATOM      3  C   UNL     1      48.577   6.052  13.218  0.00  0.00    +0.000 C 
ATOM      4  C   UNL     1      48.822   7.175  14.234  0.00  0.00    +0.000 C 
ATOM      5  C   UNL     1      48.010   8.403  13.799  0.00  0.00    +0.000 C 
ATOM      6  C   UNL     1      46.514   8.121  13.638  0.00  0.00    +0.000 C 
ENDROOT
BRANCH   1   7
ATOM      7  C   UNL     1      46.144   7.189  11.306  0.00  0.00    +0.000 C 
BRANCH   7   8
ATOM      8  N   UNL     1      44.880   6.741  10.728  0.00  0.00    +0.000 NA
ATOM      9  H   UNL     1      44.944   6.774   9.709  0.00  0.00    +0.000 HD
BRANCH   8  11
ATOM     10  C   UNL     1      42.983   5.222  11.350  0.00  0.00    +0.000 C 
ATOM     11  C   UNL     1      44.487   5.369  11.098  0.00  0.00    +0.000 C 
BRANCH  11  12
ATOM     12  C   UNL     1      44.926   4.393  10.004  0.00  0.00    +0.000 A 
ATOM     13  C   UNL     1      44.611   3.034  10.094  0.00  0.00    +0.000 A 
ATOM     14  C   UNL     1      44.998   2.175   9.073  0.00  0.00    +0.000 A 
ATOM     15  C   UNL     1      45.690   2.691   7.977  0.00  0.00    +0.000 A 
ATOM     16  C   UNL     1      45.958   4.048   7.963  0.00  0.00    +0.000 A 
ATOM     17  N   UNL     1      45.598   4.906   8.941  0.00  0.00    +0.000 NA
ENDBRANCH  11  12
ENDBRANCH   8  11
ENDBRANCH   7   8
ENDBRANCH   1   7
BRANCH   4  18
ATOM     18  C   UNL     1      48.500   6.755  15.680  0.00  0.00    +0.000 C 
BRANCH  18  19
ATOM     19  N   UNL     1      49.629   6.134  16.339  0.00  0.00    +0.000 N 
ATOM     20  C   UNL     1      49.561   4.997  17.099  0.00  0.00    +0.000 C 
ATOM     21  O   UNL     1      48.502   4.458  17.401  0.00  0.00    +0.000 OA
ATOM     22  H   UNL     1      50.538   6.537  16.139  0.00  0.00    +0.000 HD
BRANCH  20  23
ATOM     23  C   UNL     1      50.857   4.452  17.532  0.00  0.00    +0.000 A 
ATOM     24  C   UNL     1      51.810   5.266  18.123  0.00  0.00    +0.000 A 
ATOM     25  S   UNL     1      53.190   4.415  18.663  0.00  0.00    +0.000 S 
ATOM     26  C   UNL     1      52.531   2.923  18.173  0.00  0.00    +0.000 A 
ATOM     27  N   UNL     1      53.157   1.746  18.446  0.00  0.00    +0.000 NA
ATOM     28  C   UNL     1      52.497   0.696  18.090  0.00  0.00    +0.000 A 
ATOM     29  N   UNL     1      51.288   0.715  17.439  0.00  0.00    +0.000 N 
ATOM     30  C   UNL     1      50.719   1.879  16.986  0.00  0.00    +0.000 A 
ATOM     31  O   UNL     1      49.820   1.863  16.152  0.00  0.00    +0.000 OA
ATOM     32  C   UNL     1      51.329   3.086  17.511  0.00  0.00    +0.000 A 
ATOM     33  H   UNL     1      50.874  -0.141  17.102  0.00  0.00    +0.000 HD
ENDBRANCH  20  23
ENDBRANCH  18  19
ENDBRANCH   4  18
TORSDOF 7
ENDMDL
MODEL 6
REMARK VINA RESULT:    -7.116      2.415      3.298
REMARK INTER + INTRA:         -10.969
REMARK INTER:                  -9.970
REMARK INTRA:                  -1.000
REMARK UNBOUND:                -0.941
REMARK  Name = 
REMARK  8 active torsions:
REMARK  status: ('A' for Active; 'I' for Inactive)
REMARK    1  A    between atoms: C_1  and  C_2
REMARK    2  A    between atoms: C_2  and  N_3
REMARK    3  A    between atoms: C_2  and  C_25
REMARK    4  A    between atoms: N_3  and  C_4
REMARK    5  A    between atoms: C_4  and  C_5
REMARK    6  A    between atoms: C_8  and  C_9
REMARK    7  A    between atoms: C_9  and  N_10
REMARK    8  A    between atoms: C_11  and  C_13
REMARK                            x       y       z     vdW  Elec       q    Type
REMARK                         _______ _______ _______ _____ _____    ______ ____
ROOT
ATOM      1  C   UNL     1      45.120   4.752  11.157  0.00  0.00    +0.000 C 
ATOM      2  C   UNL     1      45.863   5.924  10.482  0.00  0.00    +0.000 C 
ATOM      3  C   UNL     1      45.331   7.296  10.888  0.00  0.00    +0.000 C 
ATOM      4  C   UNL     1      45.351   7.490  12.410  0.00  0.00    +0.000 C 
ATOM      5  C   UNL     1      44.472   6.404  13.046  0.00  0.00    +0.000 C 
ATOM      6  C   UNL     1      44.888   4.981  12.665  0.00  0.00    +0.000 C 
ENDROOT
BRANCH   1   7
ATOM      7  C   UNL     1      43.790   4.415  10.447  0.00  0.00    +0.000 C 
BRANCH   7   8
ATOM      8  N   UNL     1      44.061   3.736   9.183  0.00  0.00    +0.000 NA
ATOM      9  H   UNL     1      44.565   4.370   8.560  0.00  0.00    +0.000 HD
BRANCH   8  11
ATOM     10  C   UNL     1      44.022   1.235   9.366  0.00  0.00    +0.000 C 
ATOM     11  C   UNL     1      44.870   2.510   9.306  0.00  0.00    +0.000 C 
BRANCH  11  12
ATOM     12  C   UNL     1      45.855   2.421   8.139  0.00  0.00    +0.000 A 
ATOM     13  C   UNL     1      46.017   3.497   7.260  0.00  0.00    +0.000 A 
ATOM     14  C   UNL     1      46.940   3.400   6.226  0.00  0.00    +0.000 A 
ATOM     15  C   UNL     1      47.687   2.231   6.090  0.00  0.00    +0.000 A 
ATOM     16  C   UNL     1      47.470   1.215   7.004  0.00  0.00    +0.000 A 
ATOM     17  N   UNL     1      46.579   1.278   8.016  0.00  0.00    +0.000 NA
ENDBRANCH  11  12
ENDBRANCH   8  11
ENDBRANCH   7   8
ENDBRANCH   1   7
BRANCH   4  18
ATOM     18  C   UNL     1      46.776   7.491  12.994  0.00  0.00    +0.000 C 
BRANCH  18  19
ATOM     19  N   UNL     1      46.884   6.678  14.186  0.00  0.00    +0.000 N 
ATOM     20  C   UNL     1      47.649   5.546  14.293  0.00  0.00    +0.000 C 
ATOM     21  O   UNL     1      48.225   5.038  13.338  0.00  0.00    +0.000 OA
ATOM     22  H   UNL     1      46.422   7.037  15.015  0.00  0.00    +0.000 HD
BRANCH  20  23
ATOM     23  C   UNL     1      47.741   4.975  15.645  0.00  0.00    +0.000 A 
ATOM     24  C   UNL     1      47.283   3.694  15.910  0.00  0.00    +0.000 A 
ATOM     25  S   UNL     1      47.597   3.178  17.508  0.00  0.00    +0.000 S 
ATOM     26  C   UNL     1      48.405   4.630  17.879  0.00  0.00    +0.000 A 
ATOM     27  N   UNL     1      49.033   4.809  19.073  0.00  0.00    +0.000 NA
ATOM     28  C   UNL     1      49.675   5.924  19.177  0.00  0.00    +0.000 A 
ATOM     29  N   UNL     1      49.705   6.901  18.214  0.00  0.00    +0.000 N 
ATOM     30  C   UNL     1      48.936   6.834  17.079  0.00  0.00    +0.000 A 
ATOM     31  O   UNL     1      48.732   7.829  16.391  0.00  0.00    +0.000 OA
ATOM     32  C   UNL     1      48.340   5.534  16.836  0.00  0.00    +0.000 A 
ATOM     33  H   UNL     1      50.144   7.790  18.399  0.00  0.00    +0.000 HD
ENDBRANCH  20  23
ENDBRANCH  18  19
ENDBRANCH   4  18
TORSDOF 7
ENDMDL
MODEL 7
REMARK VINA RESULT:    -6.964      3.747      8.564
REMARK INTER + INTRA:         -10.755
REMARK INTER:                  -8.682
REMARK INTRA:                  -2.073
REMARK UNBOUND:                -0.941
REMARK  Name = 
REMARK  8 active torsions:
REMARK  status: ('A' for Active; 'I' for Inactive)
REMARK    1  A    between atoms: C_1  and  C_2
REMARK    2  A    between atoms: C_2  and  N_3
REMARK    3  A    between atoms: C_2  and  C_25
REMARK    4  A    between atoms: N_3  and  C_4
REMARK    5  A    between atoms: C_4  and  C_5
REMARK    6  A    between atoms: C_8  and  C_9
REMARK    7  A    between atoms: C_9  and  N_10
REMARK    8  A    between atoms: C_11  and  C_13
REMARK                            x       y       z     vdW  Elec       q    Type
REMARK                         _______ _______ _______ _____ _____    ______ ____
ROOT
ATOM      1  C   UNL     1      50.795   7.775  14.616  0.00  0.00    +0.000 C 
ATOM      2  C   UNL     1      49.470   7.006  14.432  0.00  0.00    +0.000 C 
ATOM      3  C   UNL     1      48.283   7.665  15.129  0.00  0.00    +0.000 C 
ATOM      4  C   UNL     1      48.092   9.120  14.681  0.00  0.00    +0.000 C 
ATOM      5  C   UNL     1      49.369   9.900  15.023  0.00  0.00    +0.000 C 
ATOM      6  C   UNL     1      50.636   9.296  14.413  0.00  0.00    +0.000 C 
ENDROOT
BRANCH   1   7
ATOM      7  C   UNL     1      51.463   7.475  15.976  0.00  0.00    +0.000 C 
BRANCH   7   8
ATOM      8  N   UNL     1      51.298   6.063  16.309  0.00  0.00    +0.000 NA
ATOM      9  H   UNL     1      52.208   5.599  16.275  0.00  0.00    +0.000 HD
BRANCH   8  11
ATOM     10  C   UNL     1      50.327   7.091  18.380  0.00  0.00    +0.000 C 
ATOM     11  C   UNL     1      50.727   5.809  17.644  0.00  0.00    +0.000 C 
BRANCH  11  12
ATOM     12  C   UNL     1      49.515   4.884  17.520  0.00  0.00    +0.000 A 
ATOM     13  C   UNL     1      48.238   5.332  17.873  0.00  0.00    +0.000 A 
ATOM     14  C   UNL     1      47.150   4.480  17.724  0.00  0.00    +0.000 A 
ATOM     15  C   UNL     1      47.358   3.196  17.221  0.00  0.00    +0.000 A 
ATOM     16  C   UNL     1      48.652   2.832  16.892  0.00  0.00    +0.000 A 
ATOM     17  N   UNL     1      49.727   3.636  17.029  0.00  0.00    +0.000 NA
ENDBRANCH  11  12
ENDBRANCH   8  11
ENDBRANCH   7   8
ENDBRANCH   1   7
BRANCH   4  18
ATOM     18  C   UNL     1      47.724   9.244  13.192  0.00  0.00    +0.000 C 
BRANCH  18  19
ATOM     19  N   UNL     1      46.558   8.460  12.844  0.00  0.00    +0.000 N 
ATOM     20  C   UNL     1      46.573   7.352  12.039  0.00  0.00    +0.000 C 
ATOM     21  O   UNL     1      47.569   6.986  11.427  0.00  0.00    +0.000 OA
ATOM     22  H   UNL     1      45.694   8.716  13.311  0.00  0.00    +0.000 HD
BRANCH  20  23
ATOM     23  C   UNL     1      45.302   6.616  11.960  0.00  0.00    +0.000 A 
ATOM     24  C   UNL     1      44.161   7.218  11.453  0.00  0.00    +0.000 A 
ATOM     25  S   UNL     1      42.829   6.154  11.333  0.00  0.00    +0.000 S 
ATOM     26  C   UNL     1      43.753   4.842  11.902  0.00  0.00    +0.000 A 
ATOM     27  N   UNL     1      43.246   3.580  11.940  0.00  0.00    +0.000 NA
ATOM     28  C   UNL     1      44.090   2.677  12.312  0.00  0.00    +0.000 A 
ATOM     29  N   UNL     1      45.382   2.927  12.700  0.00  0.00    +0.000 N 
ATOM     30  C   UNL     1      45.868   4.202  12.850  0.00  0.00    +0.000 A 
ATOM     31  O   UNL     1      46.897   4.419  13.482  0.00  0.00    +0.000 OA
ATOM     32  C   UNL     1      45.023   5.234  12.280  0.00  0.00    +0.000 A 
ATOM     33  H   UNL     1      45.958   2.187  13.074  0.00  0.00    +0.000 HD
ENDBRANCH  20  23
ENDBRANCH  18  19
ENDBRANCH   4  18
TORSDOF 7
ENDMDL
MODEL 8
REMARK VINA RESULT:    -6.793      3.201      9.662
REMARK INTER + INTRA:         -10.513
REMARK INTER:                  -8.768
REMARK INTRA:                  -1.746
REMARK UNBOUND:                -0.941
REMARK  Name = 
REMARK  8 active torsions:
REMARK  status: ('A' for Active; 'I' for Inactive)
REMARK    1  A    between atoms: C_1  and  C_2
REMARK    2  A    between atoms: C_2  and  N_3
REMARK    3  A    between atoms: C_2  and  C_25
REMARK    4  A    between atoms: N_3  and  C_4
REMARK    5  A    between atoms: C_4  and  C_5
REMARK    6  A    between atoms: C_8  and  C_9
REMARK    7  A    between atoms: C_9  and  N_10
REMARK    8  A    between atoms: C_11  and  C_13
REMARK                            x       y       z     vdW  Elec       q    Type
REMARK                         _______ _______ _______ _____ _____    ______ ____
ROOT
ATOM      1  C   UNL     1      50.589   4.579  17.882  0.00  0.00    +0.000 C 
ATOM      2  C   UNL     1      49.887   3.207  17.975  0.00  0.00    +0.000 C 
ATOM      3  C   UNL     1      48.392   3.306  18.261  0.00  0.00    +0.000 C 
ATOM      4  C   UNL     1      47.668   4.178  17.225  0.00  0.00    +0.000 C 
ATOM      5  C   UNL     1      48.280   5.584  17.268  0.00  0.00    +0.000 C 
ATOM      6  C   UNL     1      49.794   5.600  17.041  0.00  0.00    +0.000 C 
ENDROOT
BRANCH   1   7
ATOM      7  C   UNL     1      50.921   5.163  19.274  0.00  0.00    +0.000 C 
BRANCH   7   8
ATOM      8  N   UNL     1      51.595   6.449  19.123  0.00  0.00    +0.000 NA
ATOM      9  H   UNL     1      51.435   6.806  18.179  0.00  0.00    +0.000 HD
BRANCH   8  11
ATOM     10  C   UNL     1      52.193   8.589  20.286  0.00  0.00    +0.000 C 
ATOM     11  C   UNL     1      51.149   7.491  20.066  0.00  0.00    +0.000 C 
BRANCH  11  12
ATOM     12  C   UNL     1      49.842   8.112  19.568  0.00  0.00    +0.000 A 
ATOM     13  C   UNL     1      48.640   7.878  20.244  0.00  0.00    +0.000 A 
ATOM     14  C   UNL     1      47.473   8.478  19.787  0.00  0.00    +0.000 A 
ATOM     15  C   UNL     1      47.528   9.304  18.664  0.00  0.00    +0.000 A 
ATOM     16  C   UNL     1      48.758   9.486  18.056  0.00  0.00    +0.000 A 
ATOM     17  N   UNL     1      49.907   8.916  18.475  0.00  0.00    +0.000 NA
ENDBRANCH  11  12
ENDBRANCH   8  11
ENDBRANCH   7   8
ENDBRANCH   1   7
BRANCH   4  18
ATOM     18  C   UNL     1      47.705   3.577  15.808  0.00  0.00    +0.000 C 
BRANCH  18  19
ATOM     19  N   UNL     1      46.793   4.244  14.903  0.00  0.00    +0.000 N 
ATOM     20  C   UNL     1      47.163   5.162  13.957  0.00  0.00    +0.000 C 
ATOM     21  O   UNL     1      48.302   5.606  13.868  0.00  0.00    +0.000 OA
ATOM     22  H   UNL     1      45.829   3.929  14.930  0.00  0.00    +0.000 HD
BRANCH  20  23
ATOM     23  C   UNL     1      46.095   5.582  13.037  0.00  0.00    +0.000 A 
ATOM     24  C   UNL     1      45.795   6.924  12.861  0.00  0.00    +0.000 A 
ATOM     25  S   UNL     1      44.611   7.202  11.660  0.00  0.00    +0.000 S 
ATOM     26  C   UNL     1      44.506   5.542  11.298  0.00  0.00    +0.000 A 
ATOM     27  N   UNL     1      43.744   5.087  10.267  0.00  0.00    +0.000 NA
ATOM     28  C   UNL     1      43.831   3.816  10.060  0.00  0.00    +0.000 A 
ATOM     29  N   UNL     1      44.571   2.948  10.824  0.00  0.00    +0.000 N 
ATOM     30  C   UNL     1      45.200   3.343  11.977  0.00  0.00    +0.000 A 
ATOM     31  O   UNL     1      45.588   2.521  12.802  0.00  0.00    +0.000 OA
ATOM     32  C   UNL     1      45.278   4.781  12.155  0.00  0.00    +0.000 A 
ATOM     33  H   UNL     1      44.516   1.953  10.668  0.00  0.00    +0.000 HD
ENDBRANCH  20  23
ENDBRANCH  18  19
ENDBRANCH   4  18
TORSDOF 7
ENDMDL
MODEL 9
REMARK VINA RESULT:    -6.372      4.022      9.604
REMARK INTER + INTRA:          -9.920
REMARK INTER:                  -8.018
REMARK INTRA:                  -1.902
REMARK UNBOUND:                -0.941
REMARK  Name = 
REMARK  8 active torsions:
REMARK  status: ('A' for Active; 'I' for Inactive)
REMARK    1  A    between atoms: C_1  and  C_2
REMARK    2  A    between atoms: C_2  and  N_3
REMARK    3  A    between atoms: C_2  and  C_25
REMARK    4  A    between atoms: N_3  and  C_4
REMARK    5  A    between atoms: C_4  and  C_5
REMARK    6  A    between atoms: C_8  and  C_9
REMARK    7  A    between atoms: C_9  and  N_10
REMARK    8  A    between atoms: C_11  and  C_13
REMARK                            x       y       z     vdW  Elec       q    Type
REMARK                         _______ _______ _______ _____ _____    ______ ____
ROOT
ATOM      1  C   UNL     1      50.908   5.423  17.335  0.00  0.00    +0.000 C 
ATOM      2  C   UNL     1      50.367   4.100  17.916  0.00  0.00    +0.000 C 
ATOM      3  C   UNL     1      49.018   4.249  18.613  0.00  0.00    +0.000 C 
ATOM      4  C   UNL     1      47.961   4.867  17.688  0.00  0.00    +0.000 C 
ATOM      5  C   UNL     1      48.454   6.253  17.252  0.00  0.00    +0.000 C 
ATOM      6  C   UNL     1      49.830   6.230  16.580  0.00  0.00    +0.000 C 
ENDROOT
BRANCH   1   7
ATOM      7  C   UNL     1      51.590   6.301  18.408  0.00  0.00    +0.000 C 
BRANCH   7   8
ATOM      8  N   UNL     1      51.642   7.687  17.955  0.00  0.00    +0.000 NA
ATOM      9  H   UNL     1      50.952   7.828  17.215  0.00  0.00    +0.000 HD
BRANCH   8  11
ATOM     10  C   UNL     1      52.010  10.049  18.717  0.00  0.00    +0.000 C 
ATOM     11  C   UNL     1      51.369   8.687  19.003  0.00  0.00    +0.000 C 
BRANCH  11  12
ATOM     12  C   UNL     1      49.858   8.853  19.178  0.00  0.00    +0.000 A 
ATOM     13  C   UNL     1      49.193   8.240  20.244  0.00  0.00    +0.000 A 
ATOM     14  C   UNL     1      47.825   8.430  20.396  0.00  0.00    +0.000 A 
ATOM     15  C   UNL     1      47.146   9.234  19.480  0.00  0.00    +0.000 A 
ATOM     16  C   UNL     1      47.879   9.808  18.456  0.00  0.00    +0.000 A 
ATOM     17  N   UNL     1      49.207   9.639  18.282  0.00  0.00    +0.000 NA
ENDBRANCH  11  12
ENDBRANCH   8  11
ENDBRANCH   7   8
ENDBRANCH   1   7
BRANCH   4  18
ATOM     18  C   UNL     1      47.625   3.971  16.482  0.00  0.00    +0.000 C 
BRANCH  18  19
ATOM     19  N   UNL     1      46.982   4.704  15.411  0.00  0.00    +0.000 N 
ATOM     20  C   UNL     1      46.757   4.212  14.153  0.00  0.00    +0.000 C 
ATOM     21  O   UNL     1      47.195   3.134  13.770  0.00  0.00    +0.000 OA
ATOM     22  H   UNL     1      46.603   5.612  15.658  0.00  0.00    +0.000 HD
BRANCH  20  23
ATOM     23  C   UNL     1      45.940   5.069  13.281  0.00  0.00    +0.000 A 
ATOM     24  C   UNL     1      44.756   4.602  12.732  0.00  0.00    +0.000 A 
ATOM     25  S   UNL     1      43.899   5.791  11.853  0.00  0.00    +0.000 S 
ATOM     26  C   UNL     1      45.056   6.982  12.228  0.00  0.00    +0.000 A 
ATOM     27  N   UNL     1      44.877   8.284  11.874  0.00  0.00    +0.000 NA
ATOM     28  C   UNL     1      45.794   9.085  12.301  0.00  0.00    +0.000 A 
ATOM     29  N   UNL     1      46.905   8.696  13.007  0.00  0.00    +0.000 N 
ATOM     30  C   UNL     1      47.211   7.375  13.221  0.00  0.00    +0.000 A 
ATOM     31  O   UNL     1      48.336   7.032  13.569  0.00  0.00    +0.000 OA
ATOM     32  C   UNL     1      46.131   6.454  12.917  0.00  0.00    +0.000 A 
ATOM     33  H   UNL     1      47.633   9.359  13.225  0.00  0.00    +0.000 HD
ENDBRANCH  20  23
ENDBRANCH  18  19
ENDBRANCH   4  18
TORSDOF 7
ENDMDL
