MODEL 1
REMARK VINA RESULT:    -7.661      0.000      0.000
REMARK INTER + INTRA:         -10.920
REMARK INTER:                  -9.900
REMARK INTRA:                  -1.020
REMARK UNBOUND:                -1.020
REMARK  Name = 
REMARK  7 active torsions:
REMARK  status: ('A' for Active; 'I' for Inactive)
REMARK    1  A    between atoms: C_1  and  C_2
REMARK    2  A    between atoms: C_2  and  C_3
REMARK    3  A    between atoms: C_2  and  C_4
REMARK    4  A    between atoms: C_2  and  C_18
REMARK    5  A    between atoms: C_5  and  C_6
REMARK    6  A    between atoms: C_10  and  C_11
REMARK    7  A    between atoms: C_22  and  C_23
REMARK                            x       y       z     vdW  Elec       q    Type
REMARK                         _______ _______ _______ _____ _____    ______ ____
ROOT
ATOM      1  C   UNL     1      49.437   7.643  12.932  0.00  0.00    +0.000 C 
ATOM      2  C   UNL     1      48.263   7.320  13.881  0.00  0.00    +0.000 C 
ATOM      3  C   UNL     1      47.558   8.666  14.209  0.00  0.00    +0.000 C 
ENDROOT
BRANCH   2   4
ATOM      4  C   UNL     1      48.808   6.601  15.135  0.00  0.00    +0.000 A 
ATOM      5  C   UNL     1      49.921   7.083  15.831  0.00  0.00    +0.000 A 
ATOM      6  C   UNL     1      50.320   6.506  17.038  0.00  0.00    +0.000 A 
ATOM      7  C   UNL     1      49.587   5.464  17.593  0.00  0.00    +0.000 A 
ATOM      8  C   UNL     1      48.473   4.955  16.940  0.00  0.00    +0.000 A 
ATOM      9  C   UNL     1      48.109   5.500  15.694  0.00  0.00    +0.000 A 
BRANCH   8  10
ATOM     10  C   UNL     1      47.594   3.942  17.585  0.00  0.00    +0.000 C 
ATOM     11  N   UNL     1      47.908   3.572  18.867  0.00  0.00    +0.000 N 
ATOM     12  O   UNL     1      46.628   3.465  17.014  0.00  0.00    +0.000 OA
ATOM     13  H   UNL     1      48.756   3.839  19.344  0.00  0.00    +0.000 HD
ATOM     14  H   UNL     1      47.351   2.830  19.273  0.00  0.00    +0.000 HD
ENDBRANCH   8  10
ENDBRANCH   2   4
BRANCH   2  15
ATOM     15  C   UNL     1      47.228   6.459  13.156  0.00  0.00    +0.000 C 
ATOM     16  C   UNL     1      45.932   6.754  12.945  0.00  0.00    +0.000 C 
BRANCH  16  17
ATOM     17  C   UNL     1      45.012   5.883  12.213  0.00  0.00    +0.000 A 
ATOM     18  C   UNL     1      43.686   5.759  12.608  0.00  0.00    +0.000 A 
ATOM     19  C   UNL     1      42.861   4.888  11.901  0.00  0.00    +0.000 A 
ATOM     20  C   UNL     1      43.387   4.194  10.823  0.00  0.00    +0.000 A 
ATOM     21  C   UNL     1      44.717   4.390  10.460  0.00  0.00    +0.000 A 
ATOM     22  N   UNL     1      45.527   5.213  11.154  0.00  0.00    +0.000 NA
BRANCH  21  23
ATOM     23  C   UNL     1      45.316   3.710   9.307  0.00  0.00    +0.000 A 
ATOM     24  C   UNL     1      45.436   2.318   9.261  0.00  0.00    +0.000 A 
ATOM     25  C   UNL     1      46.055   1.700   8.181  0.00  0.00    +0.000 A 
ATOM     26  C   UNL     1      46.533   2.499   7.159  0.00  0.00    +0.000 A 
ATOM     27  N   UNL     1      46.417   3.842   7.139  0.00  0.00    +0.000 NA
ATOM     28  C   UNL     1      45.803   4.414   8.207  0.00  0.00    +0.000 A 
ENDBRANCH  21  23
ENDBRANCH  16  17
ENDBRANCH   2  15
TORSDOF 5
ENDMDL
MODEL 2
REMARK VINA RESULT:    -7.295      2.824      8.138
REMARK INTER + INTRA:         -10.447
REMARK INTER:                  -9.478
REMARK INTRA:                  -0.969
REMARK UNBOUND:                -1.020
REMARK  Name = 
REMARK  7 active torsions:
REMARK  status: ('A' for Active; 'I' for Inactive)
REMARK    1  A    between atoms: C_1  and  C_2
REMARK    2  A    between atoms: C_2  and  C_3
REMARK    3  A    between atoms: C_2  and  C_4
REMARK    4  A    between atoms: C_2  and  C_18
REMARK    5  A    between atoms: C_5  and  C_6
REMARK    6  A    between atoms: C_10  and  C_11
REMARK    7  A    between atoms: C_22  and  C_23
REMARK                            x       y       z     vdW  Elec       q    Type
REMARK                         _______ _______ _______ _____ _____    ______ ____
ROOT
ATOM      1  C   UNL     1      43.486   2.146  11.468  0.00  0.00    +0.000 C 
ATOM      2  C   UNL     1      44.170   3.512  11.246  0.00  0.00    +0.000 C 
ATOM      3  C   UNL     1      43.069   4.601  11.380  0.00  0.00    +0.000 C 
ENDROOT
BRANCH   2   4
ATOM      4  C   UNL     1      44.859   3.514   9.864  0.00  0.00    +0.000 A 
ATOM      5  C   UNL     1      45.148   4.705   9.190  0.00  0.00    +0.000 A 
ATOM      6  C   UNL     1      45.893   4.700   8.010  0.00  0.00    +0.000 A 
ATOM      7  C   UNL     1      46.400   3.508   7.505  0.00  0.00    +0.000 A 
ATOM      8  C   UNL     1      46.141   2.302   8.141  0.00  0.00    +0.000 A 
ATOM      9  C   UNL     1      45.340   2.304   9.299  0.00  0.00    +0.000 A 
BRANCH   8  10
ATOM     10  C   UNL     1      46.792   1.040   7.699  0.00  0.00    +0.000 C 
ATOM     11  N   UNL     1      47.901   1.157   6.900  0.00  0.00    +0.000 N 
ATOM     12  O   UNL     1      46.377  -0.056   8.037  0.00  0.00    +0.000 OA
ATOM     13  H   UNL     1      48.218   2.024   6.493  0.00  0.00    +0.000 HD
ATOM     14  H   UNL     1      48.295   0.295   6.544  0.00  0.00    +0.000 HD
ENDBRANCH   8  10
ENDBRANCH   2   4
BRANCH   2  15
ATOM     15  C   UNL     1      45.176   3.779  12.367  0.00  0.00    +0.000 C 
ATOM     16  C   UNL     1      45.684   4.970  12.734  0.00  0.00    +0.000 C 
BRANCH  16  17
ATOM     17  C   UNL     1      46.626   5.142  13.841  0.00  0.00    +0.000 A 
ATOM     18  C   UNL     1      46.670   4.226  14.884  0.00  0.00    +0.000 A 
ATOM     19  C   UNL     1      47.558   4.456  15.932  0.00  0.00    +0.000 A 
ATOM     20  C   UNL     1      48.374   5.575  15.886  0.00  0.00    +0.000 A 
ATOM     21  C   UNL     1      48.302   6.436  14.794  0.00  0.00    +0.000 A 
ATOM     22  N   UNL     1      47.428   6.233  13.787  0.00  0.00    +0.000 NA
BRANCH  21  23
ATOM     23  C   UNL     1      49.165   7.615  14.674  0.00  0.00    +0.000 A 
ATOM     24  C   UNL     1      49.136   8.641  15.623  0.00  0.00    +0.000 A 
ATOM     25  C   UNL     1      49.926   9.773  15.461  0.00  0.00    +0.000 A 
ATOM     26  C   UNL     1      50.742   9.844  14.347  0.00  0.00    +0.000 A 
ATOM     27  N   UNL     1      50.831   8.871  13.418  0.00  0.00    +0.000 NA
ATOM     28  C   UNL     1      50.049   7.776  13.609  0.00  0.00    +0.000 A 
ENDBRANCH  21  23
ENDBRANCH  16  17
ENDBRANCH   2  15
TORSDOF 5
ENDMDL
MODEL 3
REMARK VINA RESULT:    -7.194      1.864      2.953
REMARK INTER + INTRA:         -10.317
REMARK INTER:                  -9.271
REMARK INTRA:                  -1.046
REMARK UNBOUND:                -1.020
REMARK  Name = 
REMARK  7 active torsions:
REMARK  status: ('A' for Active; 'I' for Inactive)
REMARK    1  A    between atoms: C_1  and  C_2
REMARK    2  A    between atoms: C_2  and  C_3
REMARK    3  A    between atoms: C_2  and  C_4
REMARK    4  A    between atoms: C_2  and  C_18
REMARK    5  A    between atoms: C_5  and  C_6
REMARK    6  A    between atoms: C_10  and  C_11
REMARK    7  A    between atoms: C_22  and  C_23
REMARK                            x       y       z     vdW  Elec       q    Type
REMARK                         _______ _______ _______ _____ _____    ______ ____
ROOT
ATOM      1  C   UNL     1      50.879   7.111  15.517  0.00  0.00    +0.000 C 
ATOM      2  C   UNL     1      49.521   7.327  16.219  0.00  0.00    +0.000 C 
ATOM      3  C   UNL     1      49.633   8.647  17.033  0.00  0.00    +0.000 C 
ENDROOT
BRANCH   2   4
ATOM      4  C   UNL     1      49.205   6.098  17.099  0.00  0.00    +0.000 A 
ATOM      5  C   UNL     1      48.198   6.128  18.069  0.00  0.00    +0.000 A 
ATOM      6  C   UNL     1      47.829   4.974  18.760  0.00  0.00    +0.000 A 
ATOM      7  C   UNL     1      48.431   3.756  18.463  0.00  0.00    +0.000 A 
ATOM      8  C   UNL     1      49.433   3.676  17.506  0.00  0.00    +0.000 A 
ATOM      9  C   UNL     1      49.844   4.854  16.853  0.00  0.00    +0.000 A 
BRANCH   8  10
ATOM     10  C   UNL     1      49.986   2.365  17.072  0.00  0.00    +0.000 C 
ATOM     11  N   UNL     1      50.981   1.822  17.845  0.00  0.00    +0.000 N 
ATOM     12  O   UNL     1      49.572   1.782  16.084  0.00  0.00    +0.000 OA
ATOM     13  H   UNL     1      51.444   2.308  18.598  0.00  0.00    +0.000 HD
ATOM     14  H   UNL     1      51.403   0.967  17.504  0.00  0.00    +0.000 HD
ENDBRANCH   8  10
ENDBRANCH   2   4
BRANCH   2  15
ATOM     15  C   UNL     1      48.427   7.558  15.176  0.00  0.00    +0.000 C 
ATOM     16  C   UNL     1      48.099   6.749  14.152  0.00  0.00    +0.000 C 
BRANCH  16  17
ATOM     17  C   UNL     1      47.015   7.033  13.211  0.00  0.00    +0.000 A 
ATOM     18  C   UNL     1      46.412   8.284  13.179  0.00  0.00    +0.000 A 
ATOM     19  C   UNL     1      45.359   8.490  12.291  0.00  0.00    +0.000 A 
ATOM     20  C   UNL     1      44.967   7.451  11.463  0.00  0.00    +0.000 A 
ATOM     21  C   UNL     1      45.637   6.232  11.523  0.00  0.00    +0.000 A 
ATOM     22  N   UNL     1      46.640   6.017  12.396  0.00  0.00    +0.000 NA
BRANCH  21  23
ATOM     23  C   UNL     1      45.289   5.110  10.646  0.00  0.00    +0.000 A 
ATOM     24  C   UNL     1      45.656   5.095   9.297  0.00  0.00    +0.000 A 
ATOM     25  C   UNL     1      45.270   4.044   8.474  0.00  0.00    +0.000 A 
ATOM     26  C   UNL     1      44.529   3.018   9.030  0.00  0.00    +0.000 A 
ATOM     27  N   UNL     1      44.174   2.968  10.329  0.00  0.00    +0.000 NA
ATOM     28  C   UNL     1      44.571   4.009  11.108  0.00  0.00    +0.000 A 
ENDBRANCH  21  23
ENDBRANCH  16  17
ENDBRANCH   2  15
TORSDOF 5
ENDMDL
MODEL 4
REMARK VINA RESULT:    -6.952      2.791      4.590
REMARK INTER + INTRA:         -10.004
REMARK INTER:                  -9.013
REMARK INTRA:                  -0.991
REMARK UNBOUND:                -1.020
REMARK  Name = 
REMARK  7 active torsions:
REMARK  status: ('A' for Active; 'I' for Inactive)
REMARK    1  A    between atoms: C_1  and  C_2
REMARK    2  A    between atoms: C_2  and  C_3
REMARK    3  A    between atoms: C_2  and  C_4
REMARK    4  A    between atoms: C_2  and  C_18
REMARK    5  A    between atoms: C_5  and  C_6
REMARK    6  A    between atoms: C_10  and  C_11
REMARK    7  A    between atoms: C_22  and  C_23
REMARK                            x       y       z     vdW  Elec       q    Type
REMARK                         _______ _______ _______ _____ _____    ______ ____
ROOT
ATOM      1  C   UNL     1      47.905   5.212  18.738  0.00  0.00    +0.000 C 
ATOM      2  C   UNL     1      48.377   4.199  17.673  0.00  0.00    +0.000 C 
ATOM      3  C   UNL     1      47.582   2.884  17.910  0.00  0.00    +0.000 C 
ENDROOT
BRANCH   2   4
ATOM      4  C   UNL     1      49.905   4.013  17.793  0.00  0.00    +0.000 A 
ATOM      5  C   UNL     1      50.727   5.014  18.319  0.00  0.00    +0.000 A 
ATOM      6  C   UNL     1      52.084   4.783  18.550  0.00  0.00    +0.000 A 
ATOM      7  C   UNL     1      52.635   3.532  18.301  0.00  0.00    +0.000 A 
ATOM      8  C   UNL     1      51.857   2.506  17.781  0.00  0.00    +0.000 A 
ATOM      9  C   UNL     1      50.502   2.761  17.493  0.00  0.00    +0.000 A 
BRANCH   8  10
ATOM     10  C   UNL     1      52.390   1.124  17.645  0.00  0.00    +0.000 C 
ATOM     11  N   UNL     1      51.630   0.109  18.167  0.00  0.00    +0.000 N 
ATOM     12  O   UNL     1      53.448   0.890  17.085  0.00  0.00    +0.000 OA
ATOM     13  H   UNL     1      50.813   0.249  18.741  0.00  0.00    +0.000 HD
ATOM     14  H   UNL     1      52.032  -0.820  18.136  0.00  0.00    +0.000 HD
ENDBRANCH   8  10
ENDBRANCH   2   4
BRANCH   2  15
ATOM     15  C   UNL     1      47.986   4.691  16.278  0.00  0.00    +0.000 C 
ATOM     16  C   UNL     1      48.385   5.827  15.679  0.00  0.00    +0.000 C 
BRANCH  16  17
ATOM     17  C   UNL     1      47.984   6.212  14.324  0.00  0.00    +0.000 A 
ATOM     18  C   UNL     1      48.641   7.234  13.653  0.00  0.00    +0.000 A 
ATOM     19  C   UNL     1      48.196   7.587  12.381  0.00  0.00    +0.000 A 
ATOM     20  C   UNL     1      47.131   6.894  11.828  0.00  0.00    +0.000 A 
ATOM     21  C   UNL     1      46.539   5.856  12.542  0.00  0.00    +0.000 A 
ATOM     22  N   UNL     1      46.948   5.525  13.783  0.00  0.00    +0.000 NA
BRANCH  21  23
ATOM     23  C   UNL     1      45.433   5.066  11.992  0.00  0.00    +0.000 A 
ATOM     24  C   UNL     1      45.231   3.733  12.365  0.00  0.00    +0.000 A 
ATOM     25  C   UNL     1      44.207   2.989  11.792  0.00  0.00    +0.000 A 
ATOM     26  C   UNL     1      43.396   3.607  10.858  0.00  0.00    +0.000 A 
ATOM     27  N   UNL     1      43.528   4.896  10.485  0.00  0.00    +0.000 NA
ATOM     28  C   UNL     1      44.535   5.597  11.068  0.00  0.00    +0.000 A 
ENDBRANCH  21  23
ENDBRANCH  16  17
ENDBRANCH   2  15
TORSDOF 5
ENDMDL
MODEL 5
REMARK VINA RESULT:    -6.949      2.638      4.606
REMARK INTER + INTRA:         -10.000
REMARK INTER:                  -8.980
REMARK INTRA:                  -1.019
REMARK UNBOUND:                -1.020
REMARK  Name = 
REMARK  7 active torsions:
REMARK  status: ('A' for Active; 'I' for Inactive)
REMARK    1  A    between atoms: C_1  and  C_2
REMARK    2  A    between atoms: C_2  and  C_3
REMARK    3  A    between atoms: C_2  and  C_4
REMARK    4  A    between atoms: C_2  and  C_18
REMARK    5  A    between atoms: C_5  and  C_6
REMARK    6  A    between atoms: C_10  and  C_11
REMARK    7  A    between atoms: C_22  and  C_23
REMARK                            x       y       z     vdW  Elec       q    Type
REMARK                         _______ _______ _______ _____ _____    ______ ____
ROOT
ATOM      1  C   UNL     1      50.145   7.875  18.570  0.00  0.00    +0.000 C 
ATOM      2  C   UNL     1      49.532   6.566  18.026  0.00  0.00    +0.000 C 
ATOM      3  C   UNL     1      48.306   6.230  18.921  0.00  0.00    +0.000 C 
ENDROOT
BRANCH   2   4
ATOM      4  C   UNL     1      50.609   5.461  18.035  0.00  0.00    +0.000 A 
ATOM      5  C   UNL     1      51.805   5.606  18.746  0.00  0.00    +0.000 A 
ATOM      6  C   UNL     1      52.708   4.548  18.860  0.00  0.00    +0.000 A 
ATOM      7  C   UNL     1      52.411   3.310  18.302  0.00  0.00    +0.000 A 
ATOM      8  C   UNL     1      51.236   3.117  17.590  0.00  0.00    +0.000 A 
ATOM      9  C   UNL     1      50.355   4.204  17.427  0.00  0.00    +0.000 A 
BRANCH   8  10
ATOM     10  C   UNL     1      50.834   1.767  17.112  0.00  0.00    +0.000 C 
ATOM     11  N   UNL     1      51.376   0.689  17.765  0.00  0.00    +0.000 N 
ATOM     12  O   UNL     1      50.049   1.612  16.191  0.00  0.00    +0.000 OA
ATOM     13  H   UNL     1      52.115   0.751  18.447  0.00  0.00    +0.000 HD
ATOM     14  H   UNL     1      51.156  -0.225  17.388  0.00  0.00    +0.000 HD
ENDBRANCH   8  10
ENDBRANCH   2   4
BRANCH   2  15
ATOM     15  C   UNL     1      48.984   6.795  16.616  0.00  0.00    +0.000 C 
ATOM     16  C   UNL     1      49.696   6.933  15.483  0.00  0.00    +0.000 C 
BRANCH  16  17
ATOM     17  C   UNL     1      49.090   7.122  14.164  0.00  0.00    +0.000 A 
ATOM     18  C   UNL     1      49.542   8.120  13.312  0.00  0.00    +0.000 A 
ATOM     19  C   UNL     1      48.907   8.283  12.084  0.00  0.00    +0.000 A 
ATOM     20  C   UNL     1      47.863   7.434  11.751  0.00  0.00    +0.000 A 
ATOM     21  C   UNL     1      47.481   6.432  12.639  0.00  0.00    +0.000 A 
ATOM     22  N   UNL     1      48.076   6.284  13.839  0.00  0.00    +0.000 NA
BRANCH  21  23
ATOM     23  C   UNL     1      46.408   5.482  12.326  0.00  0.00    +0.000 A 
ATOM     24  C   UNL     1      45.695   5.556  11.125  0.00  0.00    +0.000 A 
ATOM     25  C   UNL     1      44.648   4.677  10.874  0.00  0.00    +0.000 A 
ATOM     26  C   UNL     1      44.347   3.730  11.835  0.00  0.00    +0.000 A 
ATOM     27  N   UNL     1      45.021   3.596  12.994  0.00  0.00    +0.000 NA
ATOM     28  C   UNL     1      46.042   4.468  13.207  0.00  0.00    +0.000 A 
ENDBRANCH  21  23
ENDBRANCH  16  17
ENDBRANCH   2  15
TORSDOF 5
ENDMDL
MODEL 6
REMARK VINA RESULT:    -6.923      2.630      7.780
REMARK INTER + INTRA:          -9.967
REMARK INTER:                  -9.027
REMARK INTRA:                  -0.940
REMARK UNBOUND:                -1.020
REMARK  Name = 
REMARK  7 active torsions:
REMARK  status: ('A' for Active; 'I' for Inactive)
REMARK    1  A    between atoms: C_1  and  C_2
REMARK    2  A    between atoms: C_2  and  C_3
REMARK    3  A    between atoms: C_2  and  C_4
REMARK    4  A    between atoms: C_2  and  C_18
REMARK    5  A    between atoms: C_5  and  C_6
REMARK    6  A    between atoms: C_10  and  C_11
REMARK    7  A    between atoms: C_22  and  C_23
REMARK                            x       y       z     vdW  Elec       q    Type
REMARK                         _______ _______ _______ _____ _____    ______ ____
ROOT
ATOM      1  C   UNL     1      46.880   8.396  13.236  0.00  0.00    +0.000 C 
ATOM      2  C   UNL     1      47.390   6.962  12.979  0.00  0.00    +0.000 C 
ATOM      3  C   UNL     1      48.788   7.087  12.312  0.00  0.00    +0.000 C 
ENDROOT
BRANCH   2   4
ATOM      4  C   UNL     1      46.365   6.210  12.101  0.00  0.00    +0.000 A 
ATOM      5  C   UNL     1      46.410   6.272  10.705  0.00  0.00    +0.000 A 
ATOM      6  C   UNL     1      45.568   5.480   9.923  0.00  0.00    +0.000 A 
ATOM      7  C   UNL     1      44.696   4.579  10.522  0.00  0.00    +0.000 A 
ATOM      8  C   UNL     1      44.618   4.481  11.904  0.00  0.00    +0.000 A 
ATOM      9  C   UNL     1      45.427   5.324  12.691  0.00  0.00    +0.000 A 
BRANCH   8  10
ATOM     10  C   UNL     1      43.800   3.425  12.560  0.00  0.00    +0.000 C 
ATOM     11  N   UNL     1      43.489   2.322  11.807  0.00  0.00    +0.000 N 
ATOM     12  O   UNL     1      43.427   3.519  13.717  0.00  0.00    +0.000 OA
ATOM     13  H   UNL     1      43.665   2.241  10.818  0.00  0.00    +0.000 HD
ATOM     14  H   UNL     1      42.871   1.642  12.234  0.00  0.00    +0.000 HD
ENDBRANCH   8  10
ENDBRANCH   2   4
BRANCH   2  15
ATOM     15  C   UNL     1      47.613   6.242  14.310  0.00  0.00    +0.000 C 
ATOM     16  C   UNL     1      48.554   6.516  15.231  0.00  0.00    +0.000 C 
BRANCH  16  17
ATOM     17  C   UNL     1      48.682   5.793  16.498  0.00  0.00    +0.000 A 
ATOM     18  C   UNL     1      47.828   6.063  17.559  0.00  0.00    +0.000 A 
ATOM     19  C   UNL     1      48.016   5.374  18.754  0.00  0.00    +0.000 A 
ATOM     20  C   UNL     1      49.031   4.435  18.835  0.00  0.00    +0.000 A 
ATOM     21  C   UNL     1      49.830   4.188  17.721  0.00  0.00    +0.000 A 
ATOM     22  N   UNL     1      49.670   4.868  16.569  0.00  0.00    +0.000 NA
BRANCH  21  23
ATOM     23  C   UNL     1      50.897   3.181  17.737  0.00  0.00    +0.000 A 
ATOM     24  C   UNL     1      52.181   3.484  18.199  0.00  0.00    +0.000 A 
ATOM     25  C   UNL     1      53.188   2.527  18.155  0.00  0.00    +0.000 A 
ATOM     26  C   UNL     1      52.878   1.276  17.656  0.00  0.00    +0.000 A 
ATOM     27  N   UNL     1      51.650   0.923  17.226  0.00  0.00    +0.000 NA
ATOM     28  C   UNL     1      50.687   1.880  17.286  0.00  0.00    +0.000 A 
ENDBRANCH  21  23
ENDBRANCH  16  17
ENDBRANCH   2  15
TORSDOF 5
ENDMDL
MODEL 7
REMARK VINA RESULT:    -6.688      3.000      4.757
REMARK INTER + INTRA:          -9.663
REMARK INTER:                  -8.614
REMARK INTRA:                  -1.048
REMARK UNBOUND:                -1.020
REMARK  Name = 
REMARK  7 active torsions:
REMARK  status: ('A' for Active; 'I' for Inactive)
REMARK    1  A    between atoms: C_1  and  C_2
REMARK    2  A    between atoms: C_2  and  C_3
REMARK    3  A    between atoms: C_2  and  C_4
REMARK    4  A    between atoms: C_2  and  C_18
REMARK    5  A    between atoms: C_5  and  C_6
REMARK    6  A    between atoms: C_10  and  C_11
REMARK    7  A    between atoms: C_22  and  C_23
REMARK                            x       y       z     vdW  Elec       q    Type
REMARK                         _______ _______ _______ _____ _____    ______ ____
ROOT
ATOM      1  C   UNL     1      49.888   6.583  17.999  0.00  0.00    +0.000 C 
ATOM      2  C   UNL     1      48.925   5.446  17.594  0.00  0.00    +0.000 C 
ATOM      3  C   UNL     1      47.729   5.486  18.586  0.00  0.00    +0.000 C 
ENDROOT
BRANCH   2   4
ATOM      4  C   UNL     1      49.688   4.104  17.619  0.00  0.00    +0.000 A 
ATOM      5  C   UNL     1      49.177   2.958  17.001  0.00  0.00    +0.000 A 
ATOM      6  C   UNL     1      49.937   1.791  16.911  0.00  0.00    +0.000 A 
ATOM      7  C   UNL     1      51.238   1.761  17.397  0.00  0.00    +0.000 A 
ATOM      8  C   UNL     1      51.789   2.875  18.016  0.00  0.00    +0.000 A 
ATOM      9  C   UNL     1      50.999   4.032  18.158  0.00  0.00    +0.000 A 
BRANCH   8  10
ATOM     10  C   UNL     1      53.222   2.910  18.412  0.00  0.00    +0.000 C 
ATOM     11  N   UNL     1      54.069   3.645  17.621  0.00  0.00    +0.000 N 
ATOM     12  O   UNL     1      53.637   2.328  19.399  0.00  0.00    +0.000 OA
ATOM     13  H   UNL     1      53.810   4.047  16.733  0.00  0.00    +0.000 HD
ATOM     14  H   UNL     1      55.054   3.606  17.853  0.00  0.00    +0.000 HD
ENDBRANCH   8  10
ENDBRANCH   2   4
BRANCH   2  15
ATOM     15  C   UNL     1      48.342   5.727  16.208  0.00  0.00    +0.000 C 
ATOM     16  C   UNL     1      48.902   6.455  15.226  0.00  0.00    +0.000 C 
BRANCH  16  17
ATOM     17  C   UNL     1      48.286   6.653  13.913  0.00  0.00    +0.000 A 
ATOM     18  C   UNL     1      48.771   7.618  13.040  0.00  0.00    +0.000 A 
ATOM     19  C   UNL     1      48.126   7.792  11.818  0.00  0.00    +0.000 A 
ATOM     20  C   UNL     1      47.041   6.986  11.512  0.00  0.00    +0.000 A 
ATOM     21  C   UNL     1      46.627   6.014  12.419  0.00  0.00    +0.000 A 
ATOM     22  N   UNL     1      47.231   5.856  13.614  0.00  0.00    +0.000 NA
BRANCH  21  23
ATOM     23  C   UNL     1      45.509   5.110  12.135  0.00  0.00    +0.000 A 
ATOM     24  C   UNL     1      44.593   5.379  11.113  0.00  0.00    +0.000 A 
ATOM     25  C   UNL     1      43.512   4.534  10.896  0.00  0.00    +0.000 A 
ATOM     26  C   UNL     1      43.380   3.423  11.708  0.00  0.00    +0.000 A 
ATOM     27  N   UNL     1      44.249   3.100  12.687  0.00  0.00    +0.000 NA
ATOM     28  C   UNL     1      45.298   3.945  12.870  0.00  0.00    +0.000 A 
ENDBRANCH  21  23
ENDBRANCH  16  17
ENDBRANCH   2  15
TORSDOF 5
ENDMDL
MODEL 8
REMARK VINA RESULT:    -6.593      2.377      2.856
REMARK INTER + INTRA:          -9.540
REMARK INTER:                  -8.543
REMARK INTRA:                  -0.997
REMARK UNBOUND:                -1.020
REMARK  Name = 
REMARK  7 active torsions:
REMARK  status: ('A' for Active; 'I' for Inactive)
REMARK    1  A    between atoms: C_1  and  C_2
REMARK    2  A    between atoms: C_2  and  C_3
REMARK    3  A    between atoms: C_2  and  C_4
REMARK    4  A    between atoms: C_2  and  C_18
REMARK    5  A    between atoms: C_5  and  C_6
REMARK    6  A    between atoms: C_10  and  C_11
REMARK    7  A    between atoms: C_22  and  C_23
REMARK                            x       y       z     vdW  Elec       q    Type
REMARK                         _______ _______ _______ _____ _____    ______ ____
ROOT
ATOM      1  C   UNL     1      49.049   8.508  11.770  0.00  0.00    +0.000 C 
ATOM      2  C   UNL     1      47.766   8.369  12.618  0.00  0.00    +0.000 C 
ATOM      3  C   UNL     1      46.942   9.672  12.416  0.00  0.00    +0.000 C 
ENDROOT
BRANCH   2   4
ATOM      4  C   UNL     1      48.157   8.123  14.091  0.00  0.00    +0.000 A 
ATOM      5  C   UNL     1      48.669   6.893  14.519  0.00  0.00    +0.000 A 
ATOM      6  C   UNL     1      49.147   6.727  15.820  0.00  0.00    +0.000 A 
ATOM      7  C   UNL     1      49.163   7.799  16.704  0.00  0.00    +0.000 A 
ATOM      8  C   UNL     1      48.668   9.039  16.323  0.00  0.00    +0.000 A 
ATOM      9  C   UNL     1      48.132   9.187  15.029  0.00  0.00    +0.000 A 
BRANCH   8  10
ATOM     10  C   UNL     1      48.809  10.231  17.202  0.00  0.00    +0.000 C 
ATOM     11  N   UNL     1      49.235  10.011  18.487  0.00  0.00    +0.000 N 
ATOM     12  O   UNL     1      48.572  11.360  16.806  0.00  0.00    +0.000 OA
ATOM     13  H   UNL     1      49.331   9.098  18.904  0.00  0.00    +0.000 HD
ATOM     14  H   UNL     1      49.259  10.816  19.100  0.00  0.00    +0.000 HD
ENDBRANCH   8  10
ENDBRANCH   2   4
BRANCH   2  15
ATOM     15  C   UNL     1      46.904   7.228  12.075  0.00  0.00    +0.000 C 
ATOM     16  C   UNL     1      45.647   6.916  12.442  0.00  0.00    +0.000 C 
BRANCH  16  17
ATOM     17  C   UNL     1      44.880   5.819  11.850  0.00  0.00    +0.000 A 
ATOM     18  C   UNL     1      43.648   5.452  12.374  0.00  0.00    +0.000 A 
ATOM     19  C   UNL     1      42.975   4.377  11.798  0.00  0.00    +0.000 A 
ATOM     20  C   UNL     1      43.549   3.730  10.715  0.00  0.00    +0.000 A 
ATOM     21  C   UNL     1      44.772   4.172  10.218  0.00  0.00    +0.000 A 
ATOM     22  N   UNL     1      45.440   5.195  10.785  0.00  0.00    +0.000 NA
BRANCH  21  23
ATOM     23  C   UNL     1      45.409   3.548   9.053  0.00  0.00    +0.000 A 
ATOM     24  C   UNL     1      45.576   2.163   8.966  0.00  0.00    +0.000 A 
ATOM     25  C   UNL     1      46.229   1.600   7.876  0.00  0.00    +0.000 A 
ATOM     26  C   UNL     1      46.693   2.445   6.886  0.00  0.00    +0.000 A 
ATOM     27  N   UNL     1      46.533   3.784   6.906  0.00  0.00    +0.000 NA
ATOM     28  C   UNL     1      45.886   4.302   7.983  0.00  0.00    +0.000 A 
ENDBRANCH  21  23
ENDBRANCH  16  17
ENDBRANCH   2  15
TORSDOF 5
ENDMDL
MODEL 9
REMARK VINA RESULT:    -6.477      4.063      6.970
REMARK INTER + INTRA:          -9.390
REMARK INTER:                  -8.465
REMARK INTRA:                  -0.925
REMARK UNBOUND:                -1.020
REMARK  Name = 
REMARK  7 active torsions:
REMARK  status: ('A' for Active; 'I' for Inactive)
REMARK    1  A    between atoms: C_1  and  C_2
REMARK    2  A    between atoms: C_2  and  C_3
REMARK    3  A    between atoms: C_2  and  C_4
REMARK    4  A    between atoms: C_2  and  C_18
REMARK    5  A    between atoms: C_5  and  C_6
REMARK    6  A    between atoms: C_10  and  C_11
REMARK    7  A    between atoms: C_22  and  C_23
REMARK                            x       y       z     vdW  Elec       q    Type
REMARK                         _______ _______ _______ _____ _____    ______ ____
ROOT
ATOM      1  C   UNL     1      47.493   6.477  13.919  0.00  0.00    +0.000 C 
ATOM      2  C   UNL     1      47.006   7.247  12.673  0.00  0.00    +0.000 C 
ATOM      3  C   UNL     1      46.231   8.495  13.181  0.00  0.00    +0.000 C 
ENDROOT
BRANCH   2   4
ATOM      4  C   UNL     1      46.140   6.308  11.804  0.00  0.00    +0.000 A 
ATOM      5  C   UNL     1      46.308   6.228  10.418  0.00  0.00    +0.000 A 
ATOM      6  C   UNL     1      45.618   5.279   9.664  0.00  0.00    +0.000 A 
ATOM      7  C   UNL     1      44.779   4.362  10.287  0.00  0.00    +0.000 A 
ATOM      8  C   UNL     1      44.583   4.401  11.661  0.00  0.00    +0.000 A 
ATOM      9  C   UNL     1      45.236   5.398  12.411  0.00  0.00    +0.000 A 
BRANCH   8  10
ATOM     10  C   UNL     1      43.808   3.343  12.362  0.00  0.00    +0.000 C 
ATOM     11  N   UNL     1      43.458   2.238  11.628  0.00  0.00    +0.000 N 
ATOM     12  O   UNL     1      43.501   3.436  13.539  0.00  0.00    +0.000 OA
ATOM     13  H   UNL     1      43.578   2.158  10.630  0.00  0.00    +0.000 HD
ATOM     14  H   UNL     1      42.868   1.556  12.090  0.00  0.00    +0.000 HD
ENDBRANCH   8  10
ENDBRANCH   2   4
BRANCH   2  15
ATOM     15  C   UNL     1      48.206   7.778  11.887  0.00  0.00    +0.000 C 
ATOM     16  C   UNL     1      49.507   7.569  12.156  0.00  0.00    +0.000 C 
BRANCH  16  17
ATOM     17  C   UNL     1      50.599   8.094  11.334  0.00  0.00    +0.000 A 
ATOM     18  C   UNL     1      50.981   9.425  11.428  0.00  0.00    +0.000 A 
ATOM     19  C   UNL     1      52.000   9.884  10.597  0.00  0.00    +0.000 A 
ATOM     20  C   UNL     1      52.604   8.994   9.724  0.00  0.00    +0.000 A 
ATOM     21  C   UNL     1      52.195   7.663   9.704  0.00  0.00    +0.000 A 
ATOM     22  N   UNL     1      51.193   7.218  10.488  0.00  0.00    +0.000 NA
BRANCH  21  23
ATOM     23  C   UNL     1      52.822   6.669   8.827  0.00  0.00    +0.000 A 
ATOM     24  C   UNL     1      53.863   5.851   9.276  0.00  0.00    +0.000 A 
ATOM     25  C   UNL     1      54.476   4.953   8.411  0.00  0.00    +0.000 A 
ATOM     26  C   UNL     1      54.019   4.887   7.108  0.00  0.00    +0.000 A 
ATOM     27  N   UNL     1      53.001   5.631   6.632  0.00  0.00    +0.000 NA
ATOM     28  C   UNL     1      52.420   6.495   7.504  0.00  0.00    +0.000 A 
ENDBRANCH  21  23
ENDBRANCH  16  17
ENDBRANCH   2  15
TORSDOF 5
ENDMDL
