MODEL 1
REMARK VINA RESULT:    -7.805      0.000      0.000
REMARK INTER + INTRA:         -11.740
REMARK INTER:                 -10.999
REMARK INTRA:                  -0.741
REMARK UNBOUND:                -0.741
REMARK  Name = 
REMARK  7 active torsions:
REMARK  status: ('A' for Active; 'I' for Inactive)
REMARK    1  A    between atoms: C_2  and  O_3
REMARK    2  A    between atoms: C_2  and  C_23
REMARK    3  A    between atoms: O_3  and  C_4
REMARK    4  A    between atoms: C_4  and  C_5
REMARK    5  A    between atoms: C_8  and  C_9
REMARK    6  A    between atoms: C_9  and  N_10
REMARK    7  A    between atoms: C_11  and  C_13
REMARK                            x       y       z     vdW  Elec       q    Type
REMARK                         _______ _______ _______ _____ _____    ______ ____
ROOT
ATOM      1  C   UNL     1      44.813   4.858  10.939  0.00  0.00    +0.000 A 
ATOM      2  C   UNL     1      45.649   5.959  10.712  0.00  0.00    +0.000 A 
ATOM      3  C   UNL     1      46.544   6.397  11.698  0.00  0.00    +0.000 A 
ATOM      4  C   UNL     1      46.632   5.734  12.931  0.00  0.00    +0.000 A 
ATOM      5  C   UNL     1      45.765   4.660  13.173  0.00  0.00    +0.000 A 
ATOM      6  C   UNL     1      44.870   4.224  12.188  0.00  0.00    +0.000 A 
ENDROOT
BRANCH   1   7
ATOM      7  C   UNL     1      43.842   4.385   9.880  0.00  0.00    +0.000 C 
BRANCH   7   8
ATOM      8  O   UNL     1      44.554   3.939   8.715  0.00  0.00    +0.000 OA
BRANCH   8  10
ATOM      9  O   UNL     1      44.521   1.740   9.381  0.00  0.00    +0.000 OA
ATOM     10  C   UNL     1      45.008   2.655   8.738  0.00  0.00    +0.000 C 
BRANCH  10  11
ATOM     11  C   UNL     1      46.155   2.517   7.887  0.00  0.00    +0.000 A 
ATOM     12  C   UNL     1      46.866   3.419   7.117  0.00  0.00    +0.000 A 
ATOM     13  C   UNL     1      47.895   2.670   6.519  0.00  0.00    +0.000 A 
ATOM     14  N   UNL     1      47.845   1.382   6.861  0.00  0.00    +0.000 NA
ATOM     15  N   UNL     1      46.779   1.313   7.679  0.00  0.00    +0.000 N 
ATOM     16  H   UNL     1      46.523   0.411   8.071  0.00  0.00    +0.000 HD
ENDBRANCH  10  11
ENDBRANCH   8  10
ENDBRANCH   7   8
ENDBRANCH   1   7
BRANCH   4  17
ATOM     17  C   UNL     1      47.715   6.083  13.917  0.00  0.00    +0.000 C 
BRANCH  17  18
ATOM     18  N   UNL     1      47.554   5.551  15.250  0.00  0.00    +0.000 N 
ATOM     19  C   UNL     1      48.591   5.732  16.142  0.00  0.00    +0.000 C 
ATOM     20  O   UNL     1      49.649   6.265  15.822  0.00  0.00    +0.000 OA
ATOM     21  H   UNL     1      46.679   5.109  15.514  0.00  0.00    +0.000 HD
BRANCH  19  22
ATOM     22  C   UNL     1      48.352   5.282  17.512  0.00  0.00    +0.000 C 
ATOM     23  S   UNL     1      48.824   3.698  18.055  0.00  0.00    +0.000 S 
ATOM     24  N   UNL     1      48.650   4.016  19.734  0.00  0.00    +0.000 NA
ATOM     25  C   UNL     1      48.244   5.226  19.872  0.00  0.00    +0.000 C 
ATOM     26  N   UNL     1      47.962   5.969  20.973  0.00  0.00    +0.000 NA
ATOM     27  C   UNL     1      47.611   7.108  20.444  0.00  0.00    +0.000 C 
ATOM     28  N   UNL     1      47.641   7.207  19.045  0.00  0.00    +0.000 NA
ATOM     29  C   UNL     1      48.031   6.046  18.680  0.00  0.00    +0.000 C 
ENDBRANCH  19  22
ENDBRANCH  17  18
ENDBRANCH   4  17
TORSDOF 7
ENDMDL
MODEL 2
REMARK VINA RESULT:    -7.756      1.286      1.788
REMARK INTER + INTRA:         -11.670
REMARK INTER:                 -10.760
REMARK INTRA:                  -0.910
REMARK UNBOUND:                -0.741
REMARK  Name = 
REMARK  7 active torsions:
REMARK  status: ('A' for Active; 'I' for Inactive)
REMARK    1  A    between atoms: C_2  and  O_3
REMARK    2  A    between atoms: C_2  and  C_23
REMARK    3  A    between atoms: O_3  and  C_4
REMARK    4  A    between atoms: C_4  and  C_5
REMARK    5  A    between atoms: C_8  and  C_9
REMARK    6  A    between atoms: C_9  and  N_10
REMARK    7  A    between atoms: C_11  and  C_13
REMARK                            x       y       z     vdW  Elec       q    Type
REMARK                         _______ _______ _______ _____ _____    ______ ____
ROOT
ATOM      1  C   UNL     1      44.826   4.770  11.011  0.00  0.00    +0.000 A 
ATOM      2  C   UNL     1      45.509   5.884  10.504  0.00  0.00    +0.000 A 
ATOM      3  C   UNL     1      46.347   6.648  11.327  0.00  0.00    +0.000 A 
ATOM      4  C   UNL     1      46.531   6.308  12.675  0.00  0.00    +0.000 A 
ATOM      5  C   UNL     1      45.814   5.221  13.192  0.00  0.00    +0.000 A 
ATOM      6  C   UNL     1      44.975   4.458  12.369  0.00  0.00    +0.000 A 
ENDROOT
BRANCH   1   7
ATOM      7  C   UNL     1      43.917   3.945  10.127  0.00  0.00    +0.000 C 
BRANCH   7   8
ATOM      8  O   UNL     1      44.568   3.648   8.882  0.00  0.00    +0.000 OA
BRANCH   8  10
ATOM      9  O   UNL     1      44.416   1.371   9.152  0.00  0.00    +0.000 OA
ATOM     10  C   UNL     1      44.972   2.359   8.703  0.00  0.00    +0.000 C 
BRANCH  10  11
ATOM     11  C   UNL     1      46.158   2.317   7.897  0.00  0.00    +0.000 A 
ATOM     12  C   UNL     1      46.841   3.283   7.181  0.00  0.00    +0.000 A 
ATOM     13  C   UNL     1      47.938   2.616   6.607  0.00  0.00    +0.000 A 
ATOM     14  N   UNL     1      47.956   1.318   6.914  0.00  0.00    +0.000 NA
ATOM     15  N   UNL     1      46.864   1.160   7.685  0.00  0.00    +0.000 N 
ATOM     16  H   UNL     1      46.651   0.233   8.042  0.00  0.00    +0.000 HD
ENDBRANCH  10  11
ENDBRANCH   8  10
ENDBRANCH   7   8
ENDBRANCH   1   7
BRANCH   4  17
ATOM     17  C   UNL     1      47.567   7.011  13.512  0.00  0.00    +0.000 C 
BRANCH  17  18
ATOM     18  N   UNL     1      47.944   6.350  14.740  0.00  0.00    +0.000 N 
ATOM     19  C   UNL     1      48.797   7.021  15.593  0.00  0.00    +0.000 C 
ATOM     20  O   UNL     1      49.284   8.112  15.313  0.00  0.00    +0.000 OA
ATOM     21  H   UNL     1      47.541   5.447  14.971  0.00  0.00    +0.000 HD
BRANCH  19  22
ATOM     22  C   UNL     1      49.069   6.375  16.876  0.00  0.00    +0.000 C 
ATOM     23  S   UNL     1      49.303   7.293  18.335  0.00  0.00    +0.000 S 
ATOM     24  N   UNL     1      49.142   5.969  19.417  0.00  0.00    +0.000 NA
ATOM     25  C   UNL     1      48.947   4.906  18.723  0.00  0.00    +0.000 C 
ATOM     26  N   UNL     1      48.752   3.611  19.081  0.00  0.00    +0.000 NA
ATOM     27  C   UNL     1      48.608   3.033  17.921  0.00  0.00    +0.000 C 
ATOM     28  N   UNL     1      48.682   3.845  16.780  0.00  0.00    +0.000 NA
ATOM     29  C   UNL     1      48.893   5.009  17.265  0.00  0.00    +0.000 C 
ENDBRANCH  19  22
ENDBRANCH  17  18
ENDBRANCH   4  17
TORSDOF 7
ENDMDL
MODEL 3
REMARK VINA RESULT:    -6.944      2.855      3.368
REMARK INTER + INTRA:         -10.526
REMARK INTER:                  -9.524
REMARK INTRA:                  -1.002
REMARK UNBOUND:                -0.741
REMARK  Name = 
REMARK  7 active torsions:
REMARK  status: ('A' for Active; 'I' for Inactive)
REMARK    1  A    between atoms: C_2  and  O_3
REMARK    2  A    between atoms: C_2  and  C_23
REMARK    3  A    between atoms: O_3  and  C_4
REMARK    4  A    between atoms: C_4  and  C_5
REMARK    5  A    between atoms: C_8  and  C_9
REMARK    6  A    between atoms: C_9  and  N_10
REMARK    7  A    between atoms: C_11  and  C_13
REMARK                            x       y       z     vdW  Elec       q    Type
REMARK                         _______ _______ _______ _____ _____    ______ ____
ROOT
ATOM      1  C   UNL     1      44.890   5.456  12.755  0.00  0.00    +0.000 A 
ATOM      2  C   UNL     1      45.166   6.481  11.840  0.00  0.00    +0.000 A 
ATOM      3  C   UNL     1      46.429   7.088  11.801  0.00  0.00    +0.000 A 
ATOM      4  C   UNL     1      47.450   6.673  12.668  0.00  0.00    +0.000 A 
ATOM      5  C   UNL     1      47.160   5.678  13.611  0.00  0.00    +0.000 A 
ATOM      6  C   UNL     1      45.897   5.073  13.651  0.00  0.00    +0.000 A 
ENDROOT
BRANCH   1   7
ATOM      7  C   UNL     1      43.527   4.801  12.803  0.00  0.00    +0.000 C 
BRANCH   7   8
ATOM      8  O   UNL     1      43.098   4.444  11.481  0.00  0.00    +0.000 OA
BRANCH   8  10
ATOM      9  O   UNL     1      43.024   2.150  11.599  0.00  0.00    +0.000 OA
ATOM     10  C   UNL     1      43.400   3.182  11.067  0.00  0.00    +0.000 C 
BRANCH  10  11
ATOM     11  C   UNL     1      44.230   3.226   9.898  0.00  0.00    +0.000 A 
ATOM     12  C   UNL     1      45.060   2.296   9.300  0.00  0.00    +0.000 A 
ATOM     13  C   UNL     1      45.592   2.942   8.170  0.00  0.00    +0.000 A 
ATOM     14  N   UNL     1      45.154   4.196   8.054  0.00  0.00    +0.000 NA
ATOM     15  N   UNL     1      44.341   4.347   9.115  0.00  0.00    +0.000 N 
ATOM     16  H   UNL     1      43.885   5.244   9.255  0.00  0.00    +0.000 HD
ENDBRANCH  10  11
ENDBRANCH   8  10
ENDBRANCH   7   8
ENDBRANCH   1   7
BRANCH   4  17
ATOM     17  C   UNL     1      48.855   7.190  12.506  0.00  0.00    +0.000 C 
BRANCH  17  18
ATOM     18  N   UNL     1      49.718   7.053  13.657  0.00  0.00    +0.000 N 
ATOM     19  C   UNL     1      49.755   8.098  14.558  0.00  0.00    +0.000 C 
ATOM     20  O   UNL     1      49.138   9.144  14.380  0.00  0.00    +0.000 OA
ATOM     21  H   UNL     1      50.229   6.188  13.804  0.00  0.00    +0.000 HD
BRANCH  19  22
ATOM     22  C   UNL     1      50.549   7.882  15.766  0.00  0.00    +0.000 C 
ATOM     23  S   UNL     1      51.276   9.202  16.636  0.00  0.00    +0.000 S 
ATOM     24  N   UNL     1      51.637   8.311  18.059  0.00  0.00    +0.000 NA
ATOM     25  C   UNL     1      51.256   7.098  17.880  0.00  0.00    +0.000 C 
ATOM     26  N   UNL     1      51.301   6.005  18.684  0.00  0.00    +0.000 NA
ATOM     27  C   UNL     1      50.752   5.096  17.927  0.00  0.00    +0.000 C 
ATOM     28  N   UNL     1      50.320   5.490  16.652  0.00  0.00    +0.000 NA
ATOM     29  C   UNL     1      50.628   6.730  16.612  0.00  0.00    +0.000 C 
ENDBRANCH  19  22
ENDBRANCH  17  18
ENDBRANCH   4  17
TORSDOF 7
ENDMDL
MODEL 4
REMARK VINA RESULT:    -6.838      5.214      9.749
REMARK INTER + INTRA:         -10.377
REMARK INTER:                  -9.833
REMARK INTRA:                  -0.544
REMARK UNBOUND:                -0.741
REMARK  Name = 
REMARK  7 active torsions:
REMARK  status: ('A' for Active; 'I' for Inactive)
REMARK    1  A    between atoms: C_2  and  O_3
REMARK    2  A    between atoms: C_2  and  C_23
REMARK    3  A    between atoms: O_3  and  C_4
REMARK    4  A    between atoms: C_4  and  C_5
REMARK    5  A    between atoms: C_8  and  C_9
REMARK    6  A    between atoms: C_9  and  N_10
REMARK    7  A    between atoms: C_11  and  C_13
REMARK                            x       y       z     vdW  Elec       q    Type
REMARK                         _______ _______ _______ _____ _____    ______ ____
ROOT
ATOM      1  C   UNL     1      51.549   3.076  17.746  0.00  0.00    +0.000 A 
ATOM      2  C   UNL     1      50.968   4.350  17.806  0.00  0.00    +0.000 A 
ATOM      3  C   UNL     1      49.622   4.543  17.469  0.00  0.00    +0.000 A 
ATOM      4  C   UNL     1      48.820   3.462  17.076  0.00  0.00    +0.000 A 
ATOM      5  C   UNL     1      49.412   2.196  16.974  0.00  0.00    +0.000 A 
ATOM      6  C   UNL     1      50.758   2.004  17.309  0.00  0.00    +0.000 A 
ENDROOT
BRANCH   1   7
ATOM      7  C   UNL     1      53.003   2.864  18.105  0.00  0.00    +0.000 C 
BRANCH   7   8
ATOM      8  O   UNL     1      53.199   1.544  18.633  0.00  0.00    +0.000 OA
BRANCH   8  10
ATOM      9  O   UNL     1      54.584   1.008  16.879  0.00  0.00    +0.000 OA
ATOM     10  C   UNL     1      53.979   0.706  17.895  0.00  0.00    +0.000 C 
BRANCH  10  11
ATOM     11  C   UNL     1      54.000  -0.602  18.484  0.00  0.00    +0.000 A 
ATOM     12  C   UNL     1      55.018  -1.506  18.726  0.00  0.00    +0.000 A 
ATOM     13  C   UNL     1      54.399  -2.611  19.339  0.00  0.00    +0.000 A 
ATOM     14  N   UNL     1      53.082  -2.442  19.468  0.00  0.00    +0.000 NA
ATOM     15  N   UNL     1      52.865  -1.226  18.935  0.00  0.00    +0.000 N 
ATOM     16  H   UNL     1      51.913  -0.870  18.907  0.00  0.00    +0.000 HD
ENDBRANCH  10  11
ENDBRANCH   8  10
ENDBRANCH   7   8
ENDBRANCH   1   7
BRANCH   4  17
ATOM     17  C   UNL     1      47.335   3.631  16.892  0.00  0.00    +0.000 C 
BRANCH  17  18
ATOM     18  N   UNL     1      46.925   4.628  15.931  0.00  0.00    +0.000 N 
ATOM     19  C   UNL     1      46.935   4.276  14.597  0.00  0.00    +0.000 C 
ATOM     20  O   UNL     1      47.335   3.182  14.208  0.00  0.00    +0.000 OA
ATOM     21  H   UNL     1      46.594   5.533  16.253  0.00  0.00    +0.000 HD
BRANCH  19  22
ATOM     22  C   UNL     1      46.408   5.267  13.662  0.00  0.00    +0.000 C 
ATOM     23  S   UNL     1      47.451   6.337  12.771  0.00  0.00    +0.000 S 
ATOM     24  N   UNL     1      46.266   6.861  11.645  0.00  0.00    +0.000 NA
ATOM     25  C   UNL     1      45.155   6.285  11.935  0.00  0.00    +0.000 C 
ATOM     26  N   UNL     1      43.926   6.344  11.363  0.00  0.00    +0.000 NA
ATOM     27  C   UNL     1      43.242   5.527  12.115  0.00  0.00    +0.000 C 
ATOM     28  N   UNL     1      43.922   4.897  13.168  0.00  0.00    +0.000 NA
ATOM     29  C   UNL     1      45.108   5.360  13.066  0.00  0.00    +0.000 C 
ENDBRANCH  19  22
ENDBRANCH  17  18
ENDBRANCH   4  17
TORSDOF 7
ENDMDL
MODEL 5
REMARK VINA RESULT:    -6.749      2.958      9.115
REMARK INTER + INTRA:         -10.252
REMARK INTER:                  -9.269
REMARK INTRA:                  -0.982
REMARK UNBOUND:                -0.741
REMARK  Name = 
REMARK  7 active torsions:
REMARK  status: ('A' for Active; 'I' for Inactive)
REMARK    1  A    between atoms: C_2  and  O_3
REMARK    2  A    between atoms: C_2  and  C_23
REMARK    3  A    between atoms: O_3  and  C_4
REMARK    4  A    between atoms: C_4  and  C_5
REMARK    5  A    between atoms: C_8  and  C_9
REMARK    6  A    between atoms: C_9  and  N_10
REMARK    7  A    between atoms: C_11  and  C_13
REMARK                            x       y       z     vdW  Elec       q    Type
REMARK                         _______ _______ _______ _____ _____    ______ ____
ROOT
ATOM      1  C   UNL     1      48.942   7.998  16.093  0.00  0.00    +0.000 A 
ATOM      2  C   UNL     1      48.185   9.081  15.624  0.00  0.00    +0.000 A 
ATOM      3  C   UNL     1      47.672   9.087  14.321  0.00  0.00    +0.000 A 
ATOM      4  C   UNL     1      47.891   8.004  13.458  0.00  0.00    +0.000 A 
ATOM      5  C   UNL     1      48.684   6.942  13.912  0.00  0.00    +0.000 A 
ATOM      6  C   UNL     1      49.200   6.936  15.215  0.00  0.00    +0.000 A 
ENDROOT
BRANCH   1   7
ATOM      7  C   UNL     1      49.503   7.989  17.497  0.00  0.00    +0.000 C 
BRANCH   7   8
ATOM      8  O   UNL     1      49.664   6.640  17.961  0.00  0.00    +0.000 OA
BRANCH   8  10
ATOM      9  O   UNL     1      48.290   6.678  19.803  0.00  0.00    +0.000 OA
ATOM     10  C   UNL     1      48.681   6.157  18.771  0.00  0.00    +0.000 C 
BRANCH  10  11
ATOM     11  C   UNL     1      48.154   4.933  18.239  0.00  0.00    +0.000 A 
ATOM     12  C   UNL     1      48.533   3.610  18.375  0.00  0.00    +0.000 A 
ATOM     13  C   UNL     1      47.607   2.876  17.612  0.00  0.00    +0.000 A 
ATOM     14  N   UNL     1      46.709   3.663  17.017  0.00  0.00    +0.000 NA
ATOM     15  N   UNL     1      47.067   4.901  17.403  0.00  0.00    +0.000 N 
ATOM     16  H   UNL     1      46.528   5.692  17.062  0.00  0.00    +0.000 HD
ENDBRANCH  10  11
ENDBRANCH   8  10
ENDBRANCH   7   8
ENDBRANCH   1   7
BRANCH   4  17
ATOM     17  C   UNL     1      47.190   7.923  12.129  0.00  0.00    +0.000 C 
BRANCH  17  18
ATOM     18  N   UNL     1      46.791   6.602  11.701  0.00  0.00    +0.000 N 
ATOM     19  C   UNL     1      45.442   6.311  11.692  0.00  0.00    +0.000 C 
ATOM     20  O   UNL     1      44.594   7.105  12.089  0.00  0.00    +0.000 OA
ATOM     21  H   UNL     1      47.493   5.945  11.373  0.00  0.00    +0.000 HD
BRANCH  19  22
ATOM     22  C   UNL     1      45.065   5.008  11.148  0.00  0.00    +0.000 C 
ATOM     23  S   UNL     1      43.986   3.937  11.993  0.00  0.00    +0.000 S 
ATOM     24  N   UNL     1      43.679   2.893  10.664  0.00  0.00    +0.000 NA
ATOM     25  C   UNL     1      44.361   3.313   9.659  0.00  0.00    +0.000 C 
ATOM     26  N   UNL     1      44.470   2.860   8.384  0.00  0.00    +0.000 NA
ATOM     27  C   UNL     1      45.303   3.721   7.867  0.00  0.00    +0.000 C 
ATOM     28  N   UNL     1      45.771   4.748   8.699  0.00  0.00    +0.000 NA
ATOM     29  C   UNL     1      45.194   4.504   9.814  0.00  0.00    +0.000 C 
ENDBRANCH  19  22
ENDBRANCH  17  18
ENDBRANCH   4  17
TORSDOF 7
ENDMDL
MODEL 6
REMARK VINA RESULT:    -6.719      1.736      2.387
REMARK INTER + INTRA:         -10.210
REMARK INTER:                  -9.489
REMARK INTRA:                  -0.721
REMARK UNBOUND:                -0.741
REMARK  Name = 
REMARK  7 active torsions:
REMARK  status: ('A' for Active; 'I' for Inactive)
REMARK    1  A    between atoms: C_2  and  O_3
REMARK    2  A    between atoms: C_2  and  C_23
REMARK    3  A    between atoms: O_3  and  C_4
REMARK    4  A    between atoms: C_4  and  C_5
REMARK    5  A    between atoms: C_8  and  C_9
REMARK    6  A    between atoms: C_9  and  N_10
REMARK    7  A    between atoms: C_11  and  C_13
REMARK                            x       y       z     vdW  Elec       q    Type
REMARK                         _______ _______ _______ _____ _____    ______ ____
ROOT
ATOM      1  C   UNL     1      44.931   4.794  12.842  0.00  0.00    +0.000 A 
ATOM      2  C   UNL     1      46.042   4.191  13.447  0.00  0.00    +0.000 A 
ATOM      3  C   UNL     1      47.164   4.949  13.807  0.00  0.00    +0.000 A 
ATOM      4  C   UNL     1      47.195   6.333  13.583  0.00  0.00    +0.000 A 
ATOM      5  C   UNL     1      46.102   6.928  12.940  0.00  0.00    +0.000 A 
ATOM      6  C   UNL     1      44.982   6.170  12.578  0.00  0.00    +0.000 A 
ENDROOT
BRANCH   1   7
ATOM      7  C   UNL     1      43.720   3.979  12.447  0.00  0.00    +0.000 C 
BRANCH   7   8
ATOM      8  O   UNL     1      44.017   3.167  11.301  0.00  0.00    +0.000 OA
BRANCH   8  10
ATOM      9  O   UNL     1      43.404   4.806   9.811  0.00  0.00    +0.000 OA
ATOM     10  C   UNL     1      44.039   3.803  10.097  0.00  0.00    +0.000 C 
BRANCH  10  11
ATOM     11  C   UNL     1      44.926   3.129   9.193  0.00  0.00    +0.000 A 
ATOM     12  C   UNL     1      45.639   3.553   8.087  0.00  0.00    +0.000 A 
ATOM     13  C   UNL     1      46.334   2.417   7.634  0.00  0.00    +0.000 A 
ATOM     14  N   UNL     1      46.079   1.340   8.377  0.00  0.00    +0.000 NA
ATOM     15  N   UNL     1      45.217   1.793   9.306  0.00  0.00    +0.000 N 
ATOM     16  H   UNL     1      44.860   1.141   9.998  0.00  0.00    +0.000 HD
ENDBRANCH  10  11
ENDBRANCH   8  10
ENDBRANCH   7   8
ENDBRANCH   1   7
BRANCH   4  17
ATOM     17  C   UNL     1      48.314   7.177  14.134  0.00  0.00    +0.000 C 
BRANCH  17  18
ATOM     18  N   UNL     1      48.286   7.416  15.558  0.00  0.00    +0.000 N 
ATOM     19  C   UNL     1      49.303   6.878  16.320  0.00  0.00    +0.000 C 
ATOM     20  O   UNL     1      50.177   6.163  15.839  0.00  0.00    +0.000 OA
ATOM     21  H   UNL     1      47.562   8.007  15.956  0.00  0.00    +0.000 HD
BRANCH  19  22
ATOM     22  C   UNL     1      49.307   7.232  17.737  0.00  0.00    +0.000 C 
ATOM     23  S   UNL     1      50.102   8.664  18.325  0.00  0.00    +0.000 S 
ATOM     24  N   UNL     1      49.370   8.661  19.878  0.00  0.00    +0.000 NA
ATOM     25  C   UNL     1      48.597   7.638  19.955  0.00  0.00    +0.000 C 
ATOM     26  N   UNL     1      47.791   7.182  20.947  0.00  0.00    +0.000 NA
ATOM     27  C   UNL     1      47.273   6.117  20.402  0.00  0.00    +0.000 C 
ATOM     28  N   UNL     1      47.661   5.809  19.089  0.00  0.00    +0.000 NA
ATOM     29  C   UNL     1      48.483   6.746  18.803  0.00  0.00    +0.000 C 
ENDBRANCH  19  22
ENDBRANCH  17  18
ENDBRANCH   4  17
TORSDOF 7
ENDMDL
MODEL 7
REMARK VINA RESULT:    -6.356      5.116      7.937
REMARK INTER + INTRA:          -9.698
REMARK INTER:                  -8.929
REMARK INTRA:                  -0.769
REMARK UNBOUND:                -0.741
REMARK  Name = 
REMARK  7 active torsions:
REMARK  status: ('A' for Active; 'I' for Inactive)
REMARK    1  A    between atoms: C_2  and  O_3
REMARK    2  A    between atoms: C_2  and  C_23
REMARK    3  A    between atoms: O_3  and  C_4
REMARK    4  A    between atoms: C_4  and  C_5
REMARK    5  A    between atoms: C_8  and  C_9
REMARK    6  A    between atoms: C_9  and  N_10
REMARK    7  A    between atoms: C_11  and  C_13
REMARK                            x       y       z     vdW  Elec       q    Type
REMARK                         _______ _______ _______ _____ _____    ______ ____
ROOT
ATOM      1  C   UNL     1      46.816   6.235  13.012  0.00  0.00    +0.000 A 
ATOM      2  C   UNL     1      47.075   6.835  11.772  0.00  0.00    +0.000 A 
ATOM      3  C   UNL     1      48.287   7.496  11.534  0.00  0.00    +0.000 A 
ATOM      4  C   UNL     1      49.275   7.561  12.527  0.00  0.00    +0.000 A 
ATOM      5  C   UNL     1      48.998   6.999  13.780  0.00  0.00    +0.000 A 
ATOM      6  C   UNL     1      47.785   6.339  14.019  0.00  0.00    +0.000 A 
ENDROOT
BRANCH   1   7
ATOM      7  C   UNL     1      45.507   5.525  13.276  0.00  0.00    +0.000 C 
BRANCH   7   8
ATOM      8  O   UNL     1      44.834   5.243  12.039  0.00  0.00    +0.000 OA
BRANCH   8  10
ATOM      9  O   UNL     1      44.430   3.029  12.499  0.00  0.00    +0.000 OA
ATOM     10  C   UNL     1      44.685   3.928  11.716  0.00  0.00    +0.000 C 
BRANCH  10  11
ATOM     11  C   UNL     1      44.867   3.738  10.306  0.00  0.00    +0.000 A 
ATOM     12  C   UNL     1      44.846   2.615   9.500  0.00  0.00    +0.000 A 
ATOM     13  C   UNL     1      45.084   3.086   8.196  0.00  0.00    +0.000 A 
ATOM     14  N   UNL     1      45.261   4.408   8.163  0.00  0.00    +0.000 NA
ATOM     15  N   UNL     1      45.136   4.776   9.450  0.00  0.00    +0.000 N 
ATOM     16  H   UNL     1      45.244   5.759   9.688  0.00  0.00    +0.000 HD
ENDBRANCH  10  11
ENDBRANCH   8  10
ENDBRANCH   7   8
ENDBRANCH   1   7
BRANCH   4  17
ATOM     17  C   UNL     1      50.644   8.105  12.217  0.00  0.00    +0.000 C 
BRANCH  17  18
ATOM     18  N   UNL     1      51.383   7.412  11.187  0.00  0.00    +0.000 N 
ATOM     19  C   UNL     1      52.055   8.176  10.255  0.00  0.00    +0.000 C 
ATOM     20  O   UNL     1      51.992   9.402  10.239  0.00  0.00    +0.000 OA
ATOM     21  H   UNL     1      51.435   6.398  11.200  0.00  0.00    +0.000 HD
BRANCH  19  22
ATOM     22  C   UNL     1      52.884   7.448   9.297  0.00  0.00    +0.000 C 
ATOM     23  S   UNL     1      53.513   5.863   9.643  0.00  0.00    +0.000 S 
ATOM     24  N   UNL     1      53.970   5.486   8.031  0.00  0.00    +0.000 NA
ATOM     25  C   UNL     1      53.688   6.495   7.289  0.00  0.00    +0.000 C 
ATOM     26  N   UNL     1      53.836   6.711   5.957  0.00  0.00    +0.000 NA
ATOM     27  C   UNL     1      53.353   7.915   5.827  0.00  0.00    +0.000 C 
ATOM     28  N   UNL     1      52.869   8.545   6.983  0.00  0.00    +0.000 NA
ATOM     29  C   UNL     1      53.072   7.674   7.895  0.00  0.00    +0.000 C 
ENDBRANCH  19  22
ENDBRANCH  17  18
ENDBRANCH   4  17
TORSDOF 7
ENDMDL
MODEL 8
REMARK VINA RESULT:    -6.311      3.904      8.625
REMARK INTER + INTRA:          -9.635
REMARK INTER:                  -8.519
REMARK INTRA:                  -1.117
REMARK UNBOUND:                -0.741
REMARK  Name = 
REMARK  7 active torsions:
REMARK  status: ('A' for Active; 'I' for Inactive)
REMARK    1  A    between atoms: C_2  and  O_3
REMARK    2  A    between atoms: C_2  and  C_23
REMARK    3  A    between atoms: O_3  and  C_4
REMARK    4  A    between atoms: C_4  and  C_5
REMARK    5  A    between atoms: C_8  and  C_9
REMARK    6  A    between atoms: C_9  and  N_10
REMARK    7  A    between atoms: C_11  and  C_13
REMARK                            x       y       z     vdW  Elec       q    Type
REMARK                         _______ _______ _______ _____ _____    ______ ____
ROOT
ATOM      1  C   UNL     1      50.082   7.216  17.596  0.00  0.00    +0.000 A 
ATOM      2  C   UNL     1      49.071   8.180  17.715  0.00  0.00    +0.000 A 
ATOM      3  C   UNL     1      48.398   8.657  16.583  0.00  0.00    +0.000 A 
ATOM      4  C   UNL     1      48.711   8.172  15.305  0.00  0.00    +0.000 A 
ATOM      5  C   UNL     1      49.750   7.241  15.183  0.00  0.00    +0.000 A 
ATOM      6  C   UNL     1      50.425   6.764  16.315  0.00  0.00    +0.000 A 
ENDROOT
BRANCH   1   7
ATOM      7  C   UNL     1      50.814   6.700  18.815  0.00  0.00    +0.000 C 
BRANCH   7   8
ATOM      8  O   UNL     1      50.526   5.309  19.019  0.00  0.00    +0.000 OA
BRANCH   8  10
ATOM      9  O   UNL     1      48.758   5.370  20.487  0.00  0.00    +0.000 OA
ATOM     10  C   UNL     1      49.265   5.007  19.438  0.00  0.00    +0.000 C 
BRANCH  10  11
ATOM     11  C   UNL     1      48.598   4.192  18.463  0.00  0.00    +0.000 A 
ATOM     12  C   UNL     1      49.058   3.295  17.517  0.00  0.00    +0.000 A 
ATOM     13  C   UNL     1      47.907   2.811  16.871  0.00  0.00    +0.000 A 
ATOM     14  N   UNL     1      46.791   3.362  17.350  0.00  0.00    +0.000 NA
ATOM     15  N   UNL     1      47.236   4.201  18.303  0.00  0.00    +0.000 N 
ATOM     16  H   UNL     1      46.558   4.757  18.818  0.00  0.00    +0.000 HD
ENDBRANCH  10  11
ENDBRANCH   8  10
ENDBRANCH   7   8
ENDBRANCH   1   7
BRANCH   4  17
ATOM     17  C   UNL     1      47.870   8.543  14.113  0.00  0.00    +0.000 C 
BRANCH  17  18
ATOM     18  N   UNL     1      46.816   7.617  13.768  0.00  0.00    +0.000 N 
ATOM     19  C   UNL     1      47.089   6.662  12.809  0.00  0.00    +0.000 C 
ATOM     20  O   UNL     1      48.158   6.620  12.208  0.00  0.00    +0.000 OA
ATOM     21  H   UNL     1      45.931   7.652  14.266  0.00  0.00    +0.000 HD
BRANCH  19  22
ATOM     22  C   UNL     1      46.042   5.672  12.565  0.00  0.00    +0.000 C 
ATOM     23  S   UNL     1      46.108   4.076  13.253  0.00  0.00    +0.000 S 
ATOM     24  N   UNL     1      44.472   3.665  12.931  0.00  0.00    +0.000 NA
ATOM     25  C   UNL     1      43.922   4.655  12.327  0.00  0.00    +0.000 C 
ATOM     26  N   UNL     1      42.661   4.849  11.864  0.00  0.00    +0.000 NA
ATOM     27  C   UNL     1      42.741   6.051  11.367  0.00  0.00    +0.000 C 
ATOM     28  N   UNL     1      43.976   6.710  11.463  0.00  0.00    +0.000 NA
ATOM     29  C   UNL     1      44.716   5.853  12.056  0.00  0.00    +0.000 C 
ENDBRANCH  19  22
ENDBRANCH  17  18
ENDBRANCH   4  17
TORSDOF 7
ENDMDL
MODEL 9
REMARK VINA RESULT:    -6.299      5.515      9.327
REMARK INTER + INTRA:          -9.618
REMARK INTER:                  -8.841
REMARK INTRA:                  -0.777
REMARK UNBOUND:                -0.741
REMARK  Name = 
REMARK  7 active torsions:
REMARK  status: ('A' for Active; 'I' for Inactive)
REMARK    1  A    between atoms: C_2  and  O_3
REMARK    2  A    between atoms: C_2  and  C_23
REMARK    3  A    between atoms: O_3  and  C_4
REMARK    4  A    between atoms: C_4  and  C_5
REMARK    5  A    between atoms: C_8  and  C_9
REMARK    6  A    between atoms: C_9  and  N_10
REMARK    7  A    between atoms: C_11  and  C_13
REMARK                            x       y       z     vdW  Elec       q    Type
REMARK                         _______ _______ _______ _____ _____    ______ ____
ROOT
ATOM      1  C   UNL     1      51.403   2.686  17.601  0.00  0.00    +0.000 A 
ATOM      2  C   UNL     1      50.977   4.011  17.769  0.00  0.00    +0.000 A 
ATOM      3  C   UNL     1      49.687   4.404  17.389  0.00  0.00    +0.000 A 
ATOM      4  C   UNL     1      48.786   3.477  16.845  0.00  0.00    +0.000 A 
ATOM      5  C   UNL     1      49.227   2.164  16.637  0.00  0.00    +0.000 A 
ATOM      6  C   UNL     1      50.518   1.771  17.015  0.00  0.00    +0.000 A 
ENDROOT
BRANCH   1   7
ATOM      7  C   UNL     1      52.796   2.258  18.005  0.00  0.00    +0.000 C 
BRANCH   7   8
ATOM      8  O   UNL     1      52.856   0.832  18.154  0.00  0.00    +0.000 OA
BRANCH   8  10
ATOM      9  O   UNL     1      54.620   0.543  19.599  0.00  0.00    +0.000 OA
ATOM     10  C   UNL     1      54.055   0.313  18.542  0.00  0.00    +0.000 C 
BRANCH  10  11
ATOM     11  C   UNL     1      54.573  -0.557  17.526  0.00  0.00    +0.000 A 
ATOM     12  C   UNL     1      55.265  -0.322  16.353  0.00  0.00    +0.000 A 
ATOM     13  C   UNL     1      55.500  -1.593  15.797  0.00  0.00    +0.000 A 
ATOM     14  N   UNL     1      54.987  -2.572  16.544  0.00  0.00    +0.000 NA
ATOM     15  N   UNL     1      54.424  -1.920  17.577  0.00  0.00    +0.000 N 
ATOM     16  H   UNL     1      53.948  -2.462  18.294  0.00  0.00    +0.000 HD
ENDBRANCH  10  11
ENDBRANCH   8  10
ENDBRANCH   7   8
ENDBRANCH   1   7
BRANCH   4  17
ATOM     17  C   UNL     1      47.347   3.849  16.609  0.00  0.00    +0.000 C 
BRANCH  17  18
ATOM     18  N   UNL     1      47.105   4.812  15.560  0.00  0.00    +0.000 N 
ATOM     19  C   UNL     1      46.973   4.337  14.271  0.00  0.00    +0.000 C 
ATOM     20  O   UNL     1      47.117   3.151  13.988  0.00  0.00    +0.000 OA
ATOM     21  H   UNL     1      46.986   5.794  15.794  0.00  0.00    +0.000 HD
BRANCH  19  22
ATOM     22  C   UNL     1      46.617   5.322  13.251  0.00  0.00    +0.000 C 
ATOM     23  S   UNL     1      45.422   4.990  12.030  0.00  0.00    +0.000 S 
ATOM     24  N   UNL     1      45.227   6.616  11.513  0.00  0.00    +0.000 NA
ATOM     25  C   UNL     1      46.025   7.353  12.198  0.00  0.00    +0.000 C 
ATOM     26  N   UNL     1      46.256   8.690  12.191  0.00  0.00    +0.000 NA
ATOM     27  C   UNL     1      47.164   8.809  13.120  0.00  0.00    +0.000 C 
ATOM     28  N   UNL     1      47.571   7.639  13.778  0.00  0.00    +0.000 NA
ATOM     29  C   UNL     1      46.872   6.730  13.214  0.00  0.00    +0.000 C 
ENDBRANCH  19  22
ENDBRANCH  17  18
ENDBRANCH   4  17
TORSDOF 7
ENDMDL
