MODEL 1
REMARK VINA RESULT:    -8.445      0.000      0.000
REMARK INTER + INTRA:         -12.224
REMARK INTER:                 -11.900
REMARK INTRA:                  -0.324
REMARK UNBOUND:                -0.324
REMARK  Name = 
REMARK  7 active torsions:
REMARK  status: ('A' for Active; 'I' for Inactive)
REMARK    1  A    between atoms: C_2  and  C_20
REMARK    2  A    between atoms: N_3  and  C_4
REMARK    3  A    between atoms: C_4  and  C_5
REMARK    4  A    between atoms: C_8  and  C_9
REMARK    5  A    between atoms: C_9  and  N_10
REMARK    6  A    between atoms: N_10  and  C_11
REMARK    7  A    between atoms: C_11  and  C_12
REMARK                            x       y       z     vdW  Elec       q    Type
REMARK                         _______ _______ _______ _____ _____    ______ ____
ROOT
ATOM      1  C   UNL     1      46.329   4.325  12.898  0.00  0.00    +0.000 C 
ATOM      2  C   UNL     1      45.389   3.174  12.499  0.00  0.00    +0.000 C 
ATOM      3  C   UNL     1      43.957   3.633  12.235  0.00  0.00    +0.000 C 
ATOM      4  C   UNL     1      43.865   4.805  11.243  0.00  0.00    +0.000 C 
ATOM      5  C   UNL     1      44.805   5.945  11.659  0.00  0.00    +0.000 C 
ATOM      6  C   UNL     1      46.240   5.481  11.895  0.00  0.00    +0.000 C 
ENDROOT
BRANCH   1   7
ATOM      7  C   UNL     1      46.060   4.842  14.321  0.00  0.00    +0.000 C 
BRANCH   7  10
ATOM      8  O   UNL     1      46.443   3.656  16.856  0.00  0.00    +0.000 OA
ATOM      9  C   UNL     1      47.372   4.268  16.337  0.00  0.00    +0.000 C 
ATOM     10  N   UNL     1      47.258   4.884  15.119  0.00  0.00    +0.000 N 
ATOM     11  H   UNL     1      48.064   5.340  14.704  0.00  0.00    +0.000 HD
BRANCH   9  12
ATOM     12  C   UNL     1      48.666   4.422  17.008  0.00  0.00    +0.000 A 
ATOM     13  C   UNL     1      48.975   5.615  17.645  0.00  0.00    +0.000 A 
ATOM     14  S   UNL     1      50.519   5.619  18.368  0.00  0.00    +0.000 S 
ATOM     15  C   UNL     1      50.810   4.013  17.890  0.00  0.00    +0.000 A 
ATOM     16  N   UNL     1      51.971   3.384  18.222  0.00  0.00    +0.000 NA
ATOM     17  C   UNL     1      52.046   2.157  17.826  0.00  0.00    +0.000 A 
ATOM     18  N   UNL     1      51.072   1.505  17.113  0.00  0.00    +0.000 N 
ATOM     19  C   UNL     1      49.920   2.120  16.692  0.00  0.00    +0.000 A 
ATOM     20  O   UNL     1      49.134   1.543  15.948  0.00  0.00    +0.000 OA
ATOM     21  C   UNL     1      49.763   3.488  17.157  0.00  0.00    +0.000 A 
ATOM     22  H   UNL     1      51.209   0.555  16.804  0.00  0.00    +0.000 HD
ENDBRANCH   9  12
ENDBRANCH   7  10
ENDBRANCH   1   7
BRANCH   4  23
ATOM     23  C   UNL     1      44.112   4.394   9.770  0.00  0.00    +0.000 C 
BRANCH  23  24
ATOM     24  N   UNL     1      45.136   5.169   9.059  0.00  0.00    +0.000 NA
ATOM     25  H   UNL     1      45.541   5.842   9.703  0.00  0.00    +0.000 HD
BRANCH  24  26
ATOM     26  C   UNL     1      46.177   4.329   8.467  0.00  0.00    +0.000 C 
BRANCH  26  27
ATOM     27  C   UNL     1      45.663   3.492   7.276  0.00  0.00    +0.000 C 
ATOM     28  C   UNL     1      45.253   2.087   7.756  0.00  0.00    +0.000 C 
ATOM     29  C   UNL     1      46.465   1.228   8.133  0.00  0.00    +0.000 C 
ATOM     30  N   UNL     1      47.430   1.124   7.038  0.00  0.00    +0.000 NA
ATOM     31  C   UNL     1      47.872   2.440   6.573  0.00  0.00    +0.000 C 
ATOM     32  C   UNL     1      46.698   3.322   6.148  0.00  0.00    +0.000 C 
ATOM     33  H   UNL     1      46.985   0.637   6.257  0.00  0.00    +0.000 HD
ENDBRANCH  26  27
ENDBRANCH  24  26
ENDBRANCH  23  24
ENDBRANCH   4  23
TORSDOF 7
ENDMDL
MODEL 2
REMARK VINA RESULT:    -7.789      1.816      2.357
REMARK INTER + INTRA:         -11.300
REMARK INTER:                  -9.891
REMARK INTRA:                  -1.409
REMARK UNBOUND:                -0.324
REMARK  Name = 
REMARK  7 active torsions:
REMARK  status: ('A' for Active; 'I' for Inactive)
REMARK    1  A    between atoms: C_2  and  C_20
REMARK    2  A    between atoms: N_3  and  C_4
REMARK    3  A    between atoms: C_4  and  C_5
REMARK    4  A    between atoms: C_8  and  C_9
REMARK    5  A    between atoms: C_9  and  N_10
REMARK    6  A    between atoms: N_10  and  C_11
REMARK    7  A    between atoms: C_11  and  C_12
REMARK                            x       y       z     vdW  Elec       q    Type
REMARK                         _______ _______ _______ _____ _____    ______ ____
ROOT
ATOM      1  C   UNL     1      46.613   5.663  12.168  0.00  0.00    +0.000 C 
ATOM      2  C   UNL     1      45.732   4.525  12.714  0.00  0.00    +0.000 C 
ATOM      3  C   UNL     1      44.238   4.821  12.613  0.00  0.00    +0.000 C 
ATOM      4  C   UNL     1      43.795   5.250  11.204  0.00  0.00    +0.000 C 
ATOM      5  C   UNL     1      44.681   6.388  10.677  0.00  0.00    +0.000 C 
ATOM      6  C   UNL     1      46.171   6.072  10.757  0.00  0.00    +0.000 C 
ENDROOT
BRANCH   1   7
ATOM      7  C   UNL     1      46.630   6.892  13.091  0.00  0.00    +0.000 C 
BRANCH   7  10
ATOM      8  O   UNL     1      49.369   6.796  13.774  0.00  0.00    +0.000 OA
ATOM      9  C   UNL     1      48.529   6.580  14.643  0.00  0.00    +0.000 C 
ATOM     10  N   UNL     1      47.183   6.591  14.385  0.00  0.00    +0.000 N 
ATOM     11  H   UNL     1      46.521   6.452  15.141  0.00  0.00    +0.000 HD
BRANCH   9  12
ATOM     12  C   UNL     1      48.909   6.248  16.019  0.00  0.00    +0.000 A 
ATOM     13  C   UNL     1      49.627   7.164  16.776  0.00  0.00    +0.000 A 
ATOM     14  S   UNL     1      49.985   6.612  18.348  0.00  0.00    +0.000 S 
ATOM     15  C   UNL     1      49.159   5.149  18.086  0.00  0.00    +0.000 A 
ATOM     16  N   UNL     1      49.063   4.213  19.070  0.00  0.00    +0.000 NA
ATOM     17  C   UNL     1      48.380   3.166  18.747  0.00  0.00    +0.000 A 
ATOM     18  N   UNL     1      47.796   2.961  17.523  0.00  0.00    +0.000 N 
ATOM     19  C   UNL     1      47.930   3.840  16.477  0.00  0.00    +0.000 A 
ATOM     20  O   UNL     1      47.504   3.560  15.362  0.00  0.00    +0.000 OA
ATOM     21  C   UNL     1      48.646   5.061  16.806  0.00  0.00    +0.000 A 
ATOM     22  H   UNL     1      47.304   2.103  17.324  0.00  0.00    +0.000 HD
ENDBRANCH   9  12
ENDBRANCH   7  10
ENDBRANCH   1   7
BRANCH   4  23
ATOM     23  C   UNL     1      43.734   4.081  10.188  0.00  0.00    +0.000 C 
BRANCH  23  24
ATOM     24  N   UNL     1      43.722   4.472   8.774  0.00  0.00    +0.000 NA
ATOM     25  H   UNL     1      44.109   5.407   8.690  0.00  0.00    +0.000 HD
BRANCH  24  26
ATOM     26  C   UNL     1      44.449   3.535   7.917  0.00  0.00    +0.000 C 
BRANCH  26  27
ATOM     27  C   UNL     1      45.930   3.380   8.324  0.00  0.00    +0.000 C 
ATOM     28  C   UNL     1      46.845   3.816   7.165  0.00  0.00    +0.000 C 
ATOM     29  C   UNL     1      46.822   2.817   6.003  0.00  0.00    +0.000 C 
ATOM     30  N   UNL     1      47.166   1.462   6.434  0.00  0.00    +0.000 NA
ATOM     31  C   UNL     1      46.297   0.995   7.515  0.00  0.00    +0.000 C 
ATOM     32  C   UNL     1      46.316   1.942   8.715  0.00  0.00    +0.000 C 
ATOM     33  H   UNL     1      48.131   1.463   6.771  0.00  0.00    +0.000 HD
ENDBRANCH  26  27
ENDBRANCH  24  26
ENDBRANCH  23  24
ENDBRANCH   4  23
TORSDOF 7
ENDMDL
MODEL 3
REMARK VINA RESULT:    -7.587      2.088      2.625
REMARK INTER + INTRA:         -11.016
REMARK INTER:                 -10.403
REMARK INTRA:                  -0.613
REMARK UNBOUND:                -0.324
REMARK  Name = 
REMARK  7 active torsions:
REMARK  status: ('A' for Active; 'I' for Inactive)
REMARK    1  A    between atoms: C_2  and  C_20
REMARK    2  A    between atoms: N_3  and  C_4
REMARK    3  A    between atoms: C_4  and  C_5
REMARK    4  A    between atoms: C_8  and  C_9
REMARK    5  A    between atoms: C_9  and  N_10
REMARK    6  A    between atoms: N_10  and  C_11
REMARK    7  A    between atoms: C_11  and  C_12
REMARK                            x       y       z     vdW  Elec       q    Type
REMARK                         _______ _______ _______ _____ _____    ______ ____
ROOT
ATOM      1  C   UNL     1      46.124   4.335  12.554  0.00  0.00    +0.000 C 
ATOM      2  C   UNL     1      45.352   3.116  12.018  0.00  0.00    +0.000 C 
ATOM      3  C   UNL     1      43.923   3.447  11.599  0.00  0.00    +0.000 C 
ATOM      4  C   UNL     1      43.831   4.641  10.634  0.00  0.00    +0.000 C 
ATOM      5  C   UNL     1      44.601   5.849  11.186  0.00  0.00    +0.000 C 
ATOM      6  C   UNL     1      46.037   5.514  11.577  0.00  0.00    +0.000 C 
ENDROOT
BRANCH   1   7
ATOM      7  C   UNL     1      45.644   4.771  13.948  0.00  0.00    +0.000 C 
BRANCH   7  10
ATOM      8  O   UNL     1      47.132   3.519  15.998  0.00  0.00    +0.000 OA
ATOM      9  C   UNL     1      47.390   4.681  15.697  0.00  0.00    +0.000 C 
ATOM     10  N   UNL     1      46.702   5.361  14.726  0.00  0.00    +0.000 N 
ATOM     11  H   UNL     1      46.978   6.304  14.476  0.00  0.00    +0.000 HD
BRANCH   9  12
ATOM     12  C   UNL     1      48.432   5.444  16.389  0.00  0.00    +0.000 A 
ATOM     13  C   UNL     1      48.606   5.290  17.757  0.00  0.00    +0.000 A 
ATOM     14  S   UNL     1      49.859   6.254  18.395  0.00  0.00    +0.000 S 
ATOM     15  C   UNL     1      50.239   6.879  16.860  0.00  0.00    +0.000 A 
ATOM     16  N   UNL     1      51.261   7.764  16.698  0.00  0.00    +0.000 NA
ATOM     17  C   UNL     1      51.462   8.130  15.476  0.00  0.00    +0.000 A 
ATOM     18  N   UNL     1      50.723   7.705  14.401  0.00  0.00    +0.000 N 
ATOM     19  C   UNL     1      49.637   6.874  14.526  0.00  0.00    +0.000 A 
ATOM     20  O   UNL     1      48.925   6.621  13.560  0.00  0.00    +0.000 OA
ATOM     21  C   UNL     1      49.401   6.391  15.876  0.00  0.00    +0.000 A 
ATOM     22  H   UNL     1      50.910   8.058  13.475  0.00  0.00    +0.000 HD
ENDBRANCH   9  12
ENDBRANCH   7  10
ENDBRANCH   1   7
BRANCH   4  23
ATOM     23  C   UNL     1      44.284   4.311   9.189  0.00  0.00    +0.000 C 
BRANCH  23  24
ATOM     24  N   UNL     1      45.444   5.065   8.701  0.00  0.00    +0.000 NA
ATOM     25  H   UNL     1      45.858   5.567   9.480  0.00  0.00    +0.000 HD
BRANCH  24  26
ATOM     26  C   UNL     1      46.440   4.218   8.045  0.00  0.00    +0.000 C 
BRANCH  26  27
ATOM     27  C   UNL     1      45.805   3.168   7.108  0.00  0.00    +0.000 C 
ATOM     28  C   UNL     1      45.955   1.760   7.713  0.00  0.00    +0.000 C 
ATOM     29  C   UNL     1      47.404   1.262   7.667  0.00  0.00    +0.000 C 
ATOM     30  N   UNL     1      47.953   1.288   6.311  0.00  0.00    +0.000 NA
ATOM     31  C   UNL     1      47.860   2.619   5.709  0.00  0.00    +0.000 C 
ATOM     32  C   UNL     1      46.424   3.144   5.698  0.00  0.00    +0.000 C 
ATOM     33  H   UNL     1      47.423   0.633   5.732  0.00  0.00    +0.000 HD
ENDBRANCH  26  27
ENDBRANCH  24  26
ENDBRANCH  23  24
ENDBRANCH   4  23
TORSDOF 7
ENDMDL
MODEL 4
REMARK VINA RESULT:    -7.579      3.643      9.023
REMARK INTER + INTRA:         -11.004
REMARK INTER:                  -9.780
REMARK INTRA:                  -1.224
REMARK UNBOUND:                -0.324
REMARK  Name = 
REMARK  7 active torsions:
REMARK  status: ('A' for Active; 'I' for Inactive)
REMARK    1  A    between atoms: C_2  and  C_20
REMARK    2  A    between atoms: N_3  and  C_4
REMARK    3  A    between atoms: C_4  and  C_5
REMARK    4  A    between atoms: C_8  and  C_9
REMARK    5  A    between atoms: C_9  and  N_10
REMARK    6  A    between atoms: N_10  and  C_11
REMARK    7  A    between atoms: C_11  and  C_12
REMARK                            x       y       z     vdW  Elec       q    Type
REMARK                         _______ _______ _______ _____ _____    ______ ____
ROOT
ATOM      1  C   UNL     1      48.219   8.032  12.198  0.00  0.00    +0.000 C 
ATOM      2  C   UNL     1      48.682   9.143  13.157  0.00  0.00    +0.000 C 
ATOM      3  C   UNL     1      48.278   8.891  14.607  0.00  0.00    +0.000 C 
ATOM      4  C   UNL     1      48.684   7.499  15.120  0.00  0.00    +0.000 C 
ATOM      5  C   UNL     1      48.212   6.403  14.155  0.00  0.00    +0.000 C 
ATOM      6  C   UNL     1      48.643   6.650  12.712  0.00  0.00    +0.000 C 
ENDROOT
BRANCH   1   7
ATOM      7  C   UNL     1      46.702   8.059  11.950  0.00  0.00    +0.000 C 
BRANCH   7  10
ATOM      8  O   UNL     1      43.989   7.382  11.551  0.00  0.00    +0.000 OA
ATOM      9  C   UNL     1      44.841   6.501  11.479  0.00  0.00    +0.000 C 
ATOM     10  N   UNL     1      46.174   6.748  11.676  0.00  0.00    +0.000 N 
ATOM     11  H   UNL     1      46.851   6.000  11.562  0.00  0.00    +0.000 HD
BRANCH   9  12
ATOM     12  C   UNL     1      44.486   5.104  11.216  0.00  0.00    +0.000 A 
ATOM     13  C   UNL     1      43.674   4.419  12.109  0.00  0.00    +0.000 A 
ATOM     14  S   UNL     1      43.367   2.806  11.648  0.00  0.00    +0.000 S 
ATOM     15  C   UNL     1      44.273   2.981  10.220  0.00  0.00    +0.000 A 
ATOM     16  N   UNL     1      44.393   1.951   9.337  0.00  0.00    +0.000 NA
ATOM     17  C   UNL     1      45.079   2.231   8.279  0.00  0.00    +0.000 A 
ATOM     18  N   UNL     1      45.671   3.444   8.029  0.00  0.00    +0.000 N 
ATOM     19  C   UNL     1      45.641   4.485   8.924  0.00  0.00    +0.000 A 
ATOM     20  O   UNL     1      46.290   5.506   8.722  0.00  0.00    +0.000 OA
ATOM     21  C   UNL     1      44.835   4.238  10.108  0.00  0.00    +0.000 A 
ATOM     22  H   UNL     1      46.224   3.586   7.198  0.00  0.00    +0.000 HD
ENDBRANCH   9  12
ENDBRANCH   7  10
ENDBRANCH   1   7
BRANCH   4  23
ATOM     23  C   UNL     1      50.200   7.362  15.413  0.00  0.00    +0.000 C 
BRANCH  23  24
ATOM     24  N   UNL     1      50.582   6.213  16.243  0.00  0.00    +0.000 NA
ATOM     25  H   UNL     1      51.595   6.138  16.249  0.00  0.00    +0.000 HD
BRANCH  24  26
ATOM     26  C   UNL     1      50.063   6.297  17.607  0.00  0.00    +0.000 C 
BRANCH  26  27
ATOM     27  C   UNL     1      49.762   4.911  18.217  0.00  0.00    +0.000 C 
ATOM     28  C   UNL     1      48.887   4.088  17.254  0.00  0.00    +0.000 C 
ATOM     29  C   UNL     1      47.452   4.620  17.178  0.00  0.00    +0.000 C 
ATOM     30  N   UNL     1      46.820   4.691  18.496  0.00  0.00    +0.000 NA
ATOM     31  C   UNL     1      47.604   5.494  19.435  0.00  0.00    +0.000 C 
ATOM     32  C   UNL     1      49.037   4.976  19.574  0.00  0.00    +0.000 C 
ATOM     33  H   UNL     1      46.738   3.743  18.869  0.00  0.00    +0.000 HD
ENDBRANCH  26  27
ENDBRANCH  24  26
ENDBRANCH  23  24
ENDBRANCH   4  23
TORSDOF 7
ENDMDL
MODEL 5
REMARK VINA RESULT:    -7.408      2.575      3.534
REMARK INTER + INTRA:         -10.763
REMARK INTER:                  -9.765
REMARK INTRA:                  -0.998
REMARK UNBOUND:                -0.324
REMARK  Name = 
REMARK  7 active torsions:
REMARK  status: ('A' for Active; 'I' for Inactive)
REMARK    1  A    between atoms: C_2  and  C_20
REMARK    2  A    between atoms: N_3  and  C_4
REMARK    3  A    between atoms: C_4  and  C_5
REMARK    4  A    between atoms: C_8  and  C_9
REMARK    5  A    between atoms: C_9  and  N_10
REMARK    6  A    between atoms: N_10  and  C_11
REMARK    7  A    between atoms: C_11  and  C_12
REMARK                            x       y       z     vdW  Elec       q    Type
REMARK                         _______ _______ _______ _____ _____    ______ ____
ROOT
ATOM      1  C   UNL     1      47.563   6.251  12.760  0.00  0.00    +0.000 C 
ATOM      2  C   UNL     1      46.799   5.033  13.308  0.00  0.00    +0.000 C 
ATOM      3  C   UNL     1      45.289   5.248  13.367  0.00  0.00    +0.000 C 
ATOM      4  C   UNL     1      44.691   5.737  12.036  0.00  0.00    +0.000 C 
ATOM      5  C   UNL     1      45.461   6.954  11.506  0.00  0.00    +0.000 C 
ATOM      6  C   UNL     1      46.967   6.720  11.426  0.00  0.00    +0.000 C 
ENDROOT
BRANCH   1   7
ATOM      7  C   UNL     1      47.606   7.420  13.757  0.00  0.00    +0.000 C 
BRANCH   7  10
ATOM      8  O   UNL     1      50.137   6.921  14.906  0.00  0.00    +0.000 OA
ATOM      9  C   UNL     1      49.130   6.771  15.592  0.00  0.00    +0.000 C 
ATOM     10  N   UNL     1      47.867   6.978  15.101  0.00  0.00    +0.000 N 
ATOM     11  H   UNL     1      47.064   6.888  15.715  0.00  0.00    +0.000 HD
BRANCH   9  12
ATOM     12  C   UNL     1      49.204   6.317  16.984  0.00  0.00    +0.000 A 
ATOM     13  C   UNL     1      49.758   5.079  17.276  0.00  0.00    +0.000 A 
ATOM     14  S   UNL     1      49.759   4.712  18.941  0.00  0.00    +0.000 S 
ATOM     15  C   UNL     1      49.059   6.211  19.331  0.00  0.00    +0.000 A 
ATOM     16  N   UNL     1      48.812   6.552  20.626  0.00  0.00    +0.000 NA
ATOM     17  C   UNL     1      48.310   7.732  20.782  0.00  0.00    +0.000 A 
ATOM     18  N   UNL     1      48.018   8.598  19.759  0.00  0.00    +0.000 N 
ATOM     19  C   UNL     1      48.179   8.269  18.436  0.00  0.00    +0.000 A 
ATOM     20  O   UNL     1      47.786   9.019  17.549  0.00  0.00    +0.000 OA
ATOM     21  C   UNL     1      48.791   6.970  18.208  0.00  0.00    +0.000 A 
ATOM     22  H   UNL     1      47.594   9.493  19.947  0.00  0.00    +0.000 HD
ENDBRANCH   9  12
ENDBRANCH   7  10
ENDBRANCH   1   7
BRANCH   4  23
ATOM     23  C   UNL     1      44.592   4.631  10.955  0.00  0.00    +0.000 C 
BRANCH  23  24
ATOM     24  N   UNL     1      44.578   5.104   9.566  0.00  0.00    +0.000 NA
ATOM     25  H   UNL     1      44.603   6.119   9.566  0.00  0.00    +0.000 HD
BRANCH  24  26
ATOM     26  C   UNL     1      45.677   4.561   8.769  0.00  0.00    +0.000 C 
BRANCH  26  27
ATOM     27  C   UNL     1      45.188   3.676   7.602  0.00  0.00    +0.000 C 
ATOM     28  C   UNL     1      44.654   2.337   8.143  0.00  0.00    +0.000 C 
ATOM     29  C   UNL     1      45.778   1.432   8.660  0.00  0.00    +0.000 C 
ATOM     30  N   UNL     1      46.804   1.192   7.645  0.00  0.00    +0.000 NA
ATOM     31  C   UNL     1      47.363   2.442   7.126  0.00  0.00    +0.000 C 
ATOM     32  C   UNL     1      46.281   3.363   6.563  0.00  0.00    +0.000 C 
ATOM     33  H   UNL     1      46.381   0.680   6.868  0.00  0.00    +0.000 HD
ENDBRANCH  26  27
ENDBRANCH  24  26
ENDBRANCH  23  24
ENDBRANCH   4  23
TORSDOF 7
ENDMDL
MODEL 6
REMARK VINA RESULT:    -6.968      3.863      9.116
REMARK INTER + INTRA:         -10.143
REMARK INTER:                  -8.835
REMARK INTRA:                  -1.308
REMARK UNBOUND:                -0.324
REMARK  Name = 
REMARK  7 active torsions:
REMARK  status: ('A' for Active; 'I' for Inactive)
REMARK    1  A    between atoms: C_2  and  C_20
REMARK    2  A    between atoms: N_3  and  C_4
REMARK    3  A    between atoms: C_4  and  C_5
REMARK    4  A    between atoms: C_8  and  C_9
REMARK    5  A    between atoms: C_9  and  N_10
REMARK    6  A    between atoms: N_10  and  C_11
REMARK    7  A    between atoms: C_11  and  C_12
REMARK                            x       y       z     vdW  Elec       q    Type
REMARK                         _______ _______ _______ _____ _____    ______ ____
ROOT
ATOM      1  C   UNL     1      49.487   7.384  13.111  0.00  0.00    +0.000 C 
ATOM      2  C   UNL     1      50.570   8.402  13.507  0.00  0.00    +0.000 C 
ATOM      3  C   UNL     1      50.023   9.579  14.310  0.00  0.00    +0.000 C 
ATOM      4  C   UNL     1      49.182   9.150  15.524  0.00  0.00    +0.000 C 
ATOM      5  C   UNL     1      48.104   8.139  15.111  0.00  0.00    +0.000 C 
ATOM      6  C   UNL     1      48.664   6.953  14.332  0.00  0.00    +0.000 C 
ENDROOT
BRANCH   1   7
ATOM      7  C   UNL     1      48.554   7.911  12.008  0.00  0.00    +0.000 C 
BRANCH   7  10
ATOM      8  O   UNL     1      45.733   7.854  11.877  0.00  0.00    +0.000 OA
ATOM      9  C   UNL     1      46.372   6.921  11.400  0.00  0.00    +0.000 C 
ATOM     10  N   UNL     1      47.741   6.868  11.440  0.00  0.00    +0.000 N 
ATOM     11  H   UNL     1      48.232   6.101  10.994  0.00  0.00    +0.000 HD
BRANCH   9  12
ATOM     12  C   UNL     1      45.710   5.766  10.787  0.00  0.00    +0.000 A 
ATOM     13  C   UNL     1      45.866   5.522   9.429  0.00  0.00    +0.000 A 
ATOM     14  S   UNL     1      45.025   4.142   8.887  0.00  0.00    +0.000 S 
ATOM     15  C   UNL     1      44.460   3.799  10.453  0.00  0.00    +0.000 A 
ATOM     16  N   UNL     1      43.684   2.706  10.694  0.00  0.00    +0.000 NA
ATOM     17  C   UNL     1      43.354   2.547  11.932  0.00  0.00    +0.000 A 
ATOM     18  N   UNL     1      43.714   3.391  12.952  0.00  0.00    +0.000 N 
ATOM     19  C   UNL     1      44.430   4.544  12.746  0.00  0.00    +0.000 A 
ATOM     20  O   UNL     1      44.621   5.338  13.661  0.00  0.00    +0.000 OA
ATOM     21  C   UNL     1      44.872   4.742  11.375  0.00  0.00    +0.000 A 
ATOM     22  H   UNL     1      43.393   3.228  13.893  0.00  0.00    +0.000 HD
ENDBRANCH   9  12
ENDBRANCH   7  10
ENDBRANCH   1   7
BRANCH   4  23
ATOM     23  C   UNL     1      50.025   8.608  16.705  0.00  0.00    +0.000 C 
BRANCH  23  24
ATOM     24  N   UNL     1      49.269   8.243  17.908  0.00  0.00    +0.000 NA
ATOM     25  H   UNL     1      48.293   8.487  17.767  0.00  0.00    +0.000 HD
BRANCH  24  26
ATOM     26  C   UNL     1      49.401   6.828  18.257  0.00  0.00    +0.000 C 
BRANCH  26  27
ATOM     27  C   UNL     1      48.037   6.117  18.394  0.00  0.00    +0.000 C 
ATOM     28  C   UNL     1      47.733   5.838  19.877  0.00  0.00    +0.000 C 
ATOM     29  C   UNL     1      48.626   4.732  20.452  0.00  0.00    +0.000 C 
ATOM     30  N   UNL     1      48.537   3.494  19.677  0.00  0.00    +0.000 NA
ATOM     31  C   UNL     1      48.852   3.709  18.264  0.00  0.00    +0.000 C 
ATOM     32  C   UNL     1      47.959   4.780  17.635  0.00  0.00    +0.000 C 
ATOM     33  H   UNL     1      47.583   3.134  19.746  0.00  0.00    +0.000 HD
ENDBRANCH  26  27
ENDBRANCH  24  26
ENDBRANCH  23  24
ENDBRANCH   4  23
TORSDOF 7
ENDMDL
MODEL 7
REMARK VINA RESULT:    -6.908      4.052      9.509
REMARK INTER + INTRA:         -10.059
REMARK INTER:                  -8.581
REMARK INTRA:                  -1.478
REMARK UNBOUND:                -0.324
REMARK  Name = 
REMARK  7 active torsions:
REMARK  status: ('A' for Active; 'I' for Inactive)
REMARK    1  A    between atoms: C_2  and  C_20
REMARK    2  A    between atoms: N_3  and  C_4
REMARK    3  A    between atoms: C_4  and  C_5
REMARK    4  A    between atoms: C_8  and  C_9
REMARK    5  A    between atoms: C_9  and  N_10
REMARK    6  A    between atoms: N_10  and  C_11
REMARK    7  A    between atoms: C_11  and  C_12
REMARK                            x       y       z     vdW  Elec       q    Type
REMARK                         _______ _______ _______ _____ _____    ______ ____
ROOT
ATOM      1  C   UNL     1      48.789   4.042  16.943  0.00  0.00    +0.000 C 
ATOM      2  C   UNL     1      49.014   5.565  16.960  0.00  0.00    +0.000 C 
ATOM      3  C   UNL     1      48.375   6.252  18.164  0.00  0.00    +0.000 C 
ATOM      4  C   UNL     1      48.760   5.610  19.508  0.00  0.00    +0.000 C 
ATOM      5  C   UNL     1      48.526   4.093  19.474  0.00  0.00    +0.000 C 
ATOM      6  C   UNL     1      49.190   3.412  18.282  0.00  0.00    +0.000 C 
ENDROOT
BRANCH   1   7
ATOM      7  C   UNL     1      47.341   3.662  16.595  0.00  0.00    +0.000 C 
BRANCH   7  10
ATOM      8  O   UNL     1      47.225   3.270  13.800  0.00  0.00    +0.000 OA
ATOM      9  C   UNL     1      46.732   4.286  14.282  0.00  0.00    +0.000 C 
ATOM     10  N   UNL     1      46.763   4.555  15.625  0.00  0.00    +0.000 N 
ATOM     11  H   UNL     1      46.304   5.384  15.987  0.00  0.00    +0.000 HD
BRANCH   9  12
ATOM     12  C   UNL     1      46.107   5.313  13.443  0.00  0.00    +0.000 A 
ATOM     13  C   UNL     1      46.804   6.474  13.140  0.00  0.00    +0.000 A 
ATOM     14  S   UNL     1      45.926   7.557  12.159  0.00  0.00    +0.000 S 
ATOM     15  C   UNL     1      44.602   6.495  12.071  0.00  0.00    +0.000 A 
ATOM     16  N   UNL     1      43.495   6.814  11.345  0.00  0.00    +0.000 NA
ATOM     17  C   UNL     1      42.580   5.903  11.337  0.00  0.00    +0.000 A 
ATOM     18  N   UNL     1      42.662   4.706  12.003  0.00  0.00    +0.000 N 
ATOM     19  C   UNL     1      43.723   4.374  12.808  0.00  0.00    +0.000 A 
ATOM     20  O   UNL     1      43.701   3.354  13.488  0.00  0.00    +0.000 OA
ATOM     21  C   UNL     1      44.805   5.344  12.809  0.00  0.00    +0.000 A 
ATOM     22  H   UNL     1      41.895   4.052  11.984  0.00  0.00    +0.000 HD
ENDBRANCH   9  12
ENDBRANCH   7  10
ENDBRANCH   1   7
BRANCH   4  23
ATOM     23  C   UNL     1      50.205   5.937  19.962  0.00  0.00    +0.000 C 
BRANCH  23  24
ATOM     24  N   UNL     1      50.668   7.299  19.670  0.00  0.00    +0.000 NA
ATOM     25  H   UNL     1      50.936   7.746  20.542  0.00  0.00    +0.000 HD
BRANCH  24  26
ATOM     26  C   UNL     1      51.772   7.332  18.712  0.00  0.00    +0.000 C 
BRANCH  26  27
ATOM     27  C   UNL     1      52.494   5.973  18.586  0.00  0.00    +0.000 C 
ATOM     28  C   UNL     1      53.897   6.059  19.215  0.00  0.00    +0.000 C 
ATOM     29  C   UNL     1      54.857   6.906  18.373  0.00  0.00    +0.000 C 
ATOM     30  N   UNL     1      54.952   6.426  16.994  0.00  0.00    +0.000 NA
ATOM     31  C   UNL     1      53.640   6.361  16.346  0.00  0.00    +0.000 C 
ATOM     32  C   UNL     1      52.657   5.493  17.132  0.00  0.00    +0.000 C 
ATOM     33  H   UNL     1      55.356   5.488  17.003  0.00  0.00    +0.000 HD
ENDBRANCH  26  27
ENDBRANCH  24  26
ENDBRANCH  23  24
ENDBRANCH   4  23
TORSDOF 7
ENDMDL
MODEL 8
REMARK VINA RESULT:    -6.907      2.936      4.427
REMARK INTER + INTRA:         -10.057
REMARK INTER:                  -8.851
REMARK INTRA:                  -1.206
REMARK UNBOUND:                -0.324
REMARK  Name = 
REMARK  7 active torsions:
REMARK  status: ('A' for Active; 'I' for Inactive)
REMARK    1  A    between atoms: C_2  and  C_20
REMARK    2  A    between atoms: N_3  and  C_4
REMARK    3  A    between atoms: C_4  and  C_5
REMARK    4  A    between atoms: C_8  and  C_9
REMARK    5  A    between atoms: C_9  and  N_10
REMARK    6  A    between atoms: N_10  and  C_11
REMARK    7  A    between atoms: C_11  and  C_12
REMARK                            x       y       z     vdW  Elec       q    Type
REMARK                         _______ _______ _______ _____ _____    ______ ____
ROOT
ATOM      1  C   UNL     1      49.066   7.442  12.466  0.00  0.00    +0.000 C 
ATOM      2  C   UNL     1      47.755   6.859  13.024  0.00  0.00    +0.000 C 
ATOM      3  C   UNL     1      46.843   7.917  13.640  0.00  0.00    +0.000 C 
ATOM      4  C   UNL     1      46.577   9.111  12.707  0.00  0.00    +0.000 C 
ATOM      5  C   UNL     1      47.894   9.682  12.163  0.00  0.00    +0.000 C 
ATOM      6  C   UNL     1      48.788   8.622  11.527  0.00  0.00    +0.000 C 
ENDROOT
BRANCH   1   7
ATOM      7  C   UNL     1      50.041   7.871  13.575  0.00  0.00    +0.000 C 
BRANCH   7  10
ATOM      8  O   UNL     1      49.254   8.537  16.205  0.00  0.00    +0.000 OA
ATOM      9  C   UNL     1      49.587   7.382  15.955  0.00  0.00    +0.000 C 
ATOM     10  N   UNL     1      49.997   6.986  14.709  0.00  0.00    +0.000 N 
ATOM     11  H   UNL     1      50.219   6.012  14.534  0.00  0.00    +0.000 HD
BRANCH   9  12
ATOM     12  C   UNL     1      49.610   6.345  16.991  0.00  0.00    +0.000 A 
ATOM     13  C   UNL     1      50.439   6.492  18.094  0.00  0.00    +0.000 A 
ATOM     14  S   UNL     1      50.341   5.192  19.194  0.00  0.00    +0.000 S 
ATOM     15  C   UNL     1      49.159   4.411  18.254  0.00  0.00    +0.000 A 
ATOM     16  N   UNL     1      48.615   3.229  18.656  0.00  0.00    +0.000 NA
ATOM     17  C   UNL     1      47.705   2.764  17.866  0.00  0.00    +0.000 A 
ATOM     18  N   UNL     1      47.299   3.364  16.702  0.00  0.00    +0.000 N 
ATOM     19  C   UNL     1      47.872   4.515  16.219  0.00  0.00    +0.000 A 
ATOM     20  O   UNL     1      47.572   4.950  15.112  0.00  0.00    +0.000 OA
ATOM     21  C   UNL     1      48.865   5.108  17.098  0.00  0.00    +0.000 A 
ATOM     22  H   UNL     1      46.607   2.930  16.111  0.00  0.00    +0.000 HD
ENDBRANCH   9  12
ENDBRANCH   7  10
ENDBRANCH   1   7
BRANCH   4  23
ATOM     23  C   UNL     1      45.594   8.791  11.552  0.00  0.00    +0.000 C 
BRANCH  23  24
ATOM     24  N   UNL     1      44.434   7.970  11.917  0.00  0.00    +0.000 NA
ATOM     25  H   UNL     1      43.589   8.443  11.609  0.00  0.00    +0.000 HD
BRANCH  24  26
ATOM     26  C   UNL     1      44.497   6.617  11.365  0.00  0.00    +0.000 C 
BRANCH  26  27
ATOM     27  C   UNL     1      43.688   5.596  12.194  0.00  0.00    +0.000 C 
ATOM     28  C   UNL     1      44.614   4.869  13.187  0.00  0.00    +0.000 C 
ATOM     29  C   UNL     1      45.562   3.892  12.484  0.00  0.00    +0.000 C 
ATOM     30  N   UNL     1      44.842   2.919  11.662  0.00  0.00    +0.000 NA
ATOM     31  C   UNL     1      43.974   3.569  10.680  0.00  0.00    +0.000 C 
ATOM     32  C   UNL     1      42.981   4.528  11.339  0.00  0.00    +0.000 C 
ATOM     33  H   UNL     1      44.263   2.341  12.274  0.00  0.00    +0.000 HD
ENDBRANCH  26  27
ENDBRANCH  24  26
ENDBRANCH  23  24
ENDBRANCH   4  23
TORSDOF 7
ENDMDL
MODEL 9
REMARK VINA RESULT:    -6.813      3.493      9.128
REMARK INTER + INTRA:          -9.925
REMARK INTER:                  -8.427
REMARK INTRA:                  -1.498
REMARK UNBOUND:                -0.324
REMARK  Name = 
REMARK  7 active torsions:
REMARK  status: ('A' for Active; 'I' for Inactive)
REMARK    1  A    between atoms: C_2  and  C_20
REMARK    2  A    between atoms: N_3  and  C_4
REMARK    3  A    between atoms: C_4  and  C_5
REMARK    4  A    between atoms: C_8  and  C_9
REMARK    5  A    between atoms: C_9  and  N_10
REMARK    6  A    between atoms: N_10  and  C_11
REMARK    7  A    between atoms: C_11  and  C_12
REMARK                            x       y       z     vdW  Elec       q    Type
REMARK                         _______ _______ _______ _____ _____    ______ ____
ROOT
ATOM      1  C   UNL     1      49.712   5.881  16.514  0.00  0.00    +0.000 C 
ATOM      2  C   UNL     1      51.153   6.173  16.970  0.00  0.00    +0.000 C 
ATOM      3  C   UNL     1      51.222   6.918  18.300  0.00  0.00    +0.000 C 
ATOM      4  C   UNL     1      50.402   6.250  19.417  0.00  0.00    +0.000 C 
ATOM      5  C   UNL     1      48.967   5.970  18.947  0.00  0.00    +0.000 C 
ATOM      6  C   UNL     1      48.909   5.202  17.630  0.00  0.00    +0.000 C 
ENDROOT
BRANCH   1   7
ATOM      7  C   UNL     1      48.979   7.143  16.030  0.00  0.00    +0.000 C 
BRANCH   7  10
ATOM      8  O   UNL     1      49.117   7.195  13.209  0.00  0.00    +0.000 OA
ATOM      9  C   UNL     1      48.064   6.866  13.750  0.00  0.00    +0.000 C 
ATOM     10  N   UNL     1      47.915   6.833  15.111  0.00  0.00    +0.000 N 
ATOM     11  H   UNL     1      47.043   6.512  15.518  0.00  0.00    +0.000 HD
BRANCH   9  12
ATOM     12  C   UNL     1      46.871   6.525  12.971  0.00  0.00    +0.000 A 
ATOM     13  C   UNL     1      46.214   7.510  12.247  0.00  0.00    +0.000 A 
ATOM     14  S   UNL     1      44.847   6.937  11.405  0.00  0.00    +0.000 S 
ATOM     15  C   UNL     1      45.110   5.346  11.945  0.00  0.00    +0.000 A 
ATOM     16  N   UNL     1      44.289   4.331  11.558  0.00  0.00    +0.000 NA
ATOM     17  C   UNL     1      44.623   3.170  12.013  0.00  0.00    +0.000 A 
ATOM     18  N   UNL     1      45.695   2.931  12.835  0.00  0.00    +0.000 N 
ATOM     19  C   UNL     1      46.504   3.933  13.313  0.00  0.00    +0.000 A 
ATOM     20  O   UNL     1      47.371   3.696  14.147  0.00  0.00    +0.000 OA
ATOM     21  C   UNL     1      46.202   5.253  12.787  0.00  0.00    +0.000 A 
ATOM     22  H   UNL     1      45.881   2.004  13.184  0.00  0.00    +0.000 HD
ENDBRANCH   9  12
ENDBRANCH   7  10
ENDBRANCH   1   7
BRANCH   4  23
ATOM     23  C   UNL     1      51.057   4.966  19.987  0.00  0.00    +0.000 C 
BRANCH  23  24
ATOM     24  N   UNL     1      52.502   4.841  19.765  0.00  0.00    +0.000 NA
ATOM     25  H   UNL     1      52.989   5.163  20.596  0.00  0.00    +0.000 HD
BRANCH  24  26
ATOM     26  C   UNL     1      52.910   3.478  19.424  0.00  0.00    +0.000 C 
BRANCH  26  27
ATOM     27  C   UNL     1      53.019   3.252  17.901  0.00  0.00    +0.000 C 
ATOM     28  C   UNL     1      51.744   2.566  17.377  0.00  0.00    +0.000 C 
ATOM     29  C   UNL     1      51.651   1.102  17.819  0.00  0.00    +0.000 C 
ATOM     30  N   UNL     1      52.833   0.332  17.430  0.00  0.00    +0.000 NA
ATOM     31  C   UNL     1      54.068   0.933  17.938  0.00  0.00    +0.000 C 
ATOM     32  C   UNL     1      54.224   2.386  17.490  0.00  0.00    +0.000 C 
ATOM     33  H   UNL     1      52.882   0.303  16.410  0.00  0.00    +0.000 HD
ENDBRANCH  26  27
ENDBRANCH  24  26
ENDBRANCH  23  24
ENDBRANCH   4  23
TORSDOF 7
ENDMDL
