MODEL 1
REMARK VINA RESULT:    -8.912      0.000      0.000
REMARK INTER + INTRA:         -11.883
REMARK INTER:                 -11.257
REMARK INTRA:                  -0.626
REMARK UNBOUND:                -0.626
REMARK  Name = 
REMARK  5 active torsions:
REMARK  status: ('A' for Active; 'I' for Inactive)
REMARK    1  A    between atoms: O_1  and  C_2
REMARK    2  A    between atoms: C_5  and  O_6
REMARK    3  A    between atoms: O_6  and  C_7
REMARK    4  A    between atoms: C_7  and  C_8
REMARK    5  A    between atoms: C_12  and  C_13
REMARK                            x       y       z     vdW  Elec       q    Type
REMARK                         _______ _______ _______ _____ _____    ______ ____
ROOT
ATOM      1  C   UNL     1      44.230   3.961  11.483  0.00  0.00    +0.000 A 
ATOM      2  C   UNL     1      43.253   3.976  12.453  0.00  0.00    +0.000 A 
ATOM      3  N   UNL     1      43.122   5.007  13.307  0.00  0.00    +0.000 NA
ATOM      4  N   UNL     1      43.984   6.044  13.185  0.00  0.00    +0.000 NA
ATOM      5  C   UNL     1      44.940   6.004  12.228  0.00  0.00    +0.000 A 
ATOM      6  N   UNL     1      45.102   4.986  11.359  0.00  0.00    +0.000 NA
ENDROOT
BRANCH   5   7
ATOM      7  C   UNL     1      45.894   7.122  12.166  0.00  0.00    +0.000 A 
ATOM      8  C   UNL     1      45.487   8.448  12.398  0.00  0.00    +0.000 A 
ATOM      9  C   UNL     1      46.400   9.503  12.369  0.00  0.00    +0.000 A 
ATOM     10  C   UNL     1      47.748   9.255  12.096  0.00  0.00    +0.000 A 
ATOM     11 CL   UNL     1      48.828  10.601  12.093  0.00  0.00    +0.000 Cl
ATOM     12  C   UNL     1      48.173   7.950  11.841  0.00  0.00    +0.000 A 
ATOM     13 CL   UNL     1      49.813   7.565  11.457  0.00  0.00    +0.000 Cl
ATOM     14  C   UNL     1      47.254   6.896  11.884  0.00  0.00    +0.000 A 
ENDBRANCH   5   7
BRANCH   1  15
ATOM     15  C   UNL     1      44.372   2.768  10.569  0.00  0.00    +0.000 C 
BRANCH  15  16
ATOM     16  O   UNL     1      44.249   3.165   9.205  0.00  0.00    +0.000 OA
BRANCH  16  20
ATOM     17  C   UNL     1      47.475   2.059   6.802  0.00  0.00    +0.000 A 
ATOM     18  C   UNL     1      47.037   3.375   6.737  0.00  0.00    +0.000 A 
ATOM     19  C   UNL     1      45.953   3.786   7.527  0.00  0.00    +0.000 A 
ATOM     20  C   UNL     1      45.310   2.882   8.381  0.00  0.00    +0.000 A 
ATOM     21  C   UNL     1      45.761   1.561   8.434  0.00  0.00    +0.000 A 
ATOM     22  C   UNL     1      46.838   1.155   7.649  0.00  0.00    +0.000 A 
ATOM     23  F   UNL     1      47.253  -0.118   7.720  0.00  0.00    +0.000 F 
BRANCH  17  24
ATOM     24  O   UNL     1      48.529   1.631   6.044  0.00  0.00    +0.000 OA
ATOM     25  H   UNL     1      49.351   2.005   6.396  0.00  0.00    +0.000 HD
ENDBRANCH  17  24
ENDBRANCH  16  20
ENDBRANCH  15  16
ENDBRANCH   1  15
TORSDOF 5
ENDMDL
MODEL 2
REMARK VINA RESULT:    -8.877      1.491      1.766
REMARK INTER + INTRA:         -11.838
REMARK INTER:                 -11.193
REMARK INTRA:                  -0.646
REMARK UNBOUND:                -0.626
REMARK  Name = 
REMARK  5 active torsions:
REMARK  status: ('A' for Active; 'I' for Inactive)
REMARK    1  A    between atoms: O_1  and  C_2
REMARK    2  A    between atoms: C_5  and  O_6
REMARK    3  A    between atoms: O_6  and  C_7
REMARK    4  A    between atoms: C_7  and  C_8
REMARK    5  A    between atoms: C_12  and  C_13
REMARK                            x       y       z     vdW  Elec       q    Type
REMARK                         _______ _______ _______ _____ _____    ______ ____
ROOT
ATOM      1  C   UNL     1      44.539   4.555  11.126  0.00  0.00    +0.000 A 
ATOM      2  C   UNL     1      44.026   3.910  12.228  0.00  0.00    +0.000 A 
ATOM      3  N   UNL     1      44.564   4.066  13.451  0.00  0.00    +0.000 NA
ATOM      4  N   UNL     1      45.632   4.888  13.573  0.00  0.00    +0.000 NA
ATOM      5  C   UNL     1      46.123   5.508  12.474  0.00  0.00    +0.000 A 
ATOM      6  N   UNL     1      45.612   5.370  11.233  0.00  0.00    +0.000 NA
ENDROOT
BRANCH   5   7
ATOM      7  C   UNL     1      47.320   6.345  12.637  0.00  0.00    +0.000 A 
ATOM      8  C   UNL     1      47.763   7.201  11.613  0.00  0.00    +0.000 A 
ATOM      9  C   UNL     1      48.882   8.018  11.783  0.00  0.00    +0.000 A 
ATOM     10  C   UNL     1      49.594   7.989  12.985  0.00  0.00    +0.000 A 
ATOM     11 CL   UNL     1      50.956   9.038  13.136  0.00  0.00    +0.000 Cl
ATOM     12  C   UNL     1      49.187   7.133  14.009  0.00  0.00    +0.000 A 
ATOM     13 CL   UNL     1      50.034   7.010  15.510  0.00  0.00    +0.000 Cl
ATOM     14  C   UNL     1      48.057   6.326  13.836  0.00  0.00    +0.000 A 
ENDBRANCH   5   7
BRANCH   1  15
ATOM     15  C   UNL     1      43.935   4.323   9.762  0.00  0.00    +0.000 C 
BRANCH  15  16
ATOM     16  O   UNL     1      44.144   2.975   9.344  0.00  0.00    +0.000 OA
BRANCH  16  20
ATOM     17  C   UNL     1      47.381   2.027   6.889  0.00  0.00    +0.000 A 
ATOM     18  C   UNL     1      46.922   3.338   6.884  0.00  0.00    +0.000 A 
ATOM     19  C   UNL     1      45.834   3.697   7.692  0.00  0.00    +0.000 A 
ATOM     20  C   UNL     1      45.207   2.746   8.507  0.00  0.00    +0.000 A 
ATOM     21  C   UNL     1      45.679   1.431   8.501  0.00  0.00    +0.000 A 
ATOM     22  C   UNL     1      46.761   1.077   7.696  0.00  0.00    +0.000 A 
ATOM     23  F   UNL     1      47.196  -0.191   7.711  0.00  0.00    +0.000 F 
BRANCH  17  24
ATOM     24  O   UNL     1      48.440   1.650   6.111  0.00  0.00    +0.000 OA
ATOM     25  H   UNL     1      49.137   1.279   6.675  0.00  0.00    +0.000 HD
ENDBRANCH  17  24
ENDBRANCH  16  20
ENDBRANCH  15  16
ENDBRANCH   1  15
TORSDOF 5
ENDMDL
MODEL 3
REMARK VINA RESULT:    -8.740      1.718      2.175
REMARK INTER + INTRA:         -11.665
REMARK INTER:                 -11.005
REMARK INTRA:                  -0.661
REMARK UNBOUND:                -0.626
REMARK  Name = 
REMARK  5 active torsions:
REMARK  status: ('A' for Active; 'I' for Inactive)
REMARK    1  A    between atoms: O_1  and  C_2
REMARK    2  A    between atoms: C_5  and  O_6
REMARK    3  A    between atoms: O_6  and  C_7
REMARK    4  A    between atoms: C_7  and  C_8
REMARK    5  A    between atoms: C_12  and  C_13
REMARK                            x       y       z     vdW  Elec       q    Type
REMARK                         _______ _______ _______ _____ _____    ______ ____
ROOT
ATOM      1  C   UNL     1      44.951   3.474  11.603  0.00  0.00    +0.000 A 
ATOM      2  C   UNL     1      45.603   2.897  12.669  0.00  0.00    +0.000 A 
ATOM      3  N   UNL     1      46.219   3.641  13.606  0.00  0.00    +0.000 NA
ATOM      4  N   UNL     1      46.177   4.988  13.474  0.00  0.00    +0.000 NA
ATOM      5  C   UNL     1      45.535   5.532  12.414  0.00  0.00    +0.000 A 
ATOM      6  N   UNL     1      44.911   4.816  11.455  0.00  0.00    +0.000 NA
ENDROOT
BRANCH   5   7
ATOM      7  C   UNL     1      45.563   6.995  12.274  0.00  0.00    +0.000 A 
ATOM      8  C   UNL     1      46.581   7.769  12.858  0.00  0.00    +0.000 A 
ATOM      9  C   UNL     1      46.621   9.155  12.698  0.00  0.00    +0.000 A 
ATOM     10  C   UNL     1      45.632   9.803  11.952  0.00  0.00    +0.000 A 
ATOM     11 CL   UNL     1      45.752  11.515  11.777  0.00  0.00    +0.000 Cl
ATOM     12  C   UNL     1      44.599   9.059  11.380  0.00  0.00    +0.000 A 
ATOM     13 CL   UNL     1      43.319   9.787  10.477  0.00  0.00    +0.000 Cl
ATOM     14  C   UNL     1      44.572   7.669  11.535  0.00  0.00    +0.000 A 
ENDBRANCH   5   7
BRANCH   1  15
ATOM     15  C   UNL     1      44.306   2.606  10.550  0.00  0.00    +0.000 C 
BRANCH  15  16
ATOM     16  O   UNL     1      44.332   3.255   9.280  0.00  0.00    +0.000 OA
BRANCH  16  20
ATOM     17  C   UNL     1      47.463   2.011   6.819  0.00  0.00    +0.000 A 
ATOM     18  C   UNL     1      47.118   3.357   6.804  0.00  0.00    +0.000 A 
ATOM     19  C   UNL     1      46.069   3.814   7.614  0.00  0.00    +0.000 A 
ATOM     20  C   UNL     1      45.367   2.928   8.441  0.00  0.00    +0.000 A 
ATOM     21  C   UNL     1      45.724   1.578   8.444  0.00  0.00    +0.000 A 
ATOM     22  C   UNL     1      46.768   1.125   7.638  0.00  0.00    +0.000 A 
ATOM     23  F   UNL     1      47.092  -0.175   7.662  0.00  0.00    +0.000 F 
BRANCH  17  24
ATOM     24  O   UNL     1      48.481   1.538   6.040  0.00  0.00    +0.000 OA
ATOM     25  H   UNL     1      49.161   2.224   5.946  0.00  0.00    +0.000 HD
ENDBRANCH  17  24
ENDBRANCH  16  20
ENDBRANCH  15  16
ENDBRANCH   1  15
TORSDOF 5
ENDMDL
MODEL 4
REMARK VINA RESULT:    -8.695      2.989      3.383
REMARK INTER + INTRA:         -11.609
REMARK INTER:                 -11.039
REMARK INTRA:                  -0.570
REMARK UNBOUND:                -0.626
REMARK  Name = 
REMARK  5 active torsions:
REMARK  status: ('A' for Active; 'I' for Inactive)
REMARK    1  A    between atoms: O_1  and  C_2
REMARK    2  A    between atoms: C_5  and  O_6
REMARK    3  A    between atoms: O_6  and  C_7
REMARK    4  A    between atoms: C_7  and  C_8
REMARK    5  A    between atoms: C_12  and  C_13
REMARK                            x       y       z     vdW  Elec       q    Type
REMARK                         _______ _______ _______ _____ _____    ______ ____
ROOT
ATOM      1  C   UNL     1      44.817   4.172  11.386  0.00  0.00    +0.000 A 
ATOM      2  C   UNL     1      44.282   5.367  10.962  0.00  0.00    +0.000 A 
ATOM      3  N   UNL     1      44.599   6.532  11.554  0.00  0.00    +0.000 NA
ATOM      4  N   UNL     1      45.471   6.500  12.589  0.00  0.00    +0.000 NA
ATOM      5  C   UNL     1      45.979   5.312  12.993  0.00  0.00    +0.000 A 
ATOM      6  N   UNL     1      45.679   4.126  12.425  0.00  0.00    +0.000 NA
ENDROOT
BRANCH   5   7
ATOM      7  C   UNL     1      46.876   5.311  14.158  0.00  0.00    +0.000 A 
ATOM      8  C   UNL     1      47.842   6.316  14.341  0.00  0.00    +0.000 A 
ATOM      9  C   UNL     1      48.672   6.330  15.464  0.00  0.00    +0.000 A 
ATOM     10  C   UNL     1      48.559   5.327  16.430  0.00  0.00    +0.000 A 
ATOM     11 CL   UNL     1      49.601   5.413  17.803  0.00  0.00    +0.000 Cl
ATOM     12  C   UNL     1      47.621   4.306  16.261  0.00  0.00    +0.000 A 
ATOM     13 CL   UNL     1      47.446   3.010  17.388  0.00  0.00    +0.000 Cl
ATOM     14  C   UNL     1      46.786   4.306  15.139  0.00  0.00    +0.000 A 
ENDBRANCH   5   7
BRANCH   1  15
ATOM     15  C   UNL     1      44.406   2.880  10.723  0.00  0.00    +0.000 C 
BRANCH  15  16
ATOM     16  O   UNL     1      44.201   3.078   9.325  0.00  0.00    +0.000 OA
BRANCH  16  20
ATOM     17  C   UNL     1      47.422   1.996   6.905  0.00  0.00    +0.000 A 
ATOM     18  C   UNL     1      47.026   3.327   6.904  0.00  0.00    +0.000 A 
ATOM     19  C   UNL     1      45.945   3.731   7.701  0.00  0.00    +0.000 A 
ATOM     20  C   UNL     1      45.263   2.805   8.500  0.00  0.00    +0.000 A 
ATOM     21  C   UNL     1      45.672   1.469   8.490  0.00  0.00    +0.000 A 
ATOM     22  C   UNL     1      46.747   1.070   7.697  0.00  0.00    +0.000 A 
ATOM     23  F   UNL     1      47.122  -0.217   7.707  0.00  0.00    +0.000 F 
BRANCH  17  24
ATOM     24  O   UNL     1      48.473   1.575   6.139  0.00  0.00    +0.000 OA
ATOM     25  H   UNL     1      48.730   2.283   5.528  0.00  0.00    +0.000 HD
ENDBRANCH  17  24
ENDBRANCH  16  20
ENDBRANCH  15  16
ENDBRANCH   1  15
TORSDOF 5
ENDMDL
MODEL 5
REMARK VINA RESULT:    -7.871      4.132      6.854
REMARK INTER + INTRA:         -10.568
REMARK INTER:                  -9.932
REMARK INTRA:                  -0.636
REMARK UNBOUND:                -0.626
REMARK  Name = 
REMARK  5 active torsions:
REMARK  status: ('A' for Active; 'I' for Inactive)
REMARK    1  A    between atoms: O_1  and  C_2
REMARK    2  A    between atoms: C_5  and  O_6
REMARK    3  A    between atoms: O_6  and  C_7
REMARK    4  A    between atoms: C_7  and  C_8
REMARK    5  A    between atoms: C_12  and  C_13
REMARK                            x       y       z     vdW  Elec       q    Type
REMARK                         _______ _______ _______ _____ _____    ______ ____
ROOT
ATOM      1  C   UNL     1      44.015   5.484  11.402  0.00  0.00    +0.000 A 
ATOM      2  C   UNL     1      43.099   4.641  11.989  0.00  0.00    +0.000 A 
ATOM      3  N   UNL     1      42.950   3.368  11.581  0.00  0.00    +0.000 NA
ATOM      4  N   UNL     1      43.734   2.931  10.568  0.00  0.00    +0.000 NA
ATOM      5  C   UNL     1      44.623   3.780  10.002  0.00  0.00    +0.000 A 
ATOM      6  N   UNL     1      44.796   5.063  10.383  0.00  0.00    +0.000 NA
ENDROOT
BRANCH   5   7
ATOM      7  C   UNL     1      45.414   3.286   8.866  0.00  0.00    +0.000 A 
ATOM      8  C   UNL     1      45.917   4.160   7.886  0.00  0.00    +0.000 A 
ATOM      9  C   UNL     1      46.695   3.691   6.826  0.00  0.00    +0.000 A 
ATOM     10  C   UNL     1      46.979   2.328   6.716  0.00  0.00    +0.000 A 
ATOM     11 CL   UNL     1      47.961   1.817   5.392  0.00  0.00    +0.000 Cl
ATOM     12  C   UNL     1      46.473   1.437   7.664  0.00  0.00    +0.000 A 
ATOM     13 CL   UNL     1      46.747  -0.267   7.578  0.00  0.00    +0.000 Cl
ATOM     14  C   UNL     1      45.705   1.916   8.730  0.00  0.00    +0.000 A 
ENDBRANCH   5   7
BRANCH   1  15
ATOM     15  C   UNL     1      44.126   6.919  11.860  0.00  0.00    +0.000 C 
BRANCH  15  16
ATOM     16  O   UNL     1      45.168   7.057  12.824  0.00  0.00    +0.000 OA
BRANCH  16  20
ATOM     17  C   UNL     1      48.543   9.251  11.725  0.00  0.00    +0.000 A 
ATOM     18  C   UNL     1      47.412   9.952  12.124  0.00  0.00    +0.000 A 
ATOM     19  C   UNL     1      46.256   9.252  12.498  0.00  0.00    +0.000 A 
ATOM     20  C   UNL     1      46.231   7.852  12.475  0.00  0.00    +0.000 A 
ATOM     21  C   UNL     1      47.376   7.160  12.070  0.00  0.00    +0.000 A 
ATOM     22  C   UNL     1      48.524   7.859  11.699  0.00  0.00    +0.000 A 
ATOM     23  F   UNL     1      49.609   7.171  11.317  0.00  0.00    +0.000 F 
BRANCH  17  24
ATOM     24  O   UNL     1      49.683   9.908  11.357  0.00  0.00    +0.000 OA
ATOM     25  H   UNL     1      49.449  10.753  10.943  0.00  0.00    +0.000 HD
ENDBRANCH  17  24
ENDBRANCH  16  20
ENDBRANCH  15  16
ENDBRANCH   1  15
TORSDOF 5
ENDMDL
MODEL 6
REMARK VINA RESULT:    -7.590      5.241      7.673
REMARK INTER + INTRA:         -10.213
REMARK INTER:                  -9.772
REMARK INTRA:                  -0.441
REMARK UNBOUND:                -0.626
REMARK  Name = 
REMARK  5 active torsions:
REMARK  status: ('A' for Active; 'I' for Inactive)
REMARK    1  A    between atoms: O_1  and  C_2
REMARK    2  A    between atoms: C_5  and  O_6
REMARK    3  A    between atoms: O_6  and  C_7
REMARK    4  A    between atoms: C_7  and  C_8
REMARK    5  A    between atoms: C_12  and  C_13
REMARK                            x       y       z     vdW  Elec       q    Type
REMARK                         _______ _______ _______ _____ _____    ______ ____
ROOT
ATOM      1  C   UNL     1      44.952   4.544  12.806  0.00  0.00    +0.000 A 
ATOM      2  C   UNL     1      43.586   4.714  12.833  0.00  0.00    +0.000 A 
ATOM      3  N   UNL     1      42.823   4.466  11.754  0.00  0.00    +0.000 NA
ATOM      4  N   UNL     1      43.438   4.036  10.627  0.00  0.00    +0.000 NA
ATOM      5  C   UNL     1      44.783   3.882  10.623  0.00  0.00    +0.000 A 
ATOM      6  N   UNL     1      45.579   4.126  11.685  0.00  0.00    +0.000 NA
ENDROOT
BRANCH   5   7
ATOM      7  C   UNL     1      45.421   3.471   9.364  0.00  0.00    +0.000 A 
ATOM      8  C   UNL     1      45.788   4.412   8.385  0.00  0.00    +0.000 A 
ATOM      9  C   UNL     1      46.422   4.021   7.204  0.00  0.00    +0.000 A 
ATOM     10  C   UNL     1      46.695   2.671   6.970  0.00  0.00    +0.000 A 
ATOM     11 CL   UNL     1      47.497   2.258   5.499  0.00  0.00    +0.000 Cl
ATOM     12  C   UNL     1      46.321   1.715   7.917  0.00  0.00    +0.000 A 
ATOM     13 CL   UNL     1      46.589   0.024   7.686  0.00  0.00    +0.000 Cl
ATOM     14  C   UNL     1      45.698   2.116   9.103  0.00  0.00    +0.000 A 
ENDBRANCH   5   7
BRANCH   1  15
ATOM     15  C   UNL     1      45.780   4.871  14.025  0.00  0.00    +0.000 C 
BRANCH  15  16
ATOM     16  O   UNL     1      46.599   3.761  14.387  0.00  0.00    +0.000 OA
BRANCH  16  20
ATOM     17  C   UNL     1      49.093   4.520  17.644  0.00  0.00    +0.000 A 
ATOM     18  C   UNL     1      48.738   3.202  17.389  0.00  0.00    +0.000 A 
ATOM     19  C   UNL     1      47.899   2.905  16.306  0.00  0.00    +0.000 A 
ATOM     20  C   UNL     1      47.417   3.925  15.477  0.00  0.00    +0.000 A 
ATOM     21  C   UNL     1      47.781   5.247  15.746  0.00  0.00    +0.000 A 
ATOM     22  C   UNL     1      48.616   5.539  16.823  0.00  0.00    +0.000 A 
ATOM     23  F   UNL     1      48.953   6.816  17.058  0.00  0.00    +0.000 F 
BRANCH  17  24
ATOM     24  O   UNL     1      49.911   4.838  18.692  0.00  0.00    +0.000 OA
ATOM     25  H   UNL     1      49.514   4.520  19.518  0.00  0.00    +0.000 HD
ENDBRANCH  17  24
ENDBRANCH  16  20
ENDBRANCH  15  16
ENDBRANCH   1  15
TORSDOF 5
ENDMDL
MODEL 7
REMARK VINA RESULT:    -7.253      1.747      2.101
REMARK INTER + INTRA:          -9.788
REMARK INTER:                  -9.233
REMARK INTRA:                  -0.555
REMARK UNBOUND:                -0.626
REMARK  Name = 
REMARK  5 active torsions:
REMARK  status: ('A' for Active; 'I' for Inactive)
REMARK    1  A    between atoms: O_1  and  C_2
REMARK    2  A    between atoms: C_5  and  O_6
REMARK    3  A    between atoms: O_6  and  C_7
REMARK    4  A    between atoms: C_7  and  C_8
REMARK    5  A    between atoms: C_12  and  C_13
REMARK                            x       y       z     vdW  Elec       q    Type
REMARK                         _______ _______ _______ _____ _____    ______ ____
ROOT
ATOM      1  C   UNL     1      45.072   4.934  11.473  0.00  0.00    +0.000 A 
ATOM      2  C   UNL     1      44.959   4.009  12.486  0.00  0.00    +0.000 A 
ATOM      3  N   UNL     1      45.686   4.106  13.614  0.00  0.00    +0.000 NA
ATOM      4  N   UNL     1      46.539   5.151  13.731  0.00  0.00    +0.000 NA
ATOM      5  C   UNL     1      46.638   6.044  12.718  0.00  0.00    +0.000 A 
ATOM      6  N   UNL     1      45.928   5.975  11.573  0.00  0.00    +0.000 NA
ENDROOT
BRANCH   5   7
ATOM      7  C   UNL     1      47.618   7.131  12.857  0.00  0.00    +0.000 A 
ATOM      8  C   UNL     1      47.424   8.181  13.772  0.00  0.00    +0.000 A 
ATOM      9  C   UNL     1      48.372   9.195  13.924  0.00  0.00    +0.000 A 
ATOM     10  C   UNL     1      49.537   9.186  13.152  0.00  0.00    +0.000 A 
ATOM     11 CL   UNL     1      50.676  10.458  13.402  0.00  0.00    +0.000 Cl
ATOM     12  C   UNL     1      49.742   8.165  12.222  0.00  0.00    +0.000 A 
ATOM     13 CL   UNL     1      51.136   8.103  11.203  0.00  0.00    +0.000 Cl
ATOM     14  C   UNL     1      48.794   7.147  12.084  0.00  0.00    +0.000 A 
ENDBRANCH   5   7
BRANCH   1  15
ATOM     15  C   UNL     1      44.270   4.770  10.205  0.00  0.00    +0.000 C 
BRANCH  15  16
ATOM     16  O   UNL     1      45.119   4.849   9.061  0.00  0.00    +0.000 OA
BRANCH  16  20
ATOM     17  C   UNL     1      46.658   1.380   7.330  0.00  0.00    +0.000 A 
ATOM     18  C   UNL     1      45.797   1.241   8.411  0.00  0.00    +0.000 A 
ATOM     19  C   UNL     1      45.261   2.383   9.023  0.00  0.00    +0.000 A 
ATOM     20  C   UNL     1      45.584   3.662   8.554  0.00  0.00    +0.000 A 
ATOM     21  C   UNL     1      46.452   3.786   7.466  0.00  0.00    +0.000 A 
ATOM     22  C   UNL     1      46.983   2.649   6.859  0.00  0.00    +0.000 A 
ATOM     23  F   UNL     1      47.812   2.796   5.815  0.00  0.00    +0.000 F 
BRANCH  17  24
ATOM     24  O   UNL     1      47.195   0.284   6.713  0.00  0.00    +0.000 OA
ATOM     25  H   UNL     1      47.085   0.369   5.753  0.00  0.00    +0.000 HD
ENDBRANCH  17  24
ENDBRANCH  16  20
ENDBRANCH  15  16
ENDBRANCH   1  15
TORSDOF 5
ENDMDL
MODEL 8
REMARK VINA RESULT:    -6.871      4.318      5.845
REMARK INTER + INTRA:          -9.305
REMARK INTER:                  -8.653
REMARK INTRA:                  -0.652
REMARK UNBOUND:                -0.626
REMARK  Name = 
REMARK  5 active torsions:
REMARK  status: ('A' for Active; 'I' for Inactive)
REMARK    1  A    between atoms: O_1  and  C_2
REMARK    2  A    between atoms: C_5  and  O_6
REMARK    3  A    between atoms: O_6  and  C_7
REMARK    4  A    between atoms: C_7  and  C_8
REMARK    5  A    between atoms: C_12  and  C_13
REMARK                            x       y       z     vdW  Elec       q    Type
REMARK                         _______ _______ _______ _____ _____    ______ ____
ROOT
ATOM      1  C   UNL     1      46.950   7.203  12.457  0.00  0.00    +0.000 A 
ATOM      2  C   UNL     1      48.070   7.602  11.764  0.00  0.00    +0.000 A 
ATOM      3  N   UNL     1      49.305   7.462  12.279  0.00  0.00    +0.000 NA
ATOM      4  N   UNL     1      49.420   6.909  13.509  0.00  0.00    +0.000 NA
ATOM      5  C   UNL     1      48.303   6.530  14.174  0.00  0.00    +0.000 A 
ATOM      6  N   UNL     1      47.051   6.659  13.690  0.00  0.00    +0.000 NA
ENDROOT
BRANCH   5   7
ATOM      7  C   UNL     1      48.466   5.988  15.531  0.00  0.00    +0.000 A 
ATOM      8  C   UNL     1      49.256   6.642  16.493  0.00  0.00    +0.000 A 
ATOM      9  C   UNL     1      49.383   6.141  17.790  0.00  0.00    +0.000 A 
ATOM     10  C   UNL     1      48.726   4.963  18.153  0.00  0.00    +0.000 A 
ATOM     11 CL   UNL     1      48.909   4.409  19.777  0.00  0.00    +0.000 Cl
ATOM     12  C   UNL     1      47.952   4.284  17.210  0.00  0.00    +0.000 A 
ATOM     13 CL   UNL     1      47.140   2.802  17.568  0.00  0.00    +0.000 Cl
ATOM     14  C   UNL     1      47.820   4.798  15.916  0.00  0.00    +0.000 A 
ENDBRANCH   5   7
BRANCH   1  15
ATOM     15  C   UNL     1      45.578   7.413  11.864  0.00  0.00    +0.000 C 
BRANCH  15  16
ATOM     16  O   UNL     1      45.351   6.501  10.791  0.00  0.00    +0.000 OA
BRANCH  16  20
ATOM     17  C   UNL     1      43.533   2.815  11.504  0.00  0.00    +0.000 A 
ATOM     18  C   UNL     1      43.445   3.786  12.493  0.00  0.00    +0.000 A 
ATOM     19  C   UNL     1      44.045   5.038  12.293  0.00  0.00    +0.000 A 
ATOM     20  C   UNL     1      44.732   5.318  11.105  0.00  0.00    +0.000 A 
ATOM     21  C   UNL     1      44.813   4.330  10.121  0.00  0.00    +0.000 A 
ATOM     22  C   UNL     1      44.215   3.087  10.321  0.00  0.00    +0.000 A 
ATOM     23  F   UNL     1      44.306   2.158   9.359  0.00  0.00    +0.000 F 
BRANCH  17  24
ATOM     24  O   UNL     1      42.956   1.587  11.672  0.00  0.00    +0.000 OA
ATOM     25  H   UNL     1      42.816   1.176  10.805  0.00  0.00    +0.000 HD
ENDBRANCH  17  24
ENDBRANCH  16  20
ENDBRANCH  15  16
ENDBRANCH   1  15
TORSDOF 5
ENDMDL
MODEL 9
REMARK VINA RESULT:    -6.814      3.852      4.543
REMARK INTER + INTRA:          -9.233
REMARK INTER:                  -8.944
REMARK INTRA:                  -0.289
REMARK UNBOUND:                -0.626
REMARK  Name = 
REMARK  5 active torsions:
REMARK  status: ('A' for Active; 'I' for Inactive)
REMARK    1  A    between atoms: O_1  and  C_2
REMARK    2  A    between atoms: C_5  and  O_6
REMARK    3  A    between atoms: O_6  and  C_7
REMARK    4  A    between atoms: C_7  and  C_8
REMARK    5  A    between atoms: C_12  and  C_13
REMARK                            x       y       z     vdW  Elec       q    Type
REMARK                         _______ _______ _______ _____ _____    ______ ____
ROOT
ATOM      1  C   UNL     1      45.729   5.620  12.117  0.00  0.00    +0.000 A 
ATOM      2  C   UNL     1      46.616   6.442  11.459  0.00  0.00    +0.000 A 
ATOM      3  N   UNL     1      47.798   6.783  12.003  0.00  0.00    +0.000 NA
ATOM      4  N   UNL     1      48.099   6.287  13.226  0.00  0.00    +0.000 NA
ATOM      5  C   UNL     1      47.208   5.486  13.856  0.00  0.00    +0.000 A 
ATOM      6  N   UNL     1      46.014   5.128  13.342  0.00  0.00    +0.000 NA
ENDROOT
BRANCH   5   7
ATOM      7  C   UNL     1      47.546   5.016  15.208  0.00  0.00    +0.000 A 
ATOM      8  C   UNL     1      47.143   3.750  15.667  0.00  0.00    +0.000 A 
ATOM      9  C   UNL     1      47.492   3.294  16.940  0.00  0.00    +0.000 A 
ATOM     10  C   UNL     1      48.248   4.105  17.790  0.00  0.00    +0.000 A 
ATOM     11 CL   UNL     1      48.661   3.475  19.342  0.00  0.00    +0.000 Cl
ATOM     12  C   UNL     1      48.642   5.375  17.365  0.00  0.00    +0.000 A 
ATOM     13 CL   UNL     1      49.545   6.452  18.370  0.00  0.00    +0.000 Cl
ATOM     14  C   UNL     1      48.299   5.819  16.084  0.00  0.00    +0.000 A 
ENDBRANCH   5   7
BRANCH   1  15
ATOM     15  C   UNL     1      44.394   5.293  11.492  0.00  0.00    +0.000 C 
BRANCH  15  16
ATOM     16  O   UNL     1      44.353   3.926  11.084  0.00  0.00    +0.000 OA
BRANCH  16  20
ATOM     17  C   UNL     1      46.149   2.746   7.507  0.00  0.00    +0.000 A 
ATOM     18  C   UNL     1      45.973   4.106   7.730  0.00  0.00    +0.000 A 
ATOM     19  C   UNL     1      45.370   4.544   8.918  0.00  0.00    +0.000 A 
ATOM     20  C   UNL     1      44.946   3.623   9.884  0.00  0.00    +0.000 A 
ATOM     21  C   UNL     1      45.128   2.258   9.645  0.00  0.00    +0.000 A 
ATOM     22  C   UNL     1      45.727   1.826   8.464  0.00  0.00    +0.000 A 
ATOM     23  F   UNL     1      45.893   0.511   8.261  0.00  0.00    +0.000 F 
BRANCH  17  24
ATOM     24  O   UNL     1      46.733   2.292   6.359  0.00  0.00    +0.000 OA
ATOM     25  H   UNL     1      47.638   2.637   6.299  0.00  0.00    +0.000 HD
ENDBRANCH  17  24
ENDBRANCH  16  20
ENDBRANCH  15  16
ENDBRANCH   1  15
TORSDOF 5
ENDMDL
