MODEL 1
REMARK VINA RESULT:    -7.674      0.000      0.000
REMARK INTER + INTRA:         -11.529
REMARK INTER:                 -10.590
REMARK INTRA:                  -0.939
REMARK UNBOUND:                -0.939
REMARK  Name = 
REMARK  7 active torsions:
REMARK  status: ('A' for Active; 'I' for Inactive)
REMARK    1  A    between atoms: N_1  and  C_2
REMARK    2  A    between atoms: C_2  and  C_3
REMARK    3  A    between atoms: C_2  and  C_19
REMARK    4  A    between atoms: C_3  and  C_4
REMARK    5  A    between atoms: C_7  and  C_8
REMARK    6  A    between atoms: C_8  and  N_9
REMARK    7  A    between atoms: C_10  and  C_12
REMARK                            x       y       z     vdW  Elec       q    Type
REMARK                         _______ _______ _______ _____ _____    ______ ____
ROOT
ATOM      1  C   UNL     1      48.130   7.195  14.346  0.00  0.00    +0.000 C 
ENDROOT
BRANCH   1   2
ATOM      2  C   UNL     1      47.165   6.271  13.628  0.00  0.00    +0.000 A 
ATOM      3  C   UNL     1      46.440   6.693  12.507  0.00  0.00    +0.000 A 
ATOM      4  C   UNL     1      45.590   5.808  11.826  0.00  0.00    +0.000 A 
ATOM      5  C   UNL     1      45.454   4.476  12.240  0.00  0.00    +0.000 A 
ATOM      6  C   UNL     1      46.214   4.040  13.333  0.00  0.00    +0.000 A 
ATOM      7  C   UNL     1      47.052   4.929  14.020  0.00  0.00    +0.000 A 
BRANCH   5   8
ATOM      8  C   UNL     1      44.532   3.531  11.508  0.00  0.00    +0.000 C 
BRANCH   8   9
ATOM      9  N   UNL     1      45.221   2.811  10.469  0.00  0.00    +0.000 N 
ATOM     10  C   UNL     1      45.125   3.157   9.137  0.00  0.00    +0.000 C 
ATOM     11  O   UNL     1      44.442   4.099   8.747  0.00  0.00    +0.000 OA
ATOM     12  H   UNL     1      45.848   2.052  10.712  0.00  0.00    +0.000 HD
BRANCH  10  13
ATOM     13  C   UNL     1      45.910   2.307   8.260  0.00  0.00    +0.000 A 
ATOM     14  C   UNL     1      46.665   2.585   7.136  0.00  0.00    +0.000 A 
ATOM     15  C   UNL     1      47.205   1.353   6.689  0.00  0.00    +0.000 A 
ATOM     16  C   UNL     1      46.744   0.396   7.559  0.00  0.00    +0.000 A 
ATOM     17  O   UNL     1      45.964   0.959   8.517  0.00  0.00    +0.000 OA
ENDBRANCH  10  13
ENDBRANCH   8   9
ENDBRANCH   5   8
ENDBRANCH   1   2
BRANCH   1  18
ATOM     18  C   UNL     1      49.206   6.560  15.273  0.00  0.00    +0.000 C 
BRANCH  18  19
ATOM     19  C   UNL     1      48.898   6.817  16.742  0.00  0.00    +0.000 A 
ATOM     20  C   UNL     1      48.610   8.064  17.280  0.00  0.00    +0.000 A 
ATOM     21  S   UNL     1      48.358   8.037  18.967  0.00  0.00    +0.000 S 
ATOM     22  C   UNL     1      48.622   6.357  19.036  0.00  0.00    +0.000 A 
ATOM     23  N   UNL     1      48.565   5.686  20.218  0.00  0.00    +0.000 NA
ATOM     24  C   UNL     1      48.800   4.420  20.117  0.00  0.00    +0.000 A 
ATOM     25  N   UNL     1      49.084   3.763  18.946  0.00  0.00    +0.000 N 
ATOM     26  C   UNL     1      49.137   4.396  17.727  0.00  0.00    +0.000 A 
ATOM     27  O   UNL     1      49.370   3.771  16.695  0.00  0.00    +0.000 OA
ATOM     28  C   UNL     1      48.895   5.823  17.790  0.00  0.00    +0.000 A 
ATOM     29  H   UNL     1      49.249   2.769  18.937  0.00  0.00    +0.000 HD
ENDBRANCH  18  19
BRANCH  18  30
ATOM     30  N   UNL     1      50.572   7.048  15.058  0.00  0.00    +0.000 NA
ATOM     31  H   UNL     1      51.073   6.994  15.946  0.00  0.00    +0.000 HD
ATOM     32  H   UNL     1      50.558   8.033  14.805  0.00  0.00    +0.000 HD
ENDBRANCH  18  30
ENDBRANCH   1  18
TORSDOF 7
ENDMDL
MODEL 2
REMARK VINA RESULT:    -7.449      1.735      2.081
REMARK INTER + INTRA:         -11.218
REMARK INTER:                 -10.801
REMARK INTRA:                  -0.418
REMARK UNBOUND:                -0.939
REMARK  Name = 
REMARK  7 active torsions:
REMARK  status: ('A' for Active; 'I' for Inactive)
REMARK    1  A    between atoms: N_1  and  C_2
REMARK    2  A    between atoms: C_2  and  C_3
REMARK    3  A    between atoms: C_2  and  C_19
REMARK    4  A    between atoms: C_3  and  C_4
REMARK    5  A    between atoms: C_7  and  C_8
REMARK    6  A    between atoms: C_8  and  N_9
REMARK    7  A    between atoms: C_10  and  C_12
REMARK                            x       y       z     vdW  Elec       q    Type
REMARK                         _______ _______ _______ _____ _____    ______ ____
ROOT
ATOM      1  C   UNL     1      47.771   4.741  15.575  0.00  0.00    +0.000 C 
ENDROOT
BRANCH   1   2
ATOM      2  C   UNL     1      46.917   4.806  14.322  0.00  0.00    +0.000 A 
ATOM      3  C   UNL     1      46.714   6.007  13.633  0.00  0.00    +0.000 A 
ATOM      4  C   UNL     1      45.963   6.037  12.448  0.00  0.00    +0.000 A 
ATOM      5  C   UNL     1      45.407   4.865  11.916  0.00  0.00    +0.000 A 
ATOM      6  C   UNL     1      45.648   3.656  12.580  0.00  0.00    +0.000 A 
ATOM      7  C   UNL     1      46.388   3.630  13.770  0.00  0.00    +0.000 A 
BRANCH   5   8
ATOM      8  C   UNL     1      44.593   4.905  10.646  0.00  0.00    +0.000 C 
BRANCH   8   9
ATOM      9  N   UNL     1      45.314   4.347   9.532  0.00  0.00    +0.000 N 
ATOM     10  C   UNL     1      45.098   3.062   9.077  0.00  0.00    +0.000 C 
ATOM     11  O   UNL     1      44.282   2.306   9.594  0.00  0.00    +0.000 OA
ATOM     12  H   UNL     1      45.969   4.922   9.015  0.00  0.00    +0.000 HD
BRANCH  10  13
ATOM     13  C   UNL     1      45.923   2.706   7.936  0.00  0.00    +0.000 A 
ATOM     14  C   UNL     1      46.248   3.392   6.780  0.00  0.00    +0.000 A 
ATOM     15  C   UNL     1      47.090   2.542   6.021  0.00  0.00    +0.000 A 
ATOM     16  C   UNL     1      47.224   1.386   6.752  0.00  0.00    +0.000 A 
ATOM     17  O   UNL     1      46.528   1.474   7.913  0.00  0.00    +0.000 OA
ENDBRANCH  10  13
ENDBRANCH   8   9
ENDBRANCH   5   8
ENDBRANCH   1   2
BRANCH   1  18
ATOM     18  C   UNL     1      47.059   4.542  16.943  0.00  0.00    +0.000 C 
BRANCH  18  19
ATOM     19  C   UNL     1      47.883   5.113  18.089  0.00  0.00    +0.000 A 
ATOM     20  C   UNL     1      47.465   6.138  18.926  0.00  0.00    +0.000 A 
ATOM     21  S   UNL     1      48.632   6.592  20.084  0.00  0.00    +0.000 S 
ATOM     22  C   UNL     1      49.736   5.432  19.509  0.00  0.00    +0.000 A 
ATOM     23  N   UNL     1      50.968   5.298  20.068  0.00  0.00    +0.000 NA
ATOM     24  C   UNL     1      51.701   4.387  19.519  0.00  0.00    +0.000 A 
ATOM     25  N   UNL     1      51.315   3.597  18.465  0.00  0.00    +0.000 N 
ATOM     26  C   UNL     1      50.075   3.685  17.878  0.00  0.00    +0.000 A 
ATOM     27  O   UNL     1      49.756   2.944  16.952  0.00  0.00    +0.000 OA
ATOM     28  C   UNL     1      49.221   4.706  18.451  0.00  0.00    +0.000 A 
ATOM     29  H   UNL     1      51.935   2.897  18.089  0.00  0.00    +0.000 HD
ENDBRANCH  18  19
BRANCH  18  30
ATOM     30  N   UNL     1      46.786   3.146  17.300  0.00  0.00    +0.000 NA
ATOM     31  H   UNL     1      46.415   2.673  16.474  0.00  0.00    +0.000 HD
ATOM     32  H   UNL     1      46.051   3.100  18.001  0.00  0.00    +0.000 HD
ENDBRANCH  18  30
ENDBRANCH   1  18
TORSDOF 7
ENDMDL
MODEL 3
REMARK VINA RESULT:    -6.930      1.246      1.698
REMARK INTER + INTRA:         -10.502
REMARK INTER:                  -9.731
REMARK INTRA:                  -0.771
REMARK UNBOUND:                -0.939
REMARK  Name = 
REMARK  7 active torsions:
REMARK  status: ('A' for Active; 'I' for Inactive)
REMARK    1  A    between atoms: N_1  and  C_2
REMARK    2  A    between atoms: C_2  and  C_3
REMARK    3  A    between atoms: C_2  and  C_19
REMARK    4  A    between atoms: C_3  and  C_4
REMARK    5  A    between atoms: C_7  and  C_8
REMARK    6  A    between atoms: C_8  and  N_9
REMARK    7  A    between atoms: C_10  and  C_12
REMARK                            x       y       z     vdW  Elec       q    Type
REMARK                         _______ _______ _______ _____ _____    ______ ____
ROOT
ATOM      1  C   UNL     1      48.622   7.497  14.452  0.00  0.00    +0.000 C 
ENDROOT
BRANCH   1   2
ATOM      2  C   UNL     1      47.661   6.803  13.505  0.00  0.00    +0.000 A 
ATOM      3  C   UNL     1      47.072   5.574  13.824  0.00  0.00    +0.000 A 
ATOM      4  C   UNL     1      46.146   4.974  12.957  0.00  0.00    +0.000 A 
ATOM      5  C   UNL     1      45.776   5.593  11.755  0.00  0.00    +0.000 A 
ATOM      6  C   UNL     1      46.329   6.844  11.457  0.00  0.00    +0.000 A 
ATOM      7  C   UNL     1      47.264   7.437  12.318  0.00  0.00    +0.000 A 
BRANCH   5   8
ATOM      8  C   UNL     1      44.786   4.939  10.823  0.00  0.00    +0.000 C 
BRANCH   8   9
ATOM      9  N   UNL     1      45.438   4.339   9.688  0.00  0.00    +0.000 N 
ATOM     10  C   UNL     1      45.022   3.145   9.138  0.00  0.00    +0.000 C 
ATOM     11  O   UNL     1      44.071   2.508   9.582  0.00  0.00    +0.000 OA
ATOM     12  H   UNL     1      46.199   4.827   9.227  0.00  0.00    +0.000 HD
BRANCH  10  13
ATOM     13  C   UNL     1      45.811   2.729   7.993  0.00  0.00    +0.000 A 
ATOM     14  C   UNL     1      46.570   1.597   7.755  0.00  0.00    +0.000 A 
ATOM     15  C   UNL     1      47.122   1.738   6.457  0.00  0.00    +0.000 A 
ATOM     16  C   UNL     1      46.675   2.947   5.982  0.00  0.00    +0.000 A 
ATOM     17  O   UNL     1      45.879   3.554   6.897  0.00  0.00    +0.000 OA
ENDBRANCH  10  13
ENDBRANCH   8   9
ENDBRANCH   5   8
ENDBRANCH   1   2
BRANCH   1  18
ATOM     18  C   UNL     1      49.117   6.716  15.703  0.00  0.00    +0.000 C 
BRANCH  18  19
ATOM     19  C   UNL     1      48.642   7.371  16.992  0.00  0.00    +0.000 A 
ATOM     20  C   UNL     1      48.571   8.742  17.200  0.00  0.00    +0.000 A 
ATOM     21  S   UNL     1      48.047   9.167  18.767  0.00  0.00    +0.000 S 
ATOM     22  C   UNL     1      47.894   7.534  19.221  0.00  0.00    +0.000 A 
ATOM     23  N   UNL     1      47.488   7.189  20.472  0.00  0.00    +0.000 NA
ATOM     24  C   UNL     1      47.432   5.915  20.675  0.00  0.00    +0.000 A 
ATOM     25  N   UNL     1      47.742   4.955  19.744  0.00  0.00    +0.000 N 
ATOM     26  C   UNL     1      48.141   5.256  18.463  0.00  0.00    +0.000 A 
ATOM     27  O   UNL     1      48.386   4.369  17.649  0.00  0.00    +0.000 OA
ATOM     28  C   UNL     1      48.234   6.676  18.191  0.00  0.00    +0.000 A 
ATOM     29  H   UNL     1      47.668   3.975  19.966  0.00  0.00    +0.000 HD
ENDBRANCH  18  19
BRANCH  18  30
ATOM     30  N   UNL     1      50.574   6.602  15.822  0.00  0.00    +0.000 NA
ATOM     31  H   UNL     1      50.960   7.543  15.922  0.00  0.00    +0.000 HD
ATOM     32  H   UNL     1      50.969   6.229  14.963  0.00  0.00    +0.000 HD
ENDBRANCH  18  30
ENDBRANCH   1  18
TORSDOF 7
ENDMDL
MODEL 4
REMARK VINA RESULT:    -6.900      2.011      2.638
REMARK INTER + INTRA:         -10.460
REMARK INTER:                  -9.836
REMARK INTRA:                  -0.624
REMARK UNBOUND:                -0.939
REMARK  Name = 
REMARK  7 active torsions:
REMARK  status: ('A' for Active; 'I' for Inactive)
REMARK    1  A    between atoms: N_1  and  C_2
REMARK    2  A    between atoms: C_2  and  C_3
REMARK    3  A    between atoms: C_2  and  C_19
REMARK    4  A    between atoms: C_3  and  C_4
REMARK    5  A    between atoms: C_7  and  C_8
REMARK    6  A    between atoms: C_8  and  N_9
REMARK    7  A    between atoms: C_10  and  C_12
REMARK                            x       y       z     vdW  Elec       q    Type
REMARK                         _______ _______ _______ _____ _____    ______ ____
ROOT
ATOM      1  C   UNL     1      47.816   4.823  15.630  0.00  0.00    +0.000 C 
ENDROOT
BRANCH   1   2
ATOM      2  C   UNL     1      47.148   5.062  14.289  0.00  0.00    +0.000 A 
ATOM      3  C   UNL     1      46.024   4.332  13.886  0.00  0.00    +0.000 A 
ATOM      4  C   UNL     1      45.391   4.603  12.664  0.00  0.00    +0.000 A 
ATOM      5  C   UNL     1      45.857   5.620  11.820  0.00  0.00    +0.000 A 
ATOM      6  C   UNL     1      46.953   6.382  12.242  0.00  0.00    +0.000 A 
ATOM      7  C   UNL     1      47.593   6.101  13.458  0.00  0.00    +0.000 A 
BRANCH   5   8
ATOM      8  C   UNL     1      45.177   5.902  10.502  0.00  0.00    +0.000 C 
BRANCH   8   9
ATOM      9  N   UNL     1      45.736   5.115   9.434  0.00  0.00    +0.000 N 
ATOM     10  C   UNL     1      45.194   3.909   9.038  0.00  0.00    +0.000 C 
ATOM     11  O   UNL     1      44.203   3.423   9.574  0.00  0.00    +0.000 OA
ATOM     12  H   UNL     1      46.524   5.470   8.904  0.00  0.00    +0.000 HD
BRANCH  10  13
ATOM     13  C   UNL     1      45.906   3.289   7.936  0.00  0.00    +0.000 A 
ATOM     14  C   UNL     1      46.402   2.010   7.759  0.00  0.00    +0.000 A 
ATOM     15  C   UNL     1      47.011   1.979   6.479  0.00  0.00    +0.000 A 
ATOM     16  C   UNL     1      46.858   3.240   5.954  0.00  0.00    +0.000 A 
ATOM     17  O   UNL     1      46.188   4.039   6.821  0.00  0.00    +0.000 OA
ENDBRANCH  10  13
ENDBRANCH   8   9
ENDBRANCH   5   8
ENDBRANCH   1   2
BRANCH   1  18
ATOM     18  C   UNL     1      48.307   6.056  16.439  0.00  0.00    +0.000 C 
BRANCH  18  19
ATOM     19  C   UNL     1      49.823   6.062  16.581  0.00  0.00    +0.000 A 
ATOM     20  C   UNL     1      50.665   7.001  15.999  0.00  0.00    +0.000 A 
ATOM     21  S   UNL     1      52.319   6.712  16.300  0.00  0.00    +0.000 S 
ATOM     22  C   UNL     1      51.967   5.324  17.220  0.00  0.00    +0.000 A 
ATOM     23  N   UNL     1      52.961   4.579  17.774  0.00  0.00    +0.000 NA
ATOM     24  C   UNL     1      52.544   3.549  18.432  0.00  0.00    +0.000 A 
ATOM     25  N   UNL     1      51.227   3.197  18.590  0.00  0.00    +0.000 N 
ATOM     26  C   UNL     1      50.189   3.927  18.063  0.00  0.00    +0.000 A 
ATOM     27  O   UNL     1      49.020   3.595  18.246  0.00  0.00    +0.000 OA
ATOM     28  C   UNL     1      50.607   5.087  17.301  0.00  0.00    +0.000 A 
ATOM     29  H   UNL     1      50.970   2.383  19.125  0.00  0.00    +0.000 HD
ENDBRANCH  18  19
BRANCH  18  30
ATOM     30  N   UNL     1      47.775   6.152  17.803  0.00  0.00    +0.000 NA
ATOM     31  H   UNL     1      47.153   5.357  17.958  0.00  0.00    +0.000 HD
ATOM     32  H   UNL     1      47.195   6.982  17.897  0.00  0.00    +0.000 HD
ENDBRANCH  18  30
ENDBRANCH   1  18
TORSDOF 7
ENDMDL
MODEL 5
REMARK VINA RESULT:    -6.899      3.177      4.280
REMARK INTER + INTRA:         -10.459
REMARK INTER:                  -9.490
REMARK INTRA:                  -0.970
REMARK UNBOUND:                -0.939
REMARK  Name = 
REMARK  7 active torsions:
REMARK  status: ('A' for Active; 'I' for Inactive)
REMARK    1  A    between atoms: N_1  and  C_2
REMARK    2  A    between atoms: C_2  and  C_3
REMARK    3  A    between atoms: C_2  and  C_19
REMARK    4  A    between atoms: C_3  and  C_4
REMARK    5  A    between atoms: C_7  and  C_8
REMARK    6  A    between atoms: C_8  and  N_9
REMARK    7  A    between atoms: C_10  and  C_12
REMARK                            x       y       z     vdW  Elec       q    Type
REMARK                         _______ _______ _______ _____ _____    ______ ____
ROOT
ATOM      1  C   UNL     1      47.909   6.728  14.467  0.00  0.00    +0.000 C 
ENDROOT
BRANCH   1   2
ATOM      2  C   UNL     1      46.940   5.944  13.602  0.00  0.00    +0.000 A 
ATOM      3  C   UNL     1      46.300   6.524  12.501  0.00  0.00    +0.000 A 
ATOM      4  C   UNL     1      45.447   5.767  11.684  0.00  0.00    +0.000 A 
ATOM      5  C   UNL     1      45.222   4.407  11.940  0.00  0.00    +0.000 A 
ATOM      6  C   UNL     1      45.897   3.814  13.013  0.00  0.00    +0.000 A 
ATOM      7  C   UNL     1      46.739   4.575  13.836  0.00  0.00    +0.000 A 
BRANCH   5   8
ATOM      8  C   UNL     1      44.296   3.601  11.062  0.00  0.00    +0.000 C 
BRANCH   8   9
ATOM      9  N   UNL     1      45.024   2.815  10.099  0.00  0.00    +0.000 N 
ATOM     10  C   UNL     1      45.310   3.275   8.831  0.00  0.00    +0.000 C 
ATOM     11  O   UNL     1      44.960   4.382   8.434  0.00  0.00    +0.000 OA
ATOM     12  H   UNL     1      45.395   1.910  10.364  0.00  0.00    +0.000 HD
BRANCH  10  13
ATOM     13  C   UNL     1      46.063   2.328   8.028  0.00  0.00    +0.000 A 
ATOM     14  C   UNL     1      46.821   2.484   6.883  0.00  0.00    +0.000 A 
ATOM     15  C   UNL     1      47.319   1.202   6.541  0.00  0.00    +0.000 A 
ATOM     16  C   UNL     1      46.831   0.338   7.491  0.00  0.00    +0.000 A 
ATOM     17  O   UNL     1      46.075   1.005   8.398  0.00  0.00    +0.000 OA
ENDBRANCH  10  13
ENDBRANCH   8   9
ENDBRANCH   5   8
ENDBRANCH   1   2
BRANCH   1  18
ATOM     18  C   UNL     1      48.170   8.220  14.114  0.00  0.00    +0.000 C 
BRANCH  18  19
ATOM     19  C   UNL     1      49.651   8.562  14.196  0.00  0.00    +0.000 A 
ATOM     20  C   UNL     1      50.265   9.143  15.298  0.00  0.00    +0.000 A 
ATOM     21  S   UNL     1      51.928   9.450  15.067  0.00  0.00    +0.000 S 
ATOM     22  C   UNL     1      51.885   8.815  13.489  0.00  0.00    +0.000 A 
ATOM     23  N   UNL     1      53.001   8.788  12.713  0.00  0.00    +0.000 NA
ATOM     24  C   UNL     1      52.813   8.290  11.536  0.00  0.00    +0.000 A 
ATOM     25  N   UNL     1      51.615   7.815  11.065  0.00  0.00    +0.000 N 
ATOM     26  C   UNL     1      50.465   7.807  11.818  0.00  0.00    +0.000 A 
ATOM     27  O   UNL     1      49.415   7.350  11.371  0.00  0.00    +0.000 OA
ATOM     28  C   UNL     1      50.621   8.370  13.144  0.00  0.00    +0.000 A 
ATOM     29  H   UNL     1      51.540   7.430  10.137  0.00  0.00    +0.000 HD
ENDBRANCH  18  19
BRANCH  18  30
ATOM     30  N   UNL     1      47.485   9.188  14.978  0.00  0.00    +0.000 NA
ATOM     31  H   UNL     1      46.983   9.847  14.382  0.00  0.00    +0.000 HD
ATOM     32  H   UNL     1      48.165   9.742  15.493  0.00  0.00    +0.000 HD
ENDBRANCH  18  30
ENDBRANCH   1  18
TORSDOF 7
ENDMDL
MODEL 6
REMARK VINA RESULT:    -6.889      2.932      8.776
REMARK INTER + INTRA:         -10.446
REMARK INTER:                  -9.805
REMARK INTRA:                  -0.641
REMARK UNBOUND:                -0.939
REMARK  Name = 
REMARK  7 active torsions:
REMARK  status: ('A' for Active; 'I' for Inactive)
REMARK    1  A    between atoms: N_1  and  C_2
REMARK    2  A    between atoms: C_2  and  C_3
REMARK    3  A    between atoms: C_2  and  C_19
REMARK    4  A    between atoms: C_3  and  C_4
REMARK    5  A    between atoms: C_7  and  C_8
REMARK    6  A    between atoms: C_8  and  N_9
REMARK    7  A    between atoms: C_10  and  C_12
REMARK                            x       y       z     vdW  Elec       q    Type
REMARK                         _______ _______ _______ _____ _____    ______ ____
ROOT
ATOM      1  C   UNL     1      46.780   6.399  12.029  0.00  0.00    +0.000 C 
ENDROOT
BRANCH   1   2
ATOM      2  C   UNL     1      47.456   6.251  13.380  0.00  0.00    +0.000 A 
ATOM      3  C   UNL     1      48.348   7.214  13.865  0.00  0.00    +0.000 A 
ATOM      4  C   UNL     1      48.923   7.084  15.138  0.00  0.00    +0.000 A 
ATOM      5  C   UNL     1      48.611   5.994  15.964  0.00  0.00    +0.000 A 
ATOM      6  C   UNL     1      47.683   5.055  15.498  0.00  0.00    +0.000 A 
ATOM      7  C   UNL     1      47.119   5.179  14.221  0.00  0.00    +0.000 A 
BRANCH   5   8
ATOM      8  C   UNL     1      49.239   5.856  17.329  0.00  0.00    +0.000 C 
BRANCH   8   9
ATOM      9  N   UNL     1      50.244   4.825  17.351  0.00  0.00    +0.000 N 
ATOM     10  C   UNL     1      50.000   3.561  17.846  0.00  0.00    +0.000 C 
ATOM     11  O   UNL     1      48.912   3.230  18.306  0.00  0.00    +0.000 OA
ATOM     12  H   UNL     1      51.155   5.000  16.942  0.00  0.00    +0.000 HD
BRANCH  10  13
ATOM     13  C   UNL     1      51.147   2.675  17.762  0.00  0.00    +0.000 A 
ATOM     14  C   UNL     1      51.273   1.362  17.347  0.00  0.00    +0.000 A 
ATOM     15  C   UNL     1      52.640   1.015  17.488  0.00  0.00    +0.000 A 
ATOM     16  C   UNL     1      53.267   2.131  17.986  0.00  0.00    +0.000 A 
ATOM     17  O   UNL     1      52.378   3.143  18.151  0.00  0.00    +0.000 OA
ENDBRANCH  10  13
ENDBRANCH   8   9
ENDBRANCH   5   8
ENDBRANCH   1   2
BRANCH   1  18
ATOM     18  C   UNL     1      45.226   6.444  11.984  0.00  0.00    +0.000 C 
BRANCH  18  19
ATOM     19  C   UNL     1      44.637   5.075  11.674  0.00  0.00    +0.000 A 
ATOM     20  C   UNL     1      43.878   4.325  12.563  0.00  0.00    +0.000 A 
ATOM     21  S   UNL     1      43.403   2.808  11.942  0.00  0.00    +0.000 S 
ATOM     22  C   UNL     1      44.193   3.103  10.463  0.00  0.00    +0.000 A 
ATOM     23  N   UNL     1      44.186   2.177   9.467  0.00  0.00    +0.000 NA
ATOM     24  C   UNL     1      44.838   2.533   8.411  0.00  0.00    +0.000 A 
ATOM     25  N   UNL     1      45.492   3.730   8.257  0.00  0.00    +0.000 N 
ATOM     26  C   UNL     1      45.513   4.702   9.228  0.00  0.00    +0.000 A 
ATOM     27  O   UNL     1      46.089   5.772   9.045  0.00  0.00    +0.000 OA
ATOM     28  C   UNL     1      44.807   4.342  10.442  0.00  0.00    +0.000 A 
ATOM     29  H   UNL     1      45.975   3.949   7.400  0.00  0.00    +0.000 HD
ENDBRANCH  18  19
BRANCH  18  30
ATOM     30  N   UNL     1      44.665   7.359  10.984  0.00  0.00    +0.000 NA
ATOM     31  H   UNL     1      45.332   7.438  10.215  0.00  0.00    +0.000 HD
ATOM     32  H   UNL     1      44.576   8.294  11.374  0.00  0.00    +0.000 HD
ENDBRANCH  18  30
ENDBRANCH   1  18
TORSDOF 7
ENDMDL
MODEL 7
REMARK VINA RESULT:    -6.464      1.691      2.357
REMARK INTER + INTRA:          -9.859
REMARK INTER:                  -9.221
REMARK INTRA:                  -0.638
REMARK UNBOUND:                -0.939
REMARK  Name = 
REMARK  7 active torsions:
REMARK  status: ('A' for Active; 'I' for Inactive)
REMARK    1  A    between atoms: N_1  and  C_2
REMARK    2  A    between atoms: C_2  and  C_3
REMARK    3  A    between atoms: C_2  and  C_19
REMARK    4  A    between atoms: C_3  and  C_4
REMARK    5  A    between atoms: C_7  and  C_8
REMARK    6  A    between atoms: C_8  and  N_9
REMARK    7  A    between atoms: C_10  and  C_12
REMARK                            x       y       z     vdW  Elec       q    Type
REMARK                         _______ _______ _______ _____ _____    ______ ____
ROOT
ATOM      1  C   UNL     1      48.243   7.472  14.615  0.00  0.00    +0.000 C 
ENDROOT
BRANCH   1   2
ATOM      2  C   UNL     1      47.328   6.844  13.581  0.00  0.00    +0.000 A 
ATOM      3  C   UNL     1      47.078   5.467  13.558  0.00  0.00    +0.000 A 
ATOM      4  C   UNL     1      46.189   4.913  12.625  0.00  0.00    +0.000 A 
ATOM      5  C   UNL     1      45.516   5.723  11.700  0.00  0.00    +0.000 A 
ATOM      6  C   UNL     1      45.729   7.106  11.751  0.00  0.00    +0.000 A 
ATOM      7  C   UNL     1      46.628   7.657  12.675  0.00  0.00    +0.000 A 
BRANCH   5   8
ATOM      8  C   UNL     1      44.567   5.120  10.693  0.00  0.00    +0.000 C 
BRANCH   8   9
ATOM      9  N   UNL     1      45.264   4.345   9.700  0.00  0.00    +0.000 N 
ATOM     10  C   UNL     1      44.922   3.043   9.400  0.00  0.00    +0.000 C 
ATOM     11  O   UNL     1      44.003   2.454   9.963  0.00  0.00    +0.000 OA
ATOM     12  H   UNL     1      46.002   4.773   9.152  0.00  0.00    +0.000 HD
BRANCH  10  13
ATOM     13  C   UNL     1      45.746   2.452   8.361  0.00  0.00    +0.000 A 
ATOM     14  C   UNL     1      46.274   2.970   7.194  0.00  0.00    +0.000 A 
ATOM     15  C   UNL     1      46.997   1.923   6.569  0.00  0.00    +0.000 A 
ATOM     16  C   UNL     1      46.862   0.827   7.386  0.00  0.00    +0.000 A 
ATOM     17  O   UNL     1      46.113   1.133   8.474  0.00  0.00    +0.000 OA
ENDBRANCH  10  13
ENDBRANCH   8   9
ENDBRANCH   5   8
ENDBRANCH   1   2
BRANCH   1  18
ATOM     18  C   UNL     1      49.370   6.596  15.231  0.00  0.00    +0.000 C 
BRANCH  18  19
ATOM     19  C   UNL     1      49.049   6.199  16.664  0.00  0.00    +0.000 A 
ATOM     20  C   UNL     1      48.760   4.905  17.077  0.00  0.00    +0.000 A 
ATOM     21  S   UNL     1      48.391   4.787  18.739  0.00  0.00    +0.000 S 
ATOM     22  C   UNL     1      48.607   6.460  18.964  0.00  0.00    +0.000 A 
ATOM     23  N   UNL     1      48.427   7.033  20.184  0.00  0.00    +0.000 NA
ATOM     24  C   UNL     1      48.612   8.311  20.200  0.00  0.00    +0.000 A 
ATOM     25  N   UNL     1      48.963   9.068  19.110  0.00  0.00    +0.000 N 
ATOM     26  C   UNL     1      49.170   8.532  17.861  0.00  0.00    +0.000 A 
ATOM     27  O   UNL     1      49.507   9.238  16.914  0.00  0.00    +0.000 OA
ATOM     28  C   UNL     1      48.959   7.100  17.790  0.00  0.00    +0.000 A 
ATOM     29  H   UNL     1      49.100  10.062  19.193  0.00  0.00    +0.000 HD
ENDBRANCH  18  19
BRANCH  18  30
ATOM     30  N   UNL     1      50.691   7.233  15.276  0.00  0.00    +0.000 NA
ATOM     31  H   UNL     1      50.628   8.054  15.880  0.00  0.00    +0.000 HD
ATOM     32  H   UNL     1      50.944   7.583  14.355  0.00  0.00    +0.000 HD
ENDBRANCH  18  30
ENDBRANCH   1  18
TORSDOF 7
ENDMDL
MODEL 8
REMARK VINA RESULT:    -6.292      1.875      2.504
REMARK INTER + INTRA:          -9.622
REMARK INTER:                  -9.060
REMARK INTRA:                  -0.562
REMARK UNBOUND:                -0.939
REMARK  Name = 
REMARK  7 active torsions:
REMARK  status: ('A' for Active; 'I' for Inactive)
REMARK    1  A    between atoms: N_1  and  C_2
REMARK    2  A    between atoms: C_2  and  C_3
REMARK    3  A    between atoms: C_2  and  C_19
REMARK    4  A    between atoms: C_3  and  C_4
REMARK    5  A    between atoms: C_7  and  C_8
REMARK    6  A    between atoms: C_8  and  N_9
REMARK    7  A    between atoms: C_10  and  C_12
REMARK                            x       y       z     vdW  Elec       q    Type
REMARK                         _______ _______ _______ _____ _____    ______ ____
ROOT
ATOM      1  C   UNL     1      48.630   6.441  15.177  0.00  0.00    +0.000 C 
ENDROOT
BRANCH   1   2
ATOM      2  C   UNL     1      47.671   6.192  14.028  0.00  0.00    +0.000 A 
ATOM      3  C   UNL     1      46.739   5.148  14.060  0.00  0.00    +0.000 A 
ATOM      4  C   UNL     1      45.827   4.967  13.010  0.00  0.00    +0.000 A 
ATOM      5  C   UNL     1      45.814   5.832  11.906  0.00  0.00    +0.000 A 
ATOM      6  C   UNL     1      46.715   6.904  11.895  0.00  0.00    +0.000 A 
ATOM      7  C   UNL     1      47.634   7.076  12.939  0.00  0.00    +0.000 A 
BRANCH   5   8
ATOM      8  C   UNL     1      44.836   5.626  10.775  0.00  0.00    +0.000 C 
BRANCH   8   9
ATOM      9  N   UNL     1      45.437   4.925   9.671  0.00  0.00    +0.000 N 
ATOM     10  C   UNL     1      45.061   3.648   9.308  0.00  0.00    +0.000 C 
ATOM     11  O   UNL     1      44.191   3.021   9.906  0.00  0.00    +0.000 OA
ATOM     12  H   UNL     1      46.126   5.391   9.092  0.00  0.00    +0.000 HD
BRANCH  10  13
ATOM     13  C   UNL     1      45.785   3.135   8.160  0.00  0.00    +0.000 A 
ATOM     14  C   UNL     1      46.325   1.891   7.889  0.00  0.00    +0.000 A 
ATOM     15  C   UNL     1      46.924   1.974   6.606  0.00  0.00    +0.000 A 
ATOM     16  C   UNL     1      46.722   3.263   6.174  0.00  0.00    +0.000 A 
ATOM     17  O   UNL     1      46.031   3.973   7.101  0.00  0.00    +0.000 OA
ENDBRANCH  10  13
ENDBRANCH   8   9
ENDBRANCH   5   8
ENDBRANCH   1   2
BRANCH   1  18
ATOM     18  C   UNL     1      48.421   5.645  16.496  0.00  0.00    +0.000 C 
BRANCH  18  19
ATOM     19  C   UNL     1      48.818   6.468  17.713  0.00  0.00    +0.000 A 
ATOM     20  C   UNL     1      47.924   6.975  18.647  0.00  0.00    +0.000 A 
ATOM     21  S   UNL     1      48.669   7.901  19.871  0.00  0.00    +0.000 S 
ATOM     22  C   UNL     1      50.212   7.655  19.197  0.00  0.00    +0.000 A 
ATOM     23  N   UNL     1      51.321   8.201  19.764  0.00  0.00    +0.000 NA
ATOM     24  C   UNL     1      52.418   7.940  19.135  0.00  0.00    +0.000 A 
ATOM     25  N   UNL     1      52.510   7.182  17.995  0.00  0.00    +0.000 N 
ATOM     26  C   UNL     1      51.420   6.597  17.396  0.00  0.00    +0.000 A 
ATOM     27  O   UNL     1      51.544   5.903  16.389  0.00  0.00    +0.000 OA
ATOM     28  C   UNL     1      50.161   6.874  18.057  0.00  0.00    +0.000 A 
ATOM     29  H   UNL     1      53.401   7.009  17.559  0.00  0.00    +0.000 HD
ENDBRANCH  18  19
BRANCH  18  30
ATOM     30  N   UNL     1      49.184   4.395  16.590  0.00  0.00    +0.000 NA
ATOM     31  H   UNL     1      49.887   4.506  17.322  0.00  0.00    +0.000 HD
ATOM     32  H   UNL     1      49.701   4.233  15.730  0.00  0.00    +0.000 HD
ENDBRANCH  18  30
ENDBRANCH   1  18
TORSDOF 7
ENDMDL
MODEL 9
REMARK VINA RESULT:    -6.071      2.047      2.569
REMARK INTER + INTRA:          -9.317
REMARK INTER:                  -8.652
REMARK INTRA:                  -0.665
REMARK UNBOUND:                -0.939
REMARK  Name = 
REMARK  7 active torsions:
REMARK  status: ('A' for Active; 'I' for Inactive)
REMARK    1  A    between atoms: N_1  and  C_2
REMARK    2  A    between atoms: C_2  and  C_3
REMARK    3  A    between atoms: C_2  and  C_19
REMARK    4  A    between atoms: C_3  and  C_4
REMARK    5  A    between atoms: C_7  and  C_8
REMARK    6  A    between atoms: C_8  and  N_9
REMARK    7  A    between atoms: C_10  and  C_12
REMARK                            x       y       z     vdW  Elec       q    Type
REMARK                         _______ _______ _______ _____ _____    ______ ____
ROOT
ATOM      1  C   UNL     1      47.260   7.966  13.921  0.00  0.00    +0.000 C 
ENDROOT
BRANCH   1   2
ATOM      2  C   UNL     1      46.541   6.959  13.042  0.00  0.00    +0.000 A 
ATOM      3  C   UNL     1      46.120   7.282  11.747  0.00  0.00    +0.000 A 
ATOM      4  C   UNL     1      45.502   6.321  10.932  0.00  0.00    +0.000 A 
ATOM      5  C   UNL     1      45.302   5.010  11.386  0.00  0.00    +0.000 A 
ATOM      6  C   UNL     1      45.765   4.673  12.664  0.00  0.00    +0.000 A 
ATOM      7  C   UNL     1      46.370   5.638  13.482  0.00  0.00    +0.000 A 
BRANCH   5   8
ATOM      8  C   UNL     1      44.630   3.983  10.507  0.00  0.00    +0.000 C 
BRANCH   8   9
ATOM      9  N   UNL     1      45.413   3.688   9.336  0.00  0.00    +0.000 N 
ATOM     10  C   UNL     1      45.386   2.456   8.716  0.00  0.00    +0.000 C 
ATOM     11  O   UNL     1      44.697   1.526   9.124  0.00  0.00    +0.000 OA
ATOM     12  H   UNL     1      45.969   4.417   8.904  0.00  0.00    +0.000 HD
BRANCH  10  13
ATOM     13  C   UNL     1      46.241   2.378   7.546  0.00  0.00    +0.000 A 
ATOM     14  C   UNL     1      47.295   1.542   7.225  0.00  0.00    +0.000 A 
ATOM     15  C   UNL     1      47.757   1.936   5.944  0.00  0.00    +0.000 A 
ATOM     16  C   UNL     1      46.964   2.990   5.561  0.00  0.00    +0.000 A 
ATOM     17  O   UNL     1      46.041   3.265   6.517  0.00  0.00    +0.000 OA
ENDBRANCH  10  13
ENDBRANCH   8   9
ENDBRANCH   5   8
ENDBRANCH   1   2
BRANCH   1  18
ATOM     18  C   UNL     1      48.749   8.287  13.608  0.00  0.00    +0.000 C 
BRANCH  18  19
ATOM     19  C   UNL     1      49.462   8.865  14.822  0.00  0.00    +0.000 A 
ATOM     20  C   UNL     1      49.773  10.208  14.987  0.00  0.00    +0.000 A 
ATOM     21  S   UNL     1      50.619  10.538  16.432  0.00  0.00    +0.000 S 
ATOM     22  C   UNL     1      50.597   8.899  16.887  0.00  0.00    +0.000 A 
ATOM     23  N   UNL     1      51.176   8.484  18.045  0.00  0.00    +0.000 NA
ATOM     24  C   UNL     1      51.092   7.212  18.251  0.00  0.00    +0.000 A 
ATOM     25  N   UNL     1      50.481   6.317  17.408  0.00  0.00    +0.000 N 
ATOM     26  C   UNL     1      49.868   6.692  16.236  0.00  0.00    +0.000 A 
ATOM     27  O   UNL     1      49.309   5.866  15.519  0.00  0.00    +0.000 OA
ATOM     28  C   UNL     1      49.949   8.111  15.953  0.00  0.00    +0.000 A 
ATOM     29  H   UNL     1      50.443   5.336  17.635  0.00  0.00    +0.000 HD
ENDBRANCH  18  19
BRANCH  18  30
ATOM     30  N   UNL     1      48.957   9.251  12.522  0.00  0.00    +0.000 NA
ATOM     31  H   UNL     1      49.405   8.764  11.745  0.00  0.00    +0.000 HD
ATOM     32  H   UNL     1      49.612   9.973  12.814  0.00  0.00    +0.000 HD
ENDBRANCH  18  30
ENDBRANCH   1  18
TORSDOF 7
ENDMDL
