MODEL 1
REMARK VINA RESULT:    -7.490      0.000      0.000
REMARK INTER + INTRA:         -13.038
REMARK INTER:                 -11.650
REMARK INTRA:                  -1.387
REMARK UNBOUND:                -1.387
REMARK  Name = 
REMARK  11 active torsions:
REMARK  status: ('A' for Active; 'I' for Inactive)
REMARK    1  A    between atoms: C_1  and  C_2
REMARK    2  A    between atoms: C_2  and  N_3
REMARK    3  A    between atoms: C_2  and  C_22
REMARK    4  A    between atoms: N_3  and  C_4
REMARK    5  A    between atoms: C_4  and  C_5
REMARK    6  A    between atoms: C_8  and  C_9
REMARK    7  A    between atoms: C_9  and  N_10
REMARK    8  A    between atoms: N_10  and  CA_11
REMARK    9  A    between atoms: CA_11  and  C_12
REMARK   10  A    between atoms: CA_11  and  C_14
REMARK   11  A    between atoms: C_12  and  O_13
REMARK                            x       y       z     vdW  Elec       q    Type
REMARK                         _______ _______ _______ _____ _____    ______ ____
ROOT
ATOM      1  C   UNL     1      47.142   7.957  12.632  0.00  0.00    +0.000 A 
ATOM      2  N   UNL     1      47.412   6.968  11.756  0.00  0.00    +0.000 NA
ATOM      3  C   UNL     1      46.370   6.211  11.357  0.00  0.00    +0.000 A 
ATOM      4  C   UNL     1      45.077   6.389  11.808  0.00  0.00    +0.000 A 
ATOM      5  C   UNL     1      44.917   7.419  12.710  0.00  0.00    +0.000 A 
ATOM      6  N   UNL     1      45.916   8.209  13.140  0.00  0.00    +0.000 NA
ENDROOT
BRANCH   1   7
ATOM      7  C   UNL     1      48.303   8.731  13.233  0.00  0.00    +0.000 C 
BRANCH   7   8
ATOM      8  N   UNL     1      48.530   8.585  14.694  0.00  0.00    +0.000 NA
ATOM      9  H   UNL     1      47.619   8.609  15.154  0.00  0.00    +0.000 HD
BRANCH   8  11
ATOM     10  C   UNL     1      50.708   7.391  14.994  0.00  0.00    +0.000 C 
ATOM     11  C   UNL     1      49.167   7.288  14.969  0.00  0.00    +0.000 C 
BRANCH  11  12
ATOM     12  C   UNL     1      48.748   6.744  16.319  0.00  0.00    +0.000 A 
ATOM     13  C   UNL     1      49.098   7.299  17.541  0.00  0.00    +0.000 A 
ATOM     14  S   UNL     1      49.102   6.136  18.799  0.00  0.00    +0.000 S 
ATOM     15  C   UNL     1      48.484   4.931  17.765  0.00  0.00    +0.000 A 
ATOM     16  N   UNL     1      48.358   3.635  18.162  0.00  0.00    +0.000 NA
ATOM     17  C   UNL     1      47.797   2.867  17.287  0.00  0.00    +0.000 A 
ATOM     18  N   UNL     1      47.314   3.283  16.070  0.00  0.00    +0.000 N 
ATOM     19  C   UNL     1      47.440   4.577  15.618  0.00  0.00    +0.000 A 
ATOM     20  O   UNL     1      46.950   4.940  14.554  0.00  0.00    +0.000 OA
ATOM     21  C   UNL     1      48.154   5.449  16.528  0.00  0.00    +0.000 A 
ATOM     22  H   UNL     1      46.801   2.651  15.474  0.00  0.00    +0.000 HD
ENDBRANCH  11  12
ENDBRANCH   8  11
ENDBRANCH   7   8
ENDBRANCH   1   7
BRANCH   4  23
ATOM     23  C   UNL     1      43.915   5.609  11.288  0.00  0.00    +0.000 C 
BRANCH  23  24
ATOM     24  N   UNL     1      44.078   5.194   9.895  0.00  0.00    +0.000 NA
ATOM     25  H   UNL     1      44.936   5.579   9.502  0.00  0.00    +0.000 HD
BRANCH  24  26
ATOM     26  CA  UNL     1      44.091   3.714   9.763  0.00  0.00    +0.000 C 
BRANCH  26  27
ATOM     27  C   UNL     1      45.237   3.227   8.881  0.00  0.00    +0.000 A 
ATOM     28  C   UNL     1      45.553   1.871   8.822  0.00  0.00    +0.000 A 
ATOM     29  N   UNL     1      46.446   1.363   7.939  0.00  0.00    +0.000 NA
ATOM     30  C   UNL     1      47.020   2.266   7.118  0.00  0.00    +0.000 A 
ATOM     31  C   UNL     1      46.727   3.616   7.176  0.00  0.00    +0.000 A 
ATOM     32  N   UNL     1      45.845   4.131   8.064  0.00  0.00    +0.000 NA
ENDBRANCH  26  27
BRANCH  26  33
ATOM     33  C   UNL     1      44.156   3.030  11.152  0.00  0.00    +0.000 C 
BRANCH  33  34
ATOM     34  O   UNL     1      43.057   2.162  11.414  0.00  0.00    +0.000 OA
ATOM     35  H   UNL     1      42.641   2.484  12.243  0.00  0.00    +0.000 HD
ENDBRANCH  33  34
ENDBRANCH  26  33
ENDBRANCH  24  26
ENDBRANCH  23  24
ENDBRANCH   4  23
TORSDOF 10
ENDMDL
MODEL 2
REMARK VINA RESULT:    -7.388      1.694      2.225
REMARK INTER + INTRA:         -12.879
REMARK INTER:                 -11.352
REMARK INTRA:                  -1.527
REMARK UNBOUND:                -1.387
REMARK  Name = 
REMARK  11 active torsions:
REMARK  status: ('A' for Active; 'I' for Inactive)
REMARK    1  A    between atoms: C_1  and  C_2
REMARK    2  A    between atoms: C_2  and  N_3
REMARK    3  A    between atoms: C_2  and  C_22
REMARK    4  A    between atoms: N_3  and  C_4
REMARK    5  A    between atoms: C_4  and  C_5
REMARK    6  A    between atoms: C_8  and  C_9
REMARK    7  A    between atoms: C_9  and  N_10
REMARK    8  A    between atoms: N_10  and  CA_11
REMARK    9  A    between atoms: CA_11  and  C_12
REMARK   10  A    between atoms: CA_11  and  C_14
REMARK   11  A    between atoms: C_12  and  O_13
REMARK                            x       y       z     vdW  Elec       q    Type
REMARK                         _______ _______ _______ _____ _____    ______ ____
ROOT
ATOM      1  C   UNL     1      47.964   6.958  13.770  0.00  0.00    +0.000 A 
ATOM      2  N   UNL     1      47.060   7.853  13.320  0.00  0.00    +0.000 NA
ATOM      3  C   UNL     1      45.880   7.359  12.891  0.00  0.00    +0.000 A 
ATOM      4  C   UNL     1      45.573   6.013  12.878  0.00  0.00    +0.000 A 
ATOM      5  C   UNL     1      46.573   5.188  13.347  0.00  0.00    +0.000 A 
ATOM      6  N   UNL     1      47.765   5.623  13.791  0.00  0.00    +0.000 NA
ENDROOT
BRANCH   1   7
ATOM      7  C   UNL     1      49.361   7.447  14.111  0.00  0.00    +0.000 C 
BRANCH   7   8
ATOM      8  N   UNL     1      50.149   6.630  15.070  0.00  0.00    +0.000 NA
ATOM      9  H   UNL     1      51.059   6.446  14.647  0.00  0.00    +0.000 HD
BRANCH   8  11
ATOM     10  C   UNL     1      50.467   8.904  16.064  0.00  0.00    +0.000 C 
ATOM     11  C   UNL     1      50.348   7.384  16.317  0.00  0.00    +0.000 C 
BRANCH  11  12
ATOM     12  C   UNL     1      49.186   7.193  17.268  0.00  0.00    +0.000 A 
ATOM     13  C   UNL     1      48.322   8.199  17.675  0.00  0.00    +0.000 A 
ATOM     14  S   UNL     1      47.624   7.869  19.206  0.00  0.00    +0.000 S 
ATOM     15  C   UNL     1      48.336   6.322  19.260  0.00  0.00    +0.000 A 
ATOM     16  N   UNL     1      48.258   5.529  20.364  0.00  0.00    +0.000 NA
ATOM     17  C   UNL     1      48.779   4.356  20.211  0.00  0.00    +0.000 A 
ATOM     18  N   UNL     1      49.334   3.889  19.045  0.00  0.00    +0.000 N 
ATOM     19  C   UNL     1      49.456   4.661  17.912  0.00  0.00    +0.000 A 
ATOM     20  O   UNL     1      49.903   4.206  16.865  0.00  0.00    +0.000 OA
ATOM     21  C   UNL     1      48.974   6.018  18.073  0.00  0.00    +0.000 A 
ATOM     22  H   UNL     1      49.638   2.930  18.965  0.00  0.00    +0.000 HD
ENDBRANCH  11  12
ENDBRANCH   8  11
ENDBRANCH   7   8
ENDBRANCH   1   7
BRANCH   4  23
ATOM     23  C   UNL     1      44.232   5.485  12.493  0.00  0.00    +0.000 C 
BRANCH  23  24
ATOM     24  N   UNL     1      44.047   5.384  11.046  0.00  0.00    +0.000 NA
ATOM     25  H   UNL     1      44.887   5.682  10.554  0.00  0.00    +0.000 HD
BRANCH  24  26
ATOM     26  CA  UNL     1      43.693   4.000  10.635  0.00  0.00    +0.000 C 
BRANCH  26  27
ATOM     27  C   UNL     1      44.568   3.501   9.489  0.00  0.00    +0.000 A 
ATOM     28  C   UNL     1      45.200   4.406   8.639  0.00  0.00    +0.000 A 
ATOM     29  N   UNL     1      46.114   4.029   7.713  0.00  0.00    +0.000 NA
ATOM     30  C   UNL     1      46.368   2.705   7.662  0.00  0.00    +0.000 A 
ATOM     31  C   UNL     1      45.737   1.794   8.489  0.00  0.00    +0.000 A 
ATOM     32  N   UNL     1      44.814   2.164   9.408  0.00  0.00    +0.000 NA
ENDBRANCH  26  27
BRANCH  26  33
ATOM     33  C   UNL     1      43.774   3.023  11.834  0.00  0.00    +0.000 C 
BRANCH  33  34
ATOM     34  O   UNL     1      42.878   1.919  11.735  0.00  0.00    +0.000 OA
ATOM     35  H   UNL     1      43.232   1.338  11.027  0.00  0.00    +0.000 HD
ENDBRANCH  33  34
ENDBRANCH  26  33
ENDBRANCH  24  26
ENDBRANCH  23  24
ENDBRANCH   4  23
TORSDOF 10
ENDMDL
MODEL 3
REMARK VINA RESULT:    -7.257      1.773      2.493
REMARK INTER + INTRA:         -12.674
REMARK INTER:                 -11.579
REMARK INTRA:                  -1.095
REMARK UNBOUND:                -1.387
REMARK  Name = 
REMARK  11 active torsions:
REMARK  status: ('A' for Active; 'I' for Inactive)
REMARK    1  A    between atoms: C_1  and  C_2
REMARK    2  A    between atoms: C_2  and  N_3
REMARK    3  A    between atoms: C_2  and  C_22
REMARK    4  A    between atoms: N_3  and  C_4
REMARK    5  A    between atoms: C_4  and  C_5
REMARK    6  A    between atoms: C_8  and  C_9
REMARK    7  A    between atoms: C_9  and  N_10
REMARK    8  A    between atoms: N_10  and  CA_11
REMARK    9  A    between atoms: CA_11  and  C_12
REMARK   10  A    between atoms: CA_11  and  C_14
REMARK   11  A    between atoms: C_12  and  O_13
REMARK                            x       y       z     vdW  Elec       q    Type
REMARK                         _______ _______ _______ _____ _____    ______ ____
ROOT
ATOM      1  C   UNL     1      48.257   6.836  14.763  0.00  0.00    +0.000 A 
ATOM      2  N   UNL     1      47.937   5.527  14.720  0.00  0.00    +0.000 NA
ATOM      3  C   UNL     1      47.125   5.135  13.717  0.00  0.00    +0.000 A 
ATOM      4  C   UNL     1      46.607   5.996  12.770  0.00  0.00    +0.000 A 
ATOM      5  C   UNL     1      46.988   7.313  12.918  0.00  0.00    +0.000 A 
ATOM      6  N   UNL     1      47.798   7.760  13.893  0.00  0.00    +0.000 NA
ENDROOT
BRANCH   1   7
ATOM      7  C   UNL     1      49.035   7.353  15.962  0.00  0.00    +0.000 C 
BRANCH   7   8
ATOM      8  N   UNL     1      48.349   7.319  17.280  0.00  0.00    +0.000 NA
ATOM      9  H   UNL     1      47.699   6.533  17.271  0.00  0.00    +0.000 HD
BRANCH   8  11
ATOM     10  C   UNL     1      48.756   7.412  19.746  0.00  0.00    +0.000 C 
ATOM     11  C   UNL     1      49.337   7.107  18.348  0.00  0.00    +0.000 C 
BRANCH  11  12
ATOM     12  C   UNL     1      49.812   5.669  18.381  0.00  0.00    +0.000 A 
ATOM     13  C   UNL     1      51.126   5.273  18.582  0.00  0.00    +0.000 A 
ATOM     14  S   UNL     1      51.454   3.745  17.880  0.00  0.00    +0.000 S 
ATOM     15  C   UNL     1      49.819   3.529  17.449  0.00  0.00    +0.000 A 
ATOM     16  N   UNL     1      49.405   2.475  16.693  0.00  0.00    +0.000 NA
ATOM     17  C   UNL     1      48.125   2.415  16.526  0.00  0.00    +0.000 A 
ATOM     18  N   UNL     1      47.218   3.287  17.078  0.00  0.00    +0.000 N 
ATOM     19  C   UNL     1      47.592   4.379  17.829  0.00  0.00    +0.000 A 
ATOM     20  O   UNL     1      46.764   5.111  18.360  0.00  0.00    +0.000 OA
ATOM     21  C   UNL     1      49.026   4.539  17.956  0.00  0.00    +0.000 A 
ATOM     22  H   UNL     1      46.226   3.128  16.986  0.00  0.00    +0.000 HD
ENDBRANCH  11  12
ENDBRANCH   8  11
ENDBRANCH   7   8
ENDBRANCH   1   7
BRANCH   4  23
ATOM     23  C   UNL     1      45.788   5.538  11.610  0.00  0.00    +0.000 C 
BRANCH  23  24
ATOM     24  N   UNL     1      45.388   4.134  11.706  0.00  0.00    +0.000 NA
ATOM     25  H   UNL     1      44.999   3.933  12.626  0.00  0.00    +0.000 HD
BRANCH  24  26
ATOM     26  CA  UNL     1      44.399   3.773  10.658  0.00  0.00    +0.000 C 
BRANCH  26  27
ATOM     27  C   UNL     1      45.072   3.353   9.354  0.00  0.00    +0.000 A 
ATOM     28  C   UNL     1      45.450   4.311   8.416  0.00  0.00    +0.000 A 
ATOM     29  N   UNL     1      46.193   4.016   7.323  0.00  0.00    +0.000 NA
ATOM     30  C   UNL     1      46.540   2.719   7.197  0.00  0.00    +0.000 A 
ATOM     31  C   UNL     1      46.160   1.755   8.112  0.00  0.00    +0.000 A 
ATOM     32  N   UNL     1      45.407   2.042   9.201  0.00  0.00    +0.000 NA
ENDBRANCH  26  27
BRANCH  26  33
ATOM     33  C   UNL     1      43.446   2.655  11.152  0.00  0.00    +0.000 C 
BRANCH  33  34
ATOM     34  O   UNL     1      43.690   2.247  12.496  0.00  0.00    +0.000 OA
ATOM     35  H   UNL     1      44.536   2.666  12.763  0.00  0.00    +0.000 HD
ENDBRANCH  33  34
ENDBRANCH  26  33
ENDBRANCH  24  26
ENDBRANCH  23  24
ENDBRANCH   4  23
TORSDOF 10
ENDMDL
MODEL 4
REMARK VINA RESULT:    -7.132      1.692      2.068
REMARK INTER + INTRA:         -12.480
REMARK INTER:                 -11.451
REMARK INTRA:                  -1.028
REMARK UNBOUND:                -1.387
REMARK  Name = 
REMARK  11 active torsions:
REMARK  status: ('A' for Active; 'I' for Inactive)
REMARK    1  A    between atoms: C_1  and  C_2
REMARK    2  A    between atoms: C_2  and  N_3
REMARK    3  A    between atoms: C_2  and  C_22
REMARK    4  A    between atoms: N_3  and  C_4
REMARK    5  A    between atoms: C_4  and  C_5
REMARK    6  A    between atoms: C_8  and  C_9
REMARK    7  A    between atoms: C_9  and  N_10
REMARK    8  A    between atoms: N_10  and  CA_11
REMARK    9  A    between atoms: CA_11  and  C_12
REMARK   10  A    between atoms: CA_11  and  C_14
REMARK   11  A    between atoms: C_12  and  O_13
REMARK                            x       y       z     vdW  Elec       q    Type
REMARK                         _______ _______ _______ _____ _____    ______ ____
ROOT
ATOM      1  C   UNL     1      47.517   7.137  13.665  0.00  0.00    +0.000 A 
ATOM      2  N   UNL     1      46.603   8.034  13.242  0.00  0.00    +0.000 NA
ATOM      3  C   UNL     1      45.470   7.536  12.704  0.00  0.00    +0.000 A 
ATOM      4  C   UNL     1      45.221   6.186  12.557  0.00  0.00    +0.000 A 
ATOM      5  C   UNL     1      46.228   5.360  13.011  0.00  0.00    +0.000 A 
ATOM      6  N   UNL     1      47.374   5.799  13.559  0.00  0.00    +0.000 NA
ENDROOT
BRANCH   1   7
ATOM      7  C   UNL     1      48.871   7.646  14.128  0.00  0.00    +0.000 C 
BRANCH   7   8
ATOM      8  N   UNL     1      49.777   6.663  14.778  0.00  0.00    +0.000 NA
ATOM      9  H   UNL     1      50.553   6.486  14.139  0.00  0.00    +0.000 HD
BRANCH   8  11
ATOM     10  C   UNL     1      49.249   8.053  16.790  0.00  0.00    +0.000 C 
ATOM     11  C   UNL     1      50.310   7.230  16.026  0.00  0.00    +0.000 C 
BRANCH  11  12
ATOM     12  C   UNL     1      50.775   6.142  16.970  0.00  0.00    +0.000 A 
ATOM     13  C   UNL     1      52.028   6.091  17.565  0.00  0.00    +0.000 A 
ATOM     14  S   UNL     1      52.490   4.488  17.956  0.00  0.00    +0.000 S 
ATOM     15  C   UNL     1      50.971   3.875  17.490  0.00  0.00    +0.000 A 
ATOM     16  N   UNL     1      50.714   2.538  17.447  0.00  0.00    +0.000 NA
ATOM     17  C   UNL     1      49.490   2.244  17.153  0.00  0.00    +0.000 A 
ATOM     18  N   UNL     1      48.491   3.162  16.939  0.00  0.00    +0.000 N 
ATOM     19  C   UNL     1      48.708   4.521  16.950  0.00  0.00    +0.000 A 
ATOM     20  O   UNL     1      47.791   5.323  16.815  0.00  0.00    +0.000 OA
ATOM     21  C   UNL     1      50.091   4.892  17.177  0.00  0.00    +0.000 A 
ATOM     22  H   UNL     1      47.536   2.865  16.808  0.00  0.00    +0.000 HD
ENDBRANCH  11  12
ENDBRANCH   8  11
ENDBRANCH   7   8
ENDBRANCH   1   7
BRANCH   4  23
ATOM     23  C   UNL     1      43.926   5.644  12.050  0.00  0.00    +0.000 C 
BRANCH  23  24
ATOM     24  N   UNL     1      43.929   5.402  10.608  0.00  0.00    +0.000 NA
ATOM     25  H   UNL     1      44.806   5.714  10.192  0.00  0.00    +0.000 HD
BRANCH  24  26
ATOM     26  CA  UNL     1      43.711   3.966  10.292  0.00  0.00    +0.000 C 
BRANCH  26  27
ATOM     27  C   UNL     1      44.667   3.464   9.215  0.00  0.00    +0.000 A 
ATOM     28  C   UNL     1      45.356   4.366   8.407  0.00  0.00    +0.000 A 
ATOM     29  N   UNL     1      46.335   3.987   7.551  0.00  0.00    +0.000 NA
ATOM     30  C   UNL     1      46.595   2.664   7.525  0.00  0.00    +0.000 A 
ATOM     31  C   UNL     1      45.910   1.756   8.310  0.00  0.00    +0.000 A 
ATOM     32  N   UNL     1      44.922   2.127   9.159  0.00  0.00    +0.000 NA
ENDBRANCH  26  27
BRANCH  26  33
ATOM     33  C   UNL     1      43.833   3.091  11.565  0.00  0.00    +0.000 C 
BRANCH  33  34
ATOM     34  O   UNL     1      42.903   2.012  11.609  0.00  0.00    +0.000 OA
ATOM     35  H   UNL     1      43.349   1.244  11.189  0.00  0.00    +0.000 HD
ENDBRANCH  33  34
ENDBRANCH  26  33
ENDBRANCH  24  26
ENDBRANCH  23  24
ENDBRANCH   4  23
TORSDOF 10
ENDMDL
MODEL 5
REMARK VINA RESULT:    -7.091      3.551      4.503
REMARK INTER + INTRA:         -12.417
REMARK INTER:                 -11.249
REMARK INTRA:                  -1.168
REMARK UNBOUND:                -1.387
REMARK  Name = 
REMARK  11 active torsions:
REMARK  status: ('A' for Active; 'I' for Inactive)
REMARK    1  A    between atoms: C_1  and  C_2
REMARK    2  A    between atoms: C_2  and  N_3
REMARK    3  A    between atoms: C_2  and  C_22
REMARK    4  A    between atoms: N_3  and  C_4
REMARK    5  A    between atoms: C_4  and  C_5
REMARK    6  A    between atoms: C_8  and  C_9
REMARK    7  A    between atoms: C_9  and  N_10
REMARK    8  A    between atoms: N_10  and  CA_11
REMARK    9  A    between atoms: CA_11  and  C_12
REMARK   10  A    between atoms: CA_11  and  C_14
REMARK   11  A    between atoms: C_12  and  O_13
REMARK                            x       y       z     vdW  Elec       q    Type
REMARK                         _______ _______ _______ _____ _____    ______ ____
ROOT
ATOM      1  C   UNL     1      48.145   5.074  16.232  0.00  0.00    +0.000 A 
ATOM      2  N   UNL     1      48.466   6.065  15.376  0.00  0.00    +0.000 NA
ATOM      3  C   UNL     1      47.841   6.061  14.181  0.00  0.00    +0.000 A 
ATOM      4  C   UNL     1      46.924   5.101  13.800  0.00  0.00    +0.000 A 
ATOM      5  C   UNL     1      46.681   4.128  14.746  0.00  0.00    +0.000 A 
ATOM      6  N   UNL     1      47.269   4.084  15.954  0.00  0.00    +0.000 NA
ENDROOT
BRANCH   1   7
ATOM      7  C   UNL     1      48.937   4.943  17.521  0.00  0.00    +0.000 C 
BRANCH   7   8
ATOM      8  N   UNL     1      49.907   3.821  17.609  0.00  0.00    +0.000 NA
ATOM      9  H   UNL     1      49.759   3.218  16.799  0.00  0.00    +0.000 HD
BRANCH   8  11
ATOM     10  C   UNL     1      51.348   5.831  17.986  0.00  0.00    +0.000 C 
ATOM     11  C   UNL     1      51.279   4.347  17.563  0.00  0.00    +0.000 C 
BRANCH  11  12
ATOM     12  C   UNL     1      52.193   3.587  18.502  0.00  0.00    +0.000 A 
ATOM     13  C   UNL     1      52.881   4.151  19.567  0.00  0.00    +0.000 A 
ATOM     14  S   UNL     1      54.298   3.270  19.956  0.00  0.00    +0.000 S 
ATOM     15  C   UNL     1      53.920   2.052  18.827  0.00  0.00    +0.000 A 
ATOM     16  N   UNL     1      54.783   1.037  18.544  0.00  0.00    +0.000 NA
ATOM     17  C   UNL     1      54.310   0.154  17.728  0.00  0.00    +0.000 A 
ATOM     18  N   UNL     1      53.042   0.170  17.200  0.00  0.00    +0.000 N 
ATOM     19  C   UNL     1      52.145   1.186  17.438  0.00  0.00    +0.000 A 
ATOM     20  O   UNL     1      50.999   1.152  17.004  0.00  0.00    +0.000 OA
ATOM     21  C   UNL     1      52.672   2.249  18.271  0.00  0.00    +0.000 A 
ATOM     22  H   UNL     1      52.704  -0.601  16.644  0.00  0.00    +0.000 HD
ENDBRANCH  11  12
ENDBRANCH   8  11
ENDBRANCH   7   8
ENDBRANCH   1   7
BRANCH   4  23
ATOM     23  C   UNL     1      46.166   5.159  12.516  0.00  0.00    +0.000 C 
BRANCH  23  24
ATOM     24  N   UNL     1      45.352   3.969  12.275  0.00  0.00    +0.000 NA
ATOM     25  H   UNL     1      44.847   3.700  13.118  0.00  0.00    +0.000 HD
BRANCH  24  26
ATOM     26  CA  UNL     1      44.389   4.180  11.163  0.00  0.00    +0.000 C 
BRANCH  26  27
ATOM     27  C   UNL     1      44.940   3.695   9.826  0.00  0.00    +0.000 A 
ATOM     28  C   UNL     1      45.389   4.609   8.876  0.00  0.00    +0.000 A 
ATOM     29  N   UNL     1      46.036   4.237   7.746  0.00  0.00    +0.000 NA
ATOM     30  C   UNL     1      46.212   2.908   7.595  0.00  0.00    +0.000 A 
ATOM     31  C   UNL     1      45.758   1.988   8.522  0.00  0.00    +0.000 A 
ATOM     32  N   UNL     1      45.100   2.354   9.648  0.00  0.00    +0.000 NA
ENDBRANCH  26  27
BRANCH  26  33
ATOM     33  C   UNL     1      43.032   3.493  11.463  0.00  0.00    +0.000 C 
BRANCH  33  34
ATOM     34  O   UNL     1      43.129   2.080  11.623  0.00  0.00    +0.000 OA
ATOM     35  H   UNL     1      42.512   1.840  12.348  0.00  0.00    +0.000 HD
ENDBRANCH  33  34
ENDBRANCH  26  33
ENDBRANCH  24  26
ENDBRANCH  23  24
ENDBRANCH   4  23
TORSDOF 10
ENDMDL
MODEL 6
REMARK VINA RESULT:    -6.366      1.800      2.316
REMARK INTER + INTRA:         -11.290
REMARK INTER:                 -10.218
REMARK INTRA:                  -1.072
REMARK UNBOUND:                -1.387
REMARK  Name = 
REMARK  11 active torsions:
REMARK  status: ('A' for Active; 'I' for Inactive)
REMARK    1  A    between atoms: C_1  and  C_2
REMARK    2  A    between atoms: C_2  and  N_3
REMARK    3  A    between atoms: C_2  and  C_22
REMARK    4  A    between atoms: N_3  and  C_4
REMARK    5  A    between atoms: C_4  and  C_5
REMARK    6  A    between atoms: C_8  and  C_9
REMARK    7  A    between atoms: C_9  and  N_10
REMARK    8  A    between atoms: N_10  and  CA_11
REMARK    9  A    between atoms: CA_11  and  C_12
REMARK   10  A    between atoms: CA_11  and  C_14
REMARK   11  A    between atoms: C_12  and  O_13
REMARK                            x       y       z     vdW  Elec       q    Type
REMARK                         _______ _______ _______ _____ _____    ______ ____
ROOT
ATOM      1  C   UNL     1      47.863   7.763  12.663  0.00  0.00    +0.000 A 
ATOM      2  N   UNL     1      47.826   6.426  12.488  0.00  0.00    +0.000 NA
ATOM      3  C   UNL     1      46.611   5.874  12.291  0.00  0.00    +0.000 A 
ATOM      4  C   UNL     1      45.435   6.597  12.279  0.00  0.00    +0.000 A 
ATOM      5  C   UNL     1      45.588   7.952  12.481  0.00  0.00    +0.000 A 
ATOM      6  N   UNL     1      46.772   8.557  12.676  0.00  0.00    +0.000 NA
ENDROOT
BRANCH   1   7
ATOM      7  C   UNL     1      49.184   8.407  13.047  0.00  0.00    +0.000 C 
BRANCH   7   8
ATOM      8  N   UNL     1      50.241   7.514  13.588  0.00  0.00    +0.000 NA
ATOM      9  H   UNL     1      50.732   7.098  12.796  0.00  0.00    +0.000 HD
BRANCH   8  11
ATOM     10  C   UNL     1      50.577   9.616  14.901  0.00  0.00    +0.000 C 
ATOM     11  C   UNL     1      51.197   8.300  14.381  0.00  0.00    +0.000 C 
BRANCH  11  12
ATOM     12  C   UNL     1      51.666   7.532  15.598  0.00  0.00    +0.000 A 
ATOM     13  C   UNL     1      52.987   7.427  16.009  0.00  0.00    +0.000 A 
ATOM     14  S   UNL     1      53.270   5.999  16.911  0.00  0.00    +0.000 S 
ATOM     15  C   UNL     1      51.615   5.596  16.901  0.00  0.00    +0.000 A 
ATOM     16  N   UNL     1      51.157   4.412  17.393  0.00  0.00    +0.000 NA
ATOM     17  C   UNL     1      49.869   4.299  17.385  0.00  0.00    +0.000 A 
ATOM     18  N   UNL     1      48.997   5.275  16.969  0.00  0.00    +0.000 N 
ATOM     19  C   UNL     1      49.414   6.477  16.443  0.00  0.00    +0.000 A 
ATOM     20  O   UNL     1      48.619   7.356  16.132  0.00  0.00    +0.000 OA
ATOM     21  C   UNL     1      50.854   6.604  16.342  0.00  0.00    +0.000 A 
ATOM     22  H   UNL     1      48.001   5.158  17.077  0.00  0.00    +0.000 HD
ENDBRANCH  11  12
ENDBRANCH   8  11
ENDBRANCH   7   8
ENDBRANCH   1   7
BRANCH   4  23
ATOM     23  C   UNL     1      44.107   5.992  11.965  0.00  0.00    +0.000 C 
BRANCH  23  24
ATOM     24  N   UNL     1      43.957   5.633  10.555  0.00  0.00    +0.000 NA
ATOM     25  H   UNL     1      44.777   5.919  10.021  0.00  0.00    +0.000 HD
BRANCH  24  26
ATOM     26  CA  UNL     1      43.735   4.174  10.382  0.00  0.00    +0.000 C 
BRANCH  26  27
ATOM     27  C   UNL     1      44.647   3.577   9.313  0.00  0.00    +0.000 A 
ATOM     28  C   UNL     1      45.445   4.404   8.527  0.00  0.00    +0.000 A 
ATOM     29  N   UNL     1      46.389   3.926   7.681  0.00  0.00    +0.000 NA
ATOM     30  C   UNL     1      46.500   2.582   7.644  0.00  0.00    +0.000 A 
ATOM     31  C   UNL     1      45.704   1.749   8.408  0.00  0.00    +0.000 A 
ATOM     32  N   UNL     1      44.751   2.221   9.246  0.00  0.00    +0.000 NA
ENDBRANCH  26  27
BRANCH  26  33
ATOM     33  C   UNL     1      43.918   3.418  11.723  0.00  0.00    +0.000 C 
BRANCH  33  34
ATOM     34  O   UNL     1      45.224   2.874  11.899  0.00  0.00    +0.000 OA
ATOM     35  H   UNL     1      45.099   1.936  12.164  0.00  0.00    +0.000 HD
ENDBRANCH  33  34
ENDBRANCH  26  33
ENDBRANCH  24  26
ENDBRANCH  23  24
ENDBRANCH   4  23
TORSDOF 10
ENDMDL
MODEL 7
REMARK VINA RESULT:    -6.175      2.354      3.672
REMARK INTER + INTRA:         -10.992
REMARK INTER:                  -9.966
REMARK INTRA:                  -1.026
REMARK UNBOUND:                -1.387
REMARK  Name = 
REMARK  11 active torsions:
REMARK  status: ('A' for Active; 'I' for Inactive)
REMARK    1  A    between atoms: C_1  and  C_2
REMARK    2  A    between atoms: C_2  and  N_3
REMARK    3  A    between atoms: C_2  and  C_22
REMARK    4  A    between atoms: N_3  and  C_4
REMARK    5  A    between atoms: C_4  and  C_5
REMARK    6  A    between atoms: C_8  and  C_9
REMARK    7  A    between atoms: C_9  and  N_10
REMARK    8  A    between atoms: N_10  and  CA_11
REMARK    9  A    between atoms: CA_11  and  C_12
REMARK   10  A    between atoms: CA_11  and  C_14
REMARK   11  A    between atoms: C_12  and  O_13
REMARK                            x       y       z     vdW  Elec       q    Type
REMARK                         _______ _______ _______ _____ _____    ______ ____
ROOT
ATOM      1  C   UNL     1      47.255   7.354  12.529  0.00  0.00    +0.000 A 
ATOM      2  N   UNL     1      47.269   6.800  11.299  0.00  0.00    +0.000 NA
ATOM      3  C   UNL     1      46.134   6.195  10.895  0.00  0.00    +0.000 A 
ATOM      4  C   UNL     1      44.995   6.106  11.670  0.00  0.00    +0.000 A 
ATOM      5  C   UNL     1      45.096   6.694  12.913  0.00  0.00    +0.000 A 
ATOM      6  N   UNL     1      46.198   7.315  13.368  0.00  0.00    +0.000 NA
ENDROOT
BRANCH   1   7
ATOM      7  C   UNL     1      48.554   7.904  13.092  0.00  0.00    +0.000 C 
BRANCH   7   8
ATOM      8  N   UNL     1      49.430   6.953  13.825  0.00  0.00    +0.000 NA
ATOM      9  H   UNL     1      50.303   6.869  13.303  0.00  0.00    +0.000 HD
BRANCH   8  11
ATOM     10  C   UNL     1      48.720   6.986  16.224  0.00  0.00    +0.000 C 
ATOM     11  C   UNL     1      49.727   7.484  15.164  0.00  0.00    +0.000 C 
BRANCH  11  12
ATOM     12  C   UNL     1      51.100   7.054  15.635  0.00  0.00    +0.000 A 
ATOM     13  C   UNL     1      51.340   6.192  16.696  0.00  0.00    +0.000 A 
ATOM     14  S   UNL     1      52.875   6.459  17.408  0.00  0.00    +0.000 S 
ATOM     15  C   UNL     1      53.293   7.602  16.216  0.00  0.00    +0.000 A 
ATOM     16  N   UNL     1      54.440   8.333  16.287  0.00  0.00    +0.000 NA
ATOM     17  C   UNL     1      54.646   9.094  15.263  0.00  0.00    +0.000 A 
ATOM     18  N   UNL     1      53.834   9.161  14.157  0.00  0.00    +0.000 N 
ATOM     19  C   UNL     1      52.654   8.460  14.051  0.00  0.00    +0.000 A 
ATOM     20  O   UNL     1      51.973   8.490  13.032  0.00  0.00    +0.000 OA
ATOM     21  C   UNL     1      52.335   7.670  15.223  0.00  0.00    +0.000 A 
ATOM     22  H   UNL     1      54.102   9.705  13.351  0.00  0.00    +0.000 HD
ENDBRANCH  11  12
ENDBRANCH   8  11
ENDBRANCH   7   8
ENDBRANCH   1   7
BRANCH   4  23
ATOM     23  C   UNL     1      43.714   5.520  11.178  0.00  0.00    +0.000 C 
BRANCH  23  24
ATOM     24  N   UNL     1      43.793   5.045   9.796  0.00  0.00    +0.000 NA
ATOM     25  H   UNL     1      44.555   5.504   9.300  0.00  0.00    +0.000 HD
BRANCH  24  26
ATOM     26  CA  UNL     1      43.973   3.572   9.733  0.00  0.00    +0.000 C 
BRANCH  26  27
ATOM     27  C   UNL     1      45.153   3.176   8.850  0.00  0.00    +0.000 A 
ATOM     28  C   UNL     1      45.590   1.854   8.809  0.00  0.00    +0.000 A 
ATOM     29  N   UNL     1      46.519   1.414   7.927  0.00  0.00    +0.000 NA
ATOM     30  C   UNL     1      47.004   2.352   7.087  0.00  0.00    +0.000 A 
ATOM     31  C   UNL     1      46.591   3.671   7.126  0.00  0.00    +0.000 A 
ATOM     32  N   UNL     1      45.671   4.119   8.014  0.00  0.00    +0.000 NA
ENDBRANCH  26  27
BRANCH  26  33
ATOM     33  C   UNL     1      44.140   2.968  11.150  0.00  0.00    +0.000 C 
BRANCH  33  34
ATOM     34  O   UNL     1      43.076   2.098  11.531  0.00  0.00    +0.000 OA
ATOM     35  H   UNL     1      43.493   1.331  11.980  0.00  0.00    +0.000 HD
ENDBRANCH  33  34
ENDBRANCH  26  33
ENDBRANCH  24  26
ENDBRANCH  23  24
ENDBRANCH   4  23
TORSDOF 10
ENDMDL
MODEL 8
REMARK VINA RESULT:    -6.090      4.423      5.654
REMARK INTER + INTRA:         -10.859
REMARK INTER:                  -9.764
REMARK INTRA:                  -1.095
REMARK UNBOUND:                -1.387
REMARK  Name = 
REMARK  11 active torsions:
REMARK  status: ('A' for Active; 'I' for Inactive)
REMARK    1  A    between atoms: C_1  and  C_2
REMARK    2  A    between atoms: C_2  and  N_3
REMARK    3  A    between atoms: C_2  and  C_22
REMARK    4  A    between atoms: N_3  and  C_4
REMARK    5  A    between atoms: C_4  and  C_5
REMARK    6  A    between atoms: C_8  and  C_9
REMARK    7  A    between atoms: C_9  and  N_10
REMARK    8  A    between atoms: N_10  and  CA_11
REMARK    9  A    between atoms: CA_11  and  C_12
REMARK   10  A    between atoms: CA_11  and  C_14
REMARK   11  A    between atoms: C_12  and  O_13
REMARK                            x       y       z     vdW  Elec       q    Type
REMARK                         _______ _______ _______ _____ _____    ______ ____
ROOT
ATOM      1  C   UNL     1      48.604   7.580  12.535  0.00  0.00    +0.000 A 
ATOM      2  N   UNL     1      48.491   6.314  12.988  0.00  0.00    +0.000 NA
ATOM      3  C   UNL     1      47.240   5.827  13.118  0.00  0.00    +0.000 A 
ATOM      4  C   UNL     1      46.102   6.555  12.831  0.00  0.00    +0.000 A 
ATOM      5  C   UNL     1      46.334   7.840  12.389  0.00  0.00    +0.000 A 
ATOM      6  N   UNL     1      47.557   8.376  12.235  0.00  0.00    +0.000 NA
ENDROOT
BRANCH   1   7
ATOM      7  C   UNL     1      49.979   8.226  12.525  0.00  0.00    +0.000 C 
BRANCH   7   8
ATOM      8  N   UNL     1      51.079   7.467  11.875  0.00  0.00    +0.000 NA
ATOM      9  H   UNL     1      50.759   6.507  11.744  0.00  0.00    +0.000 HD
BRANCH   8  11
ATOM     10  C   UNL     1      51.727   9.553  10.656  0.00  0.00    +0.000 C 
ATOM     11  C   UNL     1      51.374   8.052  10.559  0.00  0.00    +0.000 C 
BRANCH  11  12
ATOM     12  C   UNL     1      52.559   7.371   9.906  0.00  0.00    +0.000 A 
ATOM     13  C   UNL     1      52.615   6.980   8.576  0.00  0.00    +0.000 A 
ATOM     14  S   UNL     1      53.696   5.673   8.334  0.00  0.00    +0.000 S 
ATOM     15  C   UNL     1      54.215   5.726   9.956  0.00  0.00    +0.000 A 
ATOM     16  N   UNL     1      55.055   4.790  10.476  0.00  0.00    +0.000 NA
ATOM     17  C   UNL     1      55.415   5.022  11.696  0.00  0.00    +0.000 A 
ATOM     18  N   UNL     1      55.046   6.124  12.428  0.00  0.00    +0.000 N 
ATOM     19  C   UNL     1      54.181   7.084  11.952  0.00  0.00    +0.000 A 
ATOM     20  O   UNL     1      53.910   8.088  12.601  0.00  0.00    +0.000 OA
ATOM     21  C   UNL     1      53.674   6.808  10.623  0.00  0.00    +0.000 A 
ATOM     22  H   UNL     1      55.439   6.293  13.342  0.00  0.00    +0.000 HD
ENDBRANCH  11  12
ENDBRANCH   8  11
ENDBRANCH   7   8
ENDBRANCH   1   7
BRANCH   4  23
ATOM     23  C   UNL     1      44.727   5.976  12.885  0.00  0.00    +0.000 C 
BRANCH  23  24
ATOM     24  N   UNL     1      44.121   5.808  11.564  0.00  0.00    +0.000 NA
ATOM     25  H   UNL     1      44.757   6.124  10.833  0.00  0.00    +0.000 HD
BRANCH  24  26
ATOM     26  CA  UNL     1      43.738   4.395  11.313  0.00  0.00    +0.000 C 
BRANCH  26  27
ATOM     27  C   UNL     1      44.386   3.840  10.048  0.00  0.00    +0.000 A 
ATOM     28  C   UNL     1      45.162   4.663   9.235  0.00  0.00    +0.000 A 
ATOM     29  N   UNL     1      45.892   4.191   8.196  0.00  0.00    +0.000 NA
ATOM     30  C   UNL     1      45.811   2.860   7.994  0.00  0.00    +0.000 A 
ATOM     31  C   UNL     1      45.034   2.033   8.784  0.00  0.00    +0.000 A 
ATOM     32  N   UNL     1      44.292   2.501   9.816  0.00  0.00    +0.000 NA
ENDBRANCH  26  27
BRANCH  26  33
ATOM     33  C   UNL     1      44.084   3.498  12.529  0.00  0.00    +0.000 C 
BRANCH  33  34
ATOM     34  O   UNL     1      45.331   2.819  12.403  0.00  0.00    +0.000 OA
ATOM     35  H   UNL     1      45.276   2.291  11.577  0.00  0.00    +0.000 HD
ENDBRANCH  33  34
ENDBRANCH  26  33
ENDBRANCH  24  26
ENDBRANCH  23  24
ENDBRANCH   4  23
TORSDOF 10
ENDMDL
MODEL 9
REMARK VINA RESULT:    -6.029      2.749      7.999
REMARK INTER + INTRA:         -10.765
REMARK INTER:                  -9.505
REMARK INTRA:                  -1.260
REMARK UNBOUND:                -1.387
REMARK  Name = 
REMARK  11 active torsions:
REMARK  status: ('A' for Active; 'I' for Inactive)
REMARK    1  A    between atoms: C_1  and  C_2
REMARK    2  A    between atoms: C_2  and  N_3
REMARK    3  A    between atoms: C_2  and  C_22
REMARK    4  A    between atoms: N_3  and  C_4
REMARK    5  A    between atoms: C_4  and  C_5
REMARK    6  A    between atoms: C_8  and  C_9
REMARK    7  A    between atoms: C_9  and  N_10
REMARK    8  A    between atoms: N_10  and  CA_11
REMARK    9  A    between atoms: CA_11  and  C_12
REMARK   10  A    between atoms: CA_11  and  C_14
REMARK   11  A    between atoms: C_12  and  O_13
REMARK                            x       y       z     vdW  Elec       q    Type
REMARK                         _______ _______ _______ _____ _____    ______ ____
ROOT
ATOM      1  C   UNL     1      48.047   7.486  13.395  0.00  0.00    +0.000 A 
ATOM      2  N   UNL     1      48.610   6.465  14.074  0.00  0.00    +0.000 NA
ATOM      3  C   UNL     1      48.948   6.704  15.357  0.00  0.00    +0.000 A 
ATOM      4  C   UNL     1      48.764   7.921  15.983  0.00  0.00    +0.000 A 
ATOM      5  C   UNL     1      48.194   8.897  15.193  0.00  0.00    +0.000 A 
ATOM      6  N   UNL     1      47.832   8.714  13.912  0.00  0.00    +0.000 NA
ENDROOT
BRANCH   1   7
ATOM      7  C   UNL     1      47.798   7.316  11.906  0.00  0.00    +0.000 C 
BRANCH   7   8
ATOM      8  N   UNL     1      46.941   6.176  11.489  0.00  0.00    +0.000 NA
ATOM      9  H   UNL     1      47.334   5.327  11.896  0.00  0.00    +0.000 HD
BRANCH   8  11
ATOM     10  C   UNL     1      44.937   7.674  11.494  0.00  0.00    +0.000 C 
ATOM     11  C   UNL     1      45.578   6.365  12.007  0.00  0.00    +0.000 C 
BRANCH  11  12
ATOM     12  C   UNL     1      44.664   5.238  11.576  0.00  0.00    +0.000 A 
ATOM     13  C   UNL     1      43.694   4.654  12.378  0.00  0.00    +0.000 A 
ATOM     14  S   UNL     1      43.356   3.040  11.909  0.00  0.00    +0.000 S 
ATOM     15  C   UNL     1      44.372   3.163  10.547  0.00  0.00    +0.000 A 
ATOM     16  N   UNL     1      44.653   2.091   9.756  0.00  0.00    +0.000 NA
ATOM     17  C   UNL     1      45.371   2.372   8.719  0.00  0.00    +0.000 A 
ATOM     18  N   UNL     1      45.801   3.631   8.379  0.00  0.00    +0.000 N 
ATOM     19  C   UNL     1      45.562   4.740   9.158  0.00  0.00    +0.000 A 
ATOM     20  O   UNL     1      45.904   5.863   8.806  0.00  0.00    +0.000 OA
ATOM     21  C   UNL     1      44.843   4.451  10.383  0.00  0.00    +0.000 A 
ATOM     22  H   UNL     1      46.278   3.796   7.505  0.00  0.00    +0.000 HD
ENDBRANCH  11  12
ENDBRANCH   8  11
ENDBRANCH   7   8
ENDBRANCH   1   7
BRANCH   4  23
ATOM     23  C   UNL     1      49.052   8.148  17.430  0.00  0.00    +0.000 C 
BRANCH  23  24
ATOM     24  N   UNL     1      49.859   7.085  18.029  0.00  0.00    +0.000 NA
ATOM     25  H   UNL     1      50.669   7.475  18.509  0.00  0.00    +0.000 HD
BRANCH  24  26
ATOM     26  CA  UNL     1      49.065   6.264  18.979  0.00  0.00    +0.000 C 
BRANCH  26  27
ATOM     27  C   UNL     1      48.599   4.952  18.353  0.00  0.00    +0.000 A 
ATOM     28  C   UNL     1      47.271   4.790  17.966  0.00  0.00    +0.000 A 
ATOM     29  N   UNL     1      46.837   3.718  17.260  0.00  0.00    +0.000 NA
ATOM     30  C   UNL     1      47.784   2.805  16.961  0.00  0.00    +0.000 A 
ATOM     31  C   UNL     1      49.103   2.946  17.352  0.00  0.00    +0.000 A 
ATOM     32  N   UNL     1      49.540   4.010  18.068  0.00  0.00    +0.000 NA
ENDBRANCH  26  27
BRANCH  26  33
ATOM     33  C   UNL     1      49.865   5.982  20.277  0.00  0.00    +0.000 C 
BRANCH  33  34
ATOM     34  O   UNL     1      51.214   5.586  20.043  0.00  0.00    +0.000 OA
ATOM     35  H   UNL     1      51.173   4.766  19.505  0.00  0.00    +0.000 HD
ENDBRANCH  33  34
ENDBRANCH  26  33
ENDBRANCH  24  26
ENDBRANCH  23  24
ENDBRANCH   4  23
TORSDOF 10
ENDMDL
