MODEL 1
REMARK VINA RESULT:    -8.907      0.000      0.000
REMARK INTER + INTRA:         -13.606
REMARK INTER:                 -12.552
REMARK INTRA:                  -1.054
REMARK UNBOUND:                -1.054
REMARK  Name = 
REMARK  8 active torsions:
REMARK  status: ('A' for Active; 'I' for Inactive)
REMARK    1  A    between atoms: C_1  and  C_2
REMARK    2  A    between atoms: C_2  and  N_3
REMARK    3  A    between atoms: C_2  and  C_25
REMARK    4  A    between atoms: N_3  and  C_4
REMARK    5  A    between atoms: C_4  and  C_5
REMARK    6  A    between atoms: C_8  and  C_9
REMARK    7  A    between atoms: C_9  and  N_10
REMARK    8  A    between atoms: C_11  and  C_13
REMARK                            x       y       z     vdW  Elec       q    Type
REMARK                         _______ _______ _______ _____ _____    ______ ____
ROOT
ATOM      1  C   UNL     1      45.181   6.188  11.067  0.00  0.00    +0.000 C 
ATOM      2  C   UNL     1      44.218   5.588  12.103  0.00  0.00    +0.000 C 
ATOM      3  C   UNL     1      44.903   4.573  13.014  0.00  0.00    +0.000 C 
ATOM      4  C   UNL     1      46.136   5.163  13.720  0.00  0.00    +0.000 C 
ATOM      5  C   UNL     1      47.088   5.853  12.729  0.00  0.00    +0.000 C 
ATOM      6  C   UNL     1      46.362   6.835  11.813  0.00  0.00    +0.000 C 
ENDROOT
BRANCH   1   7
ATOM      7  C   UNL     1      45.671   5.167  10.010  0.00  0.00    +0.000 C 
BRANCH   7   8
ATOM      8  N   UNL     1      44.607   4.850   9.057  0.00  0.00    +0.000 NA
ATOM      9  H   UNL     1      43.710   5.154   9.443  0.00  0.00    +0.000 HD
BRANCH   8  11
ATOM     10  C   UNL     1      44.380   2.559  10.061  0.00  0.00    +0.000 C 
ATOM     11  C   UNL     1      44.460   3.405   8.786  0.00  0.00    +0.000 C 
BRANCH  11  12
ATOM     12  C   UNL     1      45.624   2.909   7.924  0.00  0.00    +0.000 A 
ATOM     13  C   UNL     1      46.191   1.655   8.156  0.00  0.00    +0.000 A 
ATOM     14  C   UNL     1      47.208   1.203   7.320  0.00  0.00    +0.000 A 
ATOM     15  C   UNL     1      47.648   2.021   6.289  0.00  0.00    +0.000 A 
ATOM     16  C   UNL     1      47.057   3.265   6.143  0.00  0.00    +0.000 A 
ATOM     17  N   UNL     1      46.061   3.727   6.932  0.00  0.00    +0.000 NA
ENDBRANCH  11  12
ENDBRANCH   8  11
ENDBRANCH   7   8
ENDBRANCH   1   7
BRANCH   4  18
ATOM     18  C   UNL     1      46.911   4.096  14.512  0.00  0.00    +0.000 C 
BRANCH  18  19
ATOM     19  N   UNL     1      47.492   4.635  15.721  0.00  0.00    +0.000 N 
ATOM     20  C   UNL     1      47.167   4.159  16.964  0.00  0.00    +0.000 C 
ATOM     21  O   UNL     1      46.404   3.213  17.133  0.00  0.00    +0.000 OA
ATOM     22  H   UNL     1      47.865   5.578  15.664  0.00  0.00    +0.000 HD
BRANCH  20  23
ATOM     23  C   UNL     1      47.837   4.810  18.095  0.00  0.00    +0.000 A 
ATOM     24  C   UNL     1      47.130   5.707  18.882  0.00  0.00    +0.000 A 
ATOM     25  S   UNL     1      48.034   6.326  20.189  0.00  0.00    +0.000 S 
ATOM     26  C   UNL     1      49.417   5.454  19.716  0.00  0.00    +0.000 A 
ATOM     27  N   UNL     1      50.580   5.559  20.413  0.00  0.00    +0.000 NA
ATOM     28  C   UNL     1      51.559   4.873  19.925  0.00  0.00    +0.000 A 
ATOM     29  N   UNL     1      51.480   4.084  18.808  0.00  0.00    +0.000 N 
ATOM     30  C   UNL     1      50.312   3.915  18.096  0.00  0.00    +0.000 A 
ATOM     31  O   UNL     1      50.253   3.147  17.140  0.00  0.00    +0.000 OA
ATOM     32  C   UNL     1      49.188   4.684  18.591  0.00  0.00    +0.000 A 
ATOM     33  H   UNL     1      52.274   3.560  18.485  0.00  0.00    +0.000 HD
ENDBRANCH  20  23
ENDBRANCH  18  19
ENDBRANCH   4  18
TORSDOF 7
ENDMDL
MODEL 2
REMARK VINA RESULT:    -8.168      2.002      2.832
REMARK INTER + INTRA:         -12.565
REMARK INTER:                 -11.745
REMARK INTRA:                  -0.820
REMARK UNBOUND:                -1.054
REMARK  Name = 
REMARK  8 active torsions:
REMARK  status: ('A' for Active; 'I' for Inactive)
REMARK    1  A    between atoms: C_1  and  C_2
REMARK    2  A    between atoms: C_2  and  N_3
REMARK    3  A    between atoms: C_2  and  C_25
REMARK    4  A    between atoms: N_3  and  C_4
REMARK    5  A    between atoms: C_4  and  C_5
REMARK    6  A    between atoms: C_8  and  C_9
REMARK    7  A    between atoms: C_9  and  N_10
REMARK    8  A    between atoms: C_11  and  C_13
REMARK                            x       y       z     vdW  Elec       q    Type
REMARK                         _______ _______ _______ _____ _____    ______ ____
ROOT
ATOM      1  C   UNL     1      43.881   5.654  11.169  0.00  0.00    +0.000 C 
ATOM      2  C   UNL     1      44.214   5.326  12.632  0.00  0.00    +0.000 C 
ATOM      3  C   UNL     1      45.503   5.997  13.099  0.00  0.00    +0.000 C 
ATOM      4  C   UNL     1      45.475   7.522  12.893  0.00  0.00    +0.000 C 
ATOM      5  C   UNL     1      45.059   7.898  11.461  0.00  0.00    +0.000 C 
ATOM      6  C   UNL     1      43.785   7.182  11.018  0.00  0.00    +0.000 C 
ENDROOT
BRANCH   1   7
ATOM      7  C   UNL     1      44.881   5.047  10.154  0.00  0.00    +0.000 C 
BRANCH   7   8
ATOM      8  N   UNL     1      44.175   4.414   9.038  0.00  0.00    +0.000 NA
ATOM      9  H   UNL     1      43.174   4.593   9.132  0.00  0.00    +0.000 HD
BRANCH   8  11
ATOM     10  C   UNL     1      44.489   2.318  10.387  0.00  0.00    +0.000 C 
ATOM     11  C   UNL     1      44.320   2.944   8.999  0.00  0.00    +0.000 C 
BRANCH  11  12
ATOM     12  C   UNL     1      45.514   2.556   8.122  0.00  0.00    +0.000 A 
ATOM     13  C   UNL     1      46.026   3.457   7.186  0.00  0.00    +0.000 A 
ATOM     14  C   UNL     1      47.149   3.102   6.445  0.00  0.00    +0.000 A 
ATOM     15  C   UNL     1      47.720   1.852   6.639  0.00  0.00    +0.000 A 
ATOM     16  C   UNL     1      47.135   1.002   7.563  0.00  0.00    +0.000 A 
ATOM     17  N   UNL     1      46.051   1.322   8.305  0.00  0.00    +0.000 NA
ENDBRANCH  11  12
ENDBRANCH   8  11
ENDBRANCH   7   8
ENDBRANCH   1   7
BRANCH   4  18
ATOM     18  C   UNL     1      46.831   8.172  13.217  0.00  0.00    +0.000 C 
BRANCH  18  19
ATOM     19  N   UNL     1      47.408   7.641  14.432  0.00  0.00    +0.000 N 
ATOM     20  C   UNL     1      48.437   6.736  14.417  0.00  0.00    +0.000 C 
ATOM     21  O   UNL     1      48.971   6.357  13.379  0.00  0.00    +0.000 OA
ATOM     22  H   UNL     1      46.827   7.674  15.263  0.00  0.00    +0.000 HD
BRANCH  20  23
ATOM     23  C   UNL     1      48.915   6.287  15.728  0.00  0.00    +0.000 A 
ATOM     24  C   UNL     1      49.899   7.014  16.381  0.00  0.00    +0.000 A 
ATOM     25  S   UNL     1      50.297   6.395  17.919  0.00  0.00    +0.000 S 
ATOM     26  C   UNL     1      49.203   5.103  17.742  0.00  0.00    +0.000 A 
ATOM     27  N   UNL     1      49.070   4.164  18.716  0.00  0.00    +0.000 NA
ATOM     28  C   UNL     1      48.232   3.221  18.437  0.00  0.00    +0.000 A 
ATOM     29  N   UNL     1      47.511   3.135  17.277  0.00  0.00    +0.000 N 
ATOM     30  C   UNL     1      47.582   4.086  16.282  0.00  0.00    +0.000 A 
ATOM     31  O   UNL     1      46.872   4.020  15.283  0.00  0.00    +0.000 OA
ATOM     32  C   UNL     1      48.527   5.155  16.537  0.00  0.00    +0.000 A 
ATOM     33  H   UNL     1      46.861   2.384  17.123  0.00  0.00    +0.000 HD
ENDBRANCH  20  23
ENDBRANCH  18  19
ENDBRANCH   4  18
TORSDOF 7
ENDMDL
MODEL 3
REMARK VINA RESULT:    -8.154      1.941      2.424
REMARK INTER + INTRA:         -12.545
REMARK INTER:                 -11.369
REMARK INTRA:                  -1.175
REMARK UNBOUND:                -1.054
REMARK  Name = 
REMARK  8 active torsions:
REMARK  status: ('A' for Active; 'I' for Inactive)
REMARK    1  A    between atoms: C_1  and  C_2
REMARK    2  A    between atoms: C_2  and  N_3
REMARK    3  A    between atoms: C_2  and  C_25
REMARK    4  A    between atoms: N_3  and  C_4
REMARK    5  A    between atoms: C_4  and  C_5
REMARK    6  A    between atoms: C_8  and  C_9
REMARK    7  A    between atoms: C_9  and  N_10
REMARK    8  A    between atoms: C_11  and  C_13
REMARK                            x       y       z     vdW  Elec       q    Type
REMARK                         _______ _______ _______ _____ _____    ______ ____
ROOT
ATOM      1  C   UNL     1      45.401   6.314  11.207  0.00  0.00    +0.000 C 
ATOM      2  C   UNL     1      44.433   5.796  12.281  0.00  0.00    +0.000 C 
ATOM      3  C   UNL     1      45.104   4.819  13.243  0.00  0.00    +0.000 C 
ATOM      4  C   UNL     1      46.356   5.420  13.906  0.00  0.00    +0.000 C 
ATOM      5  C   UNL     1      47.314   6.032  12.871  0.00  0.00    +0.000 C 
ATOM      6  C   UNL     1      46.601   6.976  11.905  0.00  0.00    +0.000 C 
ENDROOT
BRANCH   1   7
ATOM      7  C   UNL     1      45.859   5.225  10.206  0.00  0.00    +0.000 C 
BRANCH   7   8
ATOM      8  N   UNL     1      44.905   5.092   9.103  0.00  0.00    +0.000 NA
ATOM      9  H   UNL     1      44.042   5.583   9.347  0.00  0.00    +0.000 HD
BRANCH   8  11
ATOM     10  C   UNL     1      44.241   2.879  10.090  0.00  0.00    +0.000 C 
ATOM     11  C   UNL     1      44.510   3.697   8.822  0.00  0.00    +0.000 C 
BRANCH  11  12
ATOM     12  C   UNL     1      45.592   2.999   7.993  0.00  0.00    +0.000 A 
ATOM     13  C   UNL     1      46.030   1.719   8.336  0.00  0.00    +0.000 A 
ATOM     14  C   UNL     1      46.970   1.083   7.531  0.00  0.00    +0.000 A 
ATOM     15  C   UNL     1      47.466   1.748   6.418  0.00  0.00    +0.000 A 
ATOM     16  C   UNL     1      47.006   3.028   6.162  0.00  0.00    +0.000 A 
ATOM     17  N   UNL     1      46.086   3.668   6.918  0.00  0.00    +0.000 NA
ENDBRANCH  11  12
ENDBRANCH   8  11
ENDBRANCH   7   8
ENDBRANCH   1   7
BRANCH   4  18
ATOM     18  C   UNL     1      47.114   4.382  14.752  0.00  0.00    +0.000 C 
BRANCH  18  19
ATOM     19  N   UNL     1      47.224   4.788  16.135  0.00  0.00    +0.000 N 
ATOM     20  C   UNL     1      48.355   5.378  16.636  0.00  0.00    +0.000 C 
ATOM     21  O   UNL     1      49.327   5.648  15.937  0.00  0.00    +0.000 OA
ATOM     22  H   UNL     1      46.607   4.325  16.795  0.00  0.00    +0.000 HD
BRANCH  20  23
ATOM     23  C   UNL     1      48.317   5.731  18.059  0.00  0.00    +0.000 A 
ATOM     24  C   UNL     1      48.363   4.724  19.013  0.00  0.00    +0.000 A 
ATOM     25  S   UNL     1      48.373   5.305  20.616  0.00  0.00    +0.000 S 
ATOM     26  C   UNL     1      48.263   6.920  20.090  0.00  0.00    +0.000 A 
ATOM     27  N   UNL     1      48.202   7.942  20.984  0.00  0.00    +0.000 NA
ATOM     28  C   UNL     1      48.085   9.112  20.450  0.00  0.00    +0.000 A 
ATOM     29  N   UNL     1      48.031   9.355  19.104  0.00  0.00    +0.000 N 
ATOM     30  C   UNL     1      48.133   8.354  18.161  0.00  0.00    +0.000 A 
ATOM     31  O   UNL     1      48.152   8.608  16.960  0.00  0.00    +0.000 OA
ATOM     32  C   UNL     1      48.243   7.018  18.711  0.00  0.00    +0.000 A 
ATOM     33  H   UNL     1      47.955  10.291  18.747  0.00  0.00    +0.000 HD
ENDBRANCH  20  23
ENDBRANCH  18  19
ENDBRANCH   4  18
TORSDOF 7
ENDMDL
MODEL 4
REMARK VINA RESULT:    -7.852      2.303      3.396
REMARK INTER + INTRA:         -12.119
REMARK INTER:                 -10.660
REMARK INTRA:                  -1.459
REMARK UNBOUND:                -1.054
REMARK  Name = 
REMARK  8 active torsions:
REMARK  status: ('A' for Active; 'I' for Inactive)
REMARK    1  A    between atoms: C_1  and  C_2
REMARK    2  A    between atoms: C_2  and  N_3
REMARK    3  A    between atoms: C_2  and  C_25
REMARK    4  A    between atoms: N_3  and  C_4
REMARK    5  A    between atoms: C_4  and  C_5
REMARK    6  A    between atoms: C_8  and  C_9
REMARK    7  A    between atoms: C_9  and  N_10
REMARK    8  A    between atoms: C_11  and  C_13
REMARK                            x       y       z     vdW  Elec       q    Type
REMARK                         _______ _______ _______ _____ _____    ______ ____
ROOT
ATOM      1  C   UNL     1      45.398   6.673  11.636  0.00  0.00    +0.000 C 
ATOM      2  C   UNL     1      45.021   8.084  12.114  0.00  0.00    +0.000 C 
ATOM      3  C   UNL     1      45.978   8.610  13.180  0.00  0.00    +0.000 C 
ATOM      4  C   UNL     1      47.444   8.585  12.712  0.00  0.00    +0.000 C 
ATOM      5  C   UNL     1      47.840   7.213  12.142  0.00  0.00    +0.000 C 
ATOM      6  C   UNL     1      46.841   6.704  11.105  0.00  0.00    +0.000 C 
ENDROOT
BRANCH   1   7
ATOM      7  C   UNL     1      45.218   5.582  12.721  0.00  0.00    +0.000 C 
BRANCH   7   8
ATOM      8  N   UNL     1      45.321   4.243  12.139  0.00  0.00    +0.000 NA
ATOM      9  H   UNL     1      46.216   4.157  11.654  0.00  0.00    +0.000 HD
BRANCH   8  11
ATOM     10  C   UNL     1      43.271   2.899  11.588  0.00  0.00    +0.000 C 
ATOM     11  C   UNL     1      44.284   3.951  11.126  0.00  0.00    +0.000 C 
BRANCH  11  12
ATOM     12  C   UNL     1      44.938   3.485   9.823  0.00  0.00    +0.000 A 
ATOM     13  C   UNL     1      45.333   4.415   8.858  0.00  0.00    +0.000 A 
ATOM     14  C   UNL     1      45.978   3.970   7.709  0.00  0.00    +0.000 A 
ATOM     15  C   UNL     1      46.195   2.609   7.540  0.00  0.00    +0.000 A 
ATOM     16  C   UNL     1      45.746   1.747   8.526  0.00  0.00    +0.000 A 
ATOM     17  N   UNL     1      45.125   2.150   9.658  0.00  0.00    +0.000 NA
ENDBRANCH  11  12
ENDBRANCH   8  11
ENDBRANCH   7   8
ENDBRANCH   1   7
BRANCH   4  18
ATOM     18  C   UNL     1      48.416   8.968  13.841  0.00  0.00    +0.000 C 
BRANCH  18  19
ATOM     19  N   UNL     1      48.336   8.053  14.957  0.00  0.00    +0.000 N 
ATOM     20  C   UNL     1      49.447   7.460  15.498  0.00  0.00    +0.000 C 
ATOM     21  O   UNL     1      50.585   7.705  15.108  0.00  0.00    +0.000 OA
ATOM     22  H   UNL     1      47.443   7.594  15.105  0.00  0.00    +0.000 HD
BRANCH  20  23
ATOM     23  C   UNL     1      49.205   6.553  16.625  0.00  0.00    +0.000 A 
ATOM     24  C   UNL     1      49.752   6.847  17.866  0.00  0.00    +0.000 A 
ATOM     25  S   UNL     1      49.325   5.729  19.079  0.00  0.00    +0.000 S 
ATOM     26  C   UNL     1      48.439   4.785  17.975  0.00  0.00    +0.000 A 
ATOM     27  N   UNL     1      47.824   3.639  18.372  0.00  0.00    +0.000 NA
ATOM     28  C   UNL     1      47.217   3.003  17.427  0.00  0.00    +0.000 A 
ATOM     29  N   UNL     1      47.162   3.411  16.121  0.00  0.00    +0.000 N 
ATOM     30  C   UNL     1      47.733   4.586  15.682  0.00  0.00    +0.000 A 
ATOM     31  O   UNL     1      47.609   4.962  14.520  0.00  0.00    +0.000 OA
ATOM     32  C   UNL     1      48.447   5.326  16.703  0.00  0.00    +0.000 A 
ATOM     33  H   UNL     1      46.660   2.880  15.431  0.00  0.00    +0.000 HD
ENDBRANCH  20  23
ENDBRANCH  18  19
ENDBRANCH   4  18
TORSDOF 7
ENDMDL
MODEL 5
REMARK VINA RESULT:    -7.576      4.171      5.729
REMARK INTER + INTRA:         -11.730
REMARK INTER:                 -11.002
REMARK INTRA:                  -0.728
REMARK UNBOUND:                -1.054
REMARK  Name = 
REMARK  8 active torsions:
REMARK  status: ('A' for Active; 'I' for Inactive)
REMARK    1  A    between atoms: C_1  and  C_2
REMARK    2  A    between atoms: C_2  and  N_3
REMARK    3  A    between atoms: C_2  and  C_25
REMARK    4  A    between atoms: N_3  and  C_4
REMARK    5  A    between atoms: C_4  and  C_5
REMARK    6  A    between atoms: C_8  and  C_9
REMARK    7  A    between atoms: C_9  and  N_10
REMARK    8  A    between atoms: C_11  and  C_13
REMARK                            x       y       z     vdW  Elec       q    Type
REMARK                         _______ _______ _______ _____ _____    ______ ____
ROOT
ATOM      1  C   UNL     1      43.018   4.411  11.823  0.00  0.00    +0.000 C 
ATOM      2  C   UNL     1      43.644   3.091  12.297  0.00  0.00    +0.000 C 
ATOM      3  C   UNL     1      45.153   3.203  12.498  0.00  0.00    +0.000 C 
ATOM      4  C   UNL     1      45.530   4.341  13.463  0.00  0.00    +0.000 C 
ATOM      5  C   UNL     1      44.852   5.666  13.077  0.00  0.00    +0.000 C 
ATOM      6  C   UNL     1      43.350   5.507  12.851  0.00  0.00    +0.000 C 
ENDROOT
BRANCH   1   7
ATOM      7  C   UNL     1      43.449   4.826  10.395  0.00  0.00    +0.000 C 
BRANCH   7   8
ATOM      8  N   UNL     1      44.106   3.715   9.703  0.00  0.00    +0.000 NA
ATOM      9  H   UNL     1      44.017   2.869  10.270  0.00  0.00    +0.000 HD
BRANCH   8  11
ATOM     10  C   UNL     1      45.927   5.369   9.195  0.00  0.00    +0.000 C 
ATOM     11  C   UNL     1      45.556   3.914   9.500  0.00  0.00    +0.000 C 
BRANCH  11  12
ATOM     12  C   UNL     1      46.057   3.017   8.365  0.00  0.00    +0.000 A 
ATOM     13  C   UNL     1      46.406   3.568   7.131  0.00  0.00    +0.000 A 
ATOM     14  C   UNL     1      46.915   2.739   6.136  0.00  0.00    +0.000 A 
ATOM     15  C   UNL     1      47.043   1.380   6.389  0.00  0.00    +0.000 A 
ATOM     16  C   UNL     1      46.646   0.904   7.627  0.00  0.00    +0.000 A 
ATOM     17  N   UNL     1      46.157   1.686   8.617  0.00  0.00    +0.000 NA
ENDBRANCH  11  12
ENDBRANCH   8  11
ENDBRANCH   7   8
ENDBRANCH   1   7
BRANCH   4  18
ATOM     18  C   UNL     1      47.052   4.550  13.541  0.00  0.00    +0.000 C 
BRANCH  18  19
ATOM     19  N   UNL     1      47.462   5.777  12.896  0.00  0.00    +0.000 N 
ATOM     20  C   UNL     1      48.334   6.656  13.484  0.00  0.00    +0.000 C 
ATOM     21  O   UNL     1      48.864   6.437  14.569  0.00  0.00    +0.000 OA
ATOM     22  H   UNL     1      46.844   6.142  12.178  0.00  0.00    +0.000 HD
BRANCH  20  23
ATOM     23  C   UNL     1      48.654   7.858  12.707  0.00  0.00    +0.000 A 
ATOM     24  C   UNL     1      49.929   8.013  12.183  0.00  0.00    +0.000 A 
ATOM     25  S   UNL     1      50.117   9.431  11.256  0.00  0.00    +0.000 S 
ATOM     26  C   UNL     1      48.515   9.913  11.569  0.00  0.00    +0.000 A 
ATOM     27  N   UNL     1      48.031  11.084  11.076  0.00  0.00    +0.000 NA
ATOM     28  C   UNL     1      46.813  11.344  11.418  0.00  0.00    +0.000 A 
ATOM     29  N   UNL     1      46.032  10.537  12.202  0.00  0.00    +0.000 N 
ATOM     30  C   UNL     1      46.467   9.322  12.687  0.00  0.00    +0.000 A 
ATOM     31  O   UNL     1      45.722   8.587  13.329  0.00  0.00    +0.000 OA
ATOM     32  C   UNL     1      47.837   8.995  12.349  0.00  0.00    +0.000 A 
ATOM     33  H   UNL     1      45.084  10.786  12.421  0.00  0.00    +0.000 HD
ENDBRANCH  20  23
ENDBRANCH  18  19
ENDBRANCH   4  18
TORSDOF 7
ENDMDL
MODEL 6
REMARK VINA RESULT:    -7.424      2.745      3.354
REMARK INTER + INTRA:         -11.516
REMARK INTER:                 -10.377
REMARK INTRA:                  -1.139
REMARK UNBOUND:                -1.054
REMARK  Name = 
REMARK  8 active torsions:
REMARK  status: ('A' for Active; 'I' for Inactive)
REMARK    1  A    between atoms: C_1  and  C_2
REMARK    2  A    between atoms: C_2  and  N_3
REMARK    3  A    between atoms: C_2  and  C_25
REMARK    4  A    between atoms: N_3  and  C_4
REMARK    5  A    between atoms: C_4  and  C_5
REMARK    6  A    between atoms: C_8  and  C_9
REMARK    7  A    between atoms: C_9  and  N_10
REMARK    8  A    between atoms: C_11  and  C_13
REMARK                            x       y       z     vdW  Elec       q    Type
REMARK                         _______ _______ _______ _____ _____    ______ ____
ROOT
ATOM      1  C   UNL     1      45.297   5.945  12.495  0.00  0.00    +0.000 C 
ATOM      2  C   UNL     1      46.197   5.420  13.624  0.00  0.00    +0.000 C 
ATOM      3  C   UNL     1      47.640   5.898  13.486  0.00  0.00    +0.000 C 
ATOM      4  C   UNL     1      47.741   7.431  13.400  0.00  0.00    +0.000 C 
ATOM      5  C   UNL     1      46.789   8.009  12.340  0.00  0.00    +0.000 C 
ATOM      6  C   UNL     1      45.363   7.482  12.489  0.00  0.00    +0.000 C 
ENDROOT
BRANCH   1   7
ATOM      7  C   UNL     1      45.641   5.359  11.103  0.00  0.00    +0.000 C 
BRANCH   7   8
ATOM      8  N   UNL     1      44.476   5.393  10.218  0.00  0.00    +0.000 NA
ATOM      9  H   UNL     1      43.686   5.800  10.721  0.00  0.00    +0.000 HD
BRANCH   8  11
ATOM     10  C   UNL     1      43.738   3.101  10.933  0.00  0.00    +0.000 C 
ATOM     11  C   UNL     1      44.027   4.058   9.771  0.00  0.00    +0.000 C 
BRANCH  11  12
ATOM     12  C   UNL     1      45.076   3.430   8.850  0.00  0.00    +0.000 A 
ATOM     13  C   UNL     1      45.409   2.080   8.975  0.00  0.00    +0.000 A 
ATOM     14  C   UNL     1      46.320   1.519   8.086  0.00  0.00    +0.000 A 
ATOM     15  C   UNL     1      46.893   2.322   7.109  0.00  0.00    +0.000 A 
ATOM     16  C   UNL     1      46.536   3.659   7.069  0.00  0.00    +0.000 A 
ATOM     17  N   UNL     1      45.646   4.230   7.912  0.00  0.00    +0.000 NA
ENDBRANCH  11  12
ENDBRANCH   8  11
ENDBRANCH   7   8
ENDBRANCH   1   7
BRANCH   4  18
ATOM     18  C   UNL     1      49.177   7.898  13.105  0.00  0.00    +0.000 C 
BRANCH  18  19
ATOM     19  N   UNL     1      50.143   7.253  13.965  0.00  0.00    +0.000 N 
ATOM     20  C   UNL     1      50.664   7.871  15.072  0.00  0.00    +0.000 C 
ATOM     21  O   UNL     1      50.309   8.988  15.436  0.00  0.00    +0.000 OA
ATOM     22  H   UNL     1      50.681   6.496  13.556  0.00  0.00    +0.000 HD
BRANCH  20  23
ATOM     23  C   UNL     1      51.636   7.090  15.844  0.00  0.00    +0.000 A 
ATOM     24  C   UNL     1      52.972   7.460  15.831  0.00  0.00    +0.000 A 
ATOM     25  S   UNL     1      53.958   6.489  16.827  0.00  0.00    +0.000 S 
ATOM     26  C   UNL     1      52.639   5.508  17.268  0.00  0.00    +0.000 A 
ATOM     27  N   UNL     1      52.808   4.447  18.102  0.00  0.00    +0.000 NA
ATOM     28  C   UNL     1      51.733   3.768  18.325  0.00  0.00    +0.000 A 
ATOM     29  N   UNL     1      50.502   4.056  17.797  0.00  0.00    +0.000 N 
ATOM     30  C   UNL     1      50.277   5.145  16.984  0.00  0.00    +0.000 A 
ATOM     31  O   UNL     1      49.150   5.420  16.581  0.00  0.00    +0.000 OA
ATOM     32  C   UNL     1      51.459   5.928  16.684  0.00  0.00    +0.000 A 
ATOM     33  H   UNL     1      49.697   3.498  18.021  0.00  0.00    +0.000 HD
ENDBRANCH  20  23
ENDBRANCH  18  19
ENDBRANCH   4  18
TORSDOF 7
ENDMDL
MODEL 7
REMARK VINA RESULT:    -7.101      2.350      3.488
REMARK INTER + INTRA:         -11.061
REMARK INTER:                 -10.095
REMARK INTRA:                  -0.965
REMARK UNBOUND:                -1.054
REMARK  Name = 
REMARK  8 active torsions:
REMARK  status: ('A' for Active; 'I' for Inactive)
REMARK    1  A    between atoms: C_1  and  C_2
REMARK    2  A    between atoms: C_2  and  N_3
REMARK    3  A    between atoms: C_2  and  C_25
REMARK    4  A    between atoms: N_3  and  C_4
REMARK    5  A    between atoms: C_4  and  C_5
REMARK    6  A    between atoms: C_8  and  C_9
REMARK    7  A    between atoms: C_9  and  N_10
REMARK    8  A    between atoms: C_11  and  C_13
REMARK                            x       y       z     vdW  Elec       q    Type
REMARK                         _______ _______ _______ _____ _____    ______ ____
ROOT
ATOM      1  C   UNL     1      46.772   7.394  12.113  0.00  0.00    +0.000 C 
ATOM      2  C   UNL     1      47.349   8.726  12.617  0.00  0.00    +0.000 C 
ATOM      3  C   UNL     1      47.601   8.716  14.122  0.00  0.00    +0.000 C 
ATOM      4  C   UNL     1      48.509   7.551  14.554  0.00  0.00    +0.000 C 
ATOM      5  C   UNL     1      48.018   6.206  13.996  0.00  0.00    +0.000 C 
ATOM      6  C   UNL     1      47.743   6.264  12.495  0.00  0.00    +0.000 C 
ENDROOT
BRANCH   1   7
ATOM      7  C   UNL     1      45.339   7.105  12.623  0.00  0.00    +0.000 C 
BRANCH   7   8
ATOM      8  N   UNL     1      44.952   5.722  12.343  0.00  0.00    +0.000 NA
ATOM      9  H   UNL     1      45.782   5.190  12.074  0.00  0.00    +0.000 HD
BRANCH   8  11
ATOM     10  C   UNL     1      42.611   5.120  11.658  0.00  0.00    +0.000 C 
ATOM     11  C   UNL     1      44.003   5.584  11.218  0.00  0.00    +0.000 C 
BRANCH  11  12
ATOM     12  C   UNL     1      44.557   4.605  10.179  0.00  0.00    +0.000 A 
ATOM     13  C   UNL     1      44.197   3.256  10.217  0.00  0.00    +0.000 A 
ATOM     14  C   UNL     1      44.666   2.399   9.226  0.00  0.00    +0.000 A 
ATOM     15  C   UNL     1      45.497   2.903   8.235  0.00  0.00    +0.000 A 
ATOM     16  C   UNL     1      45.835   4.245   8.284  0.00  0.00    +0.000 A 
ATOM     17  N   UNL     1      45.387   5.104   9.227  0.00  0.00    +0.000 NA
ENDBRANCH  11  12
ENDBRANCH   8  11
ENDBRANCH   7   8
ENDBRANCH   1   7
BRANCH   4  18
ATOM     18  C   UNL     1      48.633   7.454  16.084  0.00  0.00    +0.000 C 
BRANCH  18  19
ATOM     19  N   UNL     1      49.737   6.611  16.485  0.00  0.00    +0.000 N 
ATOM     20  C   UNL     1      49.633   5.709  17.511  0.00  0.00    +0.000 C 
ATOM     21  O   UNL     1      48.586   5.519  18.122  0.00  0.00    +0.000 OA
ATOM     22  H   UNL     1      50.668   6.933  16.239  0.00  0.00    +0.000 HD
BRANCH  20  23
ATOM     23  C   UNL     1      50.839   4.927  17.802  0.00  0.00    +0.000 A 
ATOM     24  C   UNL     1      51.947   5.560  18.346  0.00  0.00    +0.000 A 
ATOM     25  S   UNL     1      53.240   4.501  18.682  0.00  0.00    +0.000 S 
ATOM     26  C   UNL     1      52.381   3.168  18.063  0.00  0.00    +0.000 A 
ATOM     27  N   UNL     1      52.943   1.931  18.029  0.00  0.00    +0.000 NA
ATOM     28  C   UNL     1      52.195   1.019  17.503  0.00  0.00    +0.000 A 
ATOM     29  N   UNL     1      50.934   1.229  17.012  0.00  0.00    +0.000 N 
ATOM     30  C   UNL     1      50.309   2.456  17.065  0.00  0.00    +0.000 A 
ATOM     31  O   UNL     1      49.152   2.601  16.682  0.00  0.00    +0.000 OA
ATOM     32  C   UNL     1      51.117   3.520  17.627  0.00  0.00    +0.000 A 
ATOM     33  H   UNL     1      50.394   0.475  16.628  0.00  0.00    +0.000 HD
ENDBRANCH  20  23
ENDBRANCH  18  19
ENDBRANCH   4  18
TORSDOF 7
ENDMDL
MODEL 8
REMARK VINA RESULT:    -7.042      2.431      3.084
REMARK INTER + INTRA:         -10.978
REMARK INTER:                  -9.588
REMARK INTRA:                  -1.390
REMARK UNBOUND:                -1.054
REMARK  Name = 
REMARK  8 active torsions:
REMARK  status: ('A' for Active; 'I' for Inactive)
REMARK    1  A    between atoms: C_1  and  C_2
REMARK    2  A    between atoms: C_2  and  N_3
REMARK    3  A    between atoms: C_2  and  C_25
REMARK    4  A    between atoms: N_3  and  C_4
REMARK    5  A    between atoms: C_4  and  C_5
REMARK    6  A    between atoms: C_8  and  C_9
REMARK    7  A    between atoms: C_9  and  N_10
REMARK    8  A    between atoms: C_11  and  C_13
REMARK                            x       y       z     vdW  Elec       q    Type
REMARK                         _______ _______ _______ _____ _____    ______ ____
ROOT
ATOM      1  C   UNL     1      45.684   6.725  11.775  0.00  0.00    +0.000 C 
ATOM      2  C   UNL     1      45.401   8.157  12.254  0.00  0.00    +0.000 C 
ATOM      3  C   UNL     1      46.339   8.589  13.378  0.00  0.00    +0.000 C 
ATOM      4  C   UNL     1      47.821   8.445  12.989  0.00  0.00    +0.000 C 
ATOM      5  C   UNL     1      48.130   7.051  12.420  0.00  0.00    +0.000 C 
ATOM      6  C   UNL     1      47.152   6.640  11.322  0.00  0.00    +0.000 C 
ENDROOT
BRANCH   1   7
ATOM      7  C   UNL     1      45.353   5.641  12.830  0.00  0.00    +0.000 C 
BRANCH   7   8
ATOM      8  N   UNL     1      45.365   4.306  12.231  0.00  0.00    +0.000 NA
ATOM      9  H   UNL     1      46.257   4.162  11.752  0.00  0.00    +0.000 HD
BRANCH   8  11
ATOM     10  C   UNL     1      43.232   3.115  11.645  0.00  0.00    +0.000 C 
ATOM     11  C   UNL     1      44.320   4.102  11.207  0.00  0.00    +0.000 C 
BRANCH  11  12
ATOM     12  C   UNL     1      44.950   3.611   9.901  0.00  0.00    +0.000 A 
ATOM     13  C   UNL     1      45.394   4.525   8.943  0.00  0.00    +0.000 A 
ATOM     14  C   UNL     1      46.017   4.055   7.792  0.00  0.00    +0.000 A 
ATOM     15  C   UNL     1      46.164   2.685   7.614  0.00  0.00    +0.000 A 
ATOM     16  C   UNL     1      45.669   1.842   8.595  0.00  0.00    +0.000 A 
ATOM     17  N   UNL     1      45.068   2.269   9.728  0.00  0.00    +0.000 NA
ENDBRANCH  11  12
ENDBRANCH   8  11
ENDBRANCH   7   8
ENDBRANCH   1   7
BRANCH   4  18
ATOM     18  C   UNL     1      48.758   8.732  14.175  0.00  0.00    +0.000 C 
BRANCH  18  19
ATOM     19  N   UNL     1      49.054   7.536  14.931  0.00  0.00    +0.000 N 
ATOM     20  C   UNL     1      48.837   7.454  16.282  0.00  0.00    +0.000 C 
ATOM     21  O   UNL     1      48.331   8.365  16.929  0.00  0.00    +0.000 OA
ATOM     22  H   UNL     1      49.733   6.900  14.527  0.00  0.00    +0.000 HD
BRANCH  20  23
ATOM     23  C   UNL     1      49.189   6.176  16.911  0.00  0.00    +0.000 A 
ATOM     24  C   UNL     1      48.182   5.355  17.397  0.00  0.00    +0.000 A 
ATOM     25  S   UNL     1      48.754   3.883  18.039  0.00  0.00    +0.000 S 
ATOM     26  C   UNL     1      50.372   4.317  17.736  0.00  0.00    +0.000 A 
ATOM     27  N   UNL     1      51.392   3.487  18.082  0.00  0.00    +0.000 NA
ATOM     28  C   UNL     1      52.569   3.955  17.828  0.00  0.00    +0.000 A 
ATOM     29  N   UNL     1      52.820   5.172  17.254  0.00  0.00    +0.000 N 
ATOM     30  C   UNL     1      51.816   6.026  16.849  0.00  0.00    +0.000 A 
ATOM     31  O   UNL     1      52.068   7.081  16.273  0.00  0.00    +0.000 OA
ATOM     32  C   UNL     1      50.475   5.556  17.133  0.00  0.00    +0.000 A 
ATOM     33  H   UNL     1      53.759   5.476  17.066  0.00  0.00    +0.000 HD
ENDBRANCH  20  23
ENDBRANCH  18  19
ENDBRANCH   4  18
TORSDOF 7
ENDMDL
MODEL 9
REMARK VINA RESULT:    -6.735      3.598      9.115
REMARK INTER + INTRA:         -10.546
REMARK INTER:                  -9.106
REMARK INTRA:                  -1.440
REMARK UNBOUND:                -1.054
REMARK  Name = 
REMARK  8 active torsions:
REMARK  status: ('A' for Active; 'I' for Inactive)
REMARK    1  A    between atoms: C_1  and  C_2
REMARK    2  A    between atoms: C_2  and  N_3
REMARK    3  A    between atoms: C_2  and  C_25
REMARK    4  A    between atoms: N_3  and  C_4
REMARK    5  A    between atoms: C_4  and  C_5
REMARK    6  A    between atoms: C_8  and  C_9
REMARK    7  A    between atoms: C_9  and  N_10
REMARK    8  A    between atoms: C_11  and  C_13
REMARK                            x       y       z     vdW  Elec       q    Type
REMARK                         _______ _______ _______ _____ _____    ______ ____
ROOT
ATOM      1  C   UNL     1      49.694   8.270  15.444  0.00  0.00    +0.000 C 
ATOM      2  C   UNL     1      49.641   7.003  14.575  0.00  0.00    +0.000 C 
ATOM      3  C   UNL     1      48.428   6.986  13.648  0.00  0.00    +0.000 C 
ATOM      4  C   UNL     1      48.357   8.240  12.758  0.00  0.00    +0.000 C 
ATOM      5  C   UNL     1      48.496   9.533  13.579  0.00  0.00    +0.000 C 
ATOM      6  C   UNL     1      49.699   9.499  14.519  0.00  0.00    +0.000 C 
ENDROOT
BRANCH   1   7
ATOM      7  C   UNL     1      48.555   8.353  16.490  0.00  0.00    +0.000 C 
BRANCH   7   8
ATOM      8  N   UNL     1      48.995   7.833  17.786  0.00  0.00    +0.000 NA
ATOM      9  H   UNL     1      49.887   7.349  17.666  0.00  0.00    +0.000 HD
BRANCH   8  11
ATOM     10  C   UNL     1      48.093   6.834  19.906  0.00  0.00    +0.000 C 
ATOM     11  C   UNL     1      48.073   6.840  18.374  0.00  0.00    +0.000 C 
BRANCH  11  12
ATOM     12  C   UNL     1      48.410   5.438  17.859  0.00  0.00    +0.000 A 
ATOM     13  C   UNL     1      49.665   4.877  18.107  0.00  0.00    +0.000 A 
ATOM     14  C   UNL     1      49.926   3.579  17.681  0.00  0.00    +0.000 A 
ATOM     15  C   UNL     1      48.938   2.880  17.000  0.00  0.00    +0.000 A 
ATOM     16  C   UNL     1      47.731   3.516  16.765  0.00  0.00    +0.000 A 
ATOM     17  N   UNL     1      47.444   4.772  17.175  0.00  0.00    +0.000 NA
ENDBRANCH  11  12
ENDBRANCH   8  11
ENDBRANCH   7   8
ENDBRANCH   1   7
BRANCH   4  18
ATOM     18  C   UNL     1      47.055   8.292  11.940  0.00  0.00    +0.000 C 
BRANCH  18  19
ATOM     19  N   UNL     1      46.459   6.984  11.789  0.00  0.00    +0.000 N 
ATOM     20  C   UNL     1      45.115   6.813  11.578  0.00  0.00    +0.000 C 
ATOM     21  O   UNL     1      44.339   7.756  11.453  0.00  0.00    +0.000 OA
ATOM     22  H   UNL     1      46.974   6.202  12.180  0.00  0.00    +0.000 HD
BRANCH  20  23
ATOM     23  C   UNL     1      44.659   5.426  11.447  0.00  0.00    +0.000 A 
ATOM     24  C   UNL     1      43.928   4.849  12.475  0.00  0.00    +0.000 A 
ATOM     25  S   UNL     1      43.421   3.256  12.139  0.00  0.00    +0.000 S 
ATOM     26  C   UNL     1      44.207   3.266  10.629  0.00  0.00    +0.000 A 
ATOM     27  N   UNL     1      44.186   2.170   9.825  0.00  0.00    +0.000 NA
ATOM     28  C   UNL     1      44.851   2.302   8.726  0.00  0.00    +0.000 A 
ATOM     29  N   UNL     1      45.530   3.431   8.353  0.00  0.00    +0.000 N 
ATOM     30  C   UNL     1      45.542   4.579   9.117  0.00  0.00    +0.000 A 
ATOM     31  O   UNL     1      46.100   5.600   8.726  0.00  0.00    +0.000 OA
ATOM     32  C   UNL     1      44.828   4.475  10.373  0.00  0.00    +0.000 A 
ATOM     33  H   UNL     1      46.017   3.480   7.476  0.00  0.00    +0.000 HD
ENDBRANCH  20  23
ENDBRANCH  18  19
ENDBRANCH   4  18
TORSDOF 7
ENDMDL
