MODEL 1
REMARK VINA RESULT:    -8.858      0.000      0.000
REMARK INTER + INTRA:         -12.083
REMARK INTER:                 -11.447
REMARK INTRA:                  -0.636
REMARK UNBOUND:                -0.636
REMARK  Name = 
REMARK  6 active torsions:
REMARK  status: ('A' for Active; 'I' for Inactive)
REMARK    1  A    between atoms: C_1  and  C_2
REMARK    2  A    between atoms: C_4  and  C_5
REMARK    3  A    between atoms: C_10  and  N_11
REMARK    4  A    between atoms: N_11  and  C_12
REMARK    5  A    between atoms: C_12  and  C_13
REMARK    6  A    between atoms: C_17  and  C_18
REMARK                            x       y       z     vdW  Elec       q    Type
REMARK                         _______ _______ _______ _____ _____    ______ ____
ROOT
ATOM      1  N   UNL     1      43.927   5.052   9.929  0.00  0.00    +0.000 N 
ATOM      2  H   UNL     1      43.020   5.209   9.519  0.00  0.00    +0.000 HD
ENDROOT
BRANCH   1   9
ATOM      3  C   UNL     1      43.862   2.196  10.573  0.00  0.00    +0.000 C 
ATOM      4  C   UNL     1      44.763   2.811   9.542  0.00  0.00    +0.000 A 
ATOM      5  C   UNL     1      45.610   1.962   8.796  0.00  0.00    +0.000 A 
ATOM      6  C   UNL     1      46.449   2.487   7.817  0.00  0.00    +0.000 A 
ATOM      7  C   UNL     1      46.393   3.849   7.615  0.00  0.00    +0.000 A 
ATOM      8  N   UNL     1      45.588   4.690   8.312  0.00  0.00    +0.000 NA
ATOM      9  C   UNL     1      44.793   4.190   9.286  0.00  0.00    +0.000 A 
BRANCH   6  10
ATOM     10  C   UNL     1      47.331   1.572   7.054  0.00  0.00    +0.000 C 
ATOM     11  N   UNL     1      48.473   2.078   6.477  0.00  0.00    +0.000 N 
ATOM     12  O   UNL     1      47.068   0.392   6.930  0.00  0.00    +0.000 OA
ATOM     13  H   UNL     1      48.793   3.030   6.525  0.00  0.00    +0.000 HD
ATOM     14  H   UNL     1      49.043   1.414   5.971  0.00  0.00    +0.000 HD
ENDBRANCH   6  10
ENDBRANCH   1   9
BRANCH   1  15
ATOM     15  C   UNL     1      44.021   5.256  11.371  0.00  0.00    +0.000 C 
BRANCH  15  16
ATOM     16  C   UNL     1      45.414   5.550  11.896  0.00  0.00    +0.000 A 
ATOM     17  C   UNL     1      46.162   6.608  11.359  0.00  0.00    +0.000 A 
ATOM     18  C   UNL     1      47.405   6.948  11.886  0.00  0.00    +0.000 A 
ATOM     19  C   UNL     1      47.903   6.259  12.993  0.00  0.00    +0.000 A 
ATOM     20  C   UNL     1      47.166   5.227  13.603  0.00  0.00    +0.000 A 
ATOM     21  C   UNL     1      45.941   4.855  13.000  0.00  0.00    +0.000 A 
BRANCH  20  22
ATOM     22  C   UNL     1      47.609   4.622  14.878  0.00  0.00    +0.000 A 
ATOM     23  C   UNL     1      47.932   5.405  15.989  0.00  0.00    +0.000 A 
ATOM     24  C   UNL     1      48.269   4.794  17.198  0.00  0.00    +0.000 A 
ATOM     25  C   UNL     1      48.278   3.410  17.269  0.00  0.00    +0.000 A 
ATOM     26  C   UNL     1      47.948   2.697  16.128  0.00  0.00    +0.000 A 
ATOM     27  N   UNL     1      47.612   3.265  14.945  0.00  0.00    +0.000 NA
ENDBRANCH  20  22
ENDBRANCH  15  16
ENDBRANCH   1  15
TORSDOF 5
ENDMDL
MODEL 2
REMARK VINA RESULT:    -8.490      1.726      2.989
REMARK INTER + INTRA:         -11.607
REMARK INTER:                 -10.586
REMARK INTRA:                  -1.020
REMARK UNBOUND:                -0.636
REMARK  Name = 
REMARK  6 active torsions:
REMARK  status: ('A' for Active; 'I' for Inactive)
REMARK    1  A    between atoms: C_1  and  C_2
REMARK    2  A    between atoms: C_4  and  C_5
REMARK    3  A    between atoms: C_10  and  N_11
REMARK    4  A    between atoms: N_11  and  C_12
REMARK    5  A    between atoms: C_12  and  C_13
REMARK    6  A    between atoms: C_17  and  C_18
REMARK                            x       y       z     vdW  Elec       q    Type
REMARK                         _______ _______ _______ _____ _____    ______ ____
ROOT
ATOM      1  N   UNL     1      43.880   4.932   9.977  0.00  0.00    +0.000 N 
ATOM      2  H   UNL     1      43.043   4.489  10.319  0.00  0.00    +0.000 HD
ENDROOT
BRANCH   1   9
ATOM      3  C   UNL     1      43.996   2.046  10.459  0.00  0.00    +0.000 C 
ATOM      4  C   UNL     1      44.841   2.770   9.451  0.00  0.00    +0.000 A 
ATOM      5  C   UNL     1      45.723   2.016   8.646  0.00  0.00    +0.000 A 
ATOM      6  C   UNL     1      46.511   2.644   7.686  0.00  0.00    +0.000 A 
ATOM      7  C   UNL     1      46.370   4.009   7.561  0.00  0.00    +0.000 A 
ATOM      8  N   UNL     1      45.530   4.760   8.317  0.00  0.00    +0.000 NA
ATOM      9  C   UNL     1      44.784   4.160   9.273  0.00  0.00    +0.000 A 
BRANCH   6  10
ATOM     10  C   UNL     1      47.431   1.827   6.859  0.00  0.00    +0.000 C 
ATOM     11  N   UNL     1      48.594   2.400   6.398  0.00  0.00    +0.000 N 
ATOM     12  O   UNL     1      47.181   0.671   6.583  0.00  0.00    +0.000 OA
ATOM     13  H   UNL     1      48.906   3.340   6.573  0.00  0.00    +0.000 HD
ATOM     14  H   UNL     1      49.191   1.802   5.842  0.00  0.00    +0.000 HD
ENDBRANCH   6  10
ENDBRANCH   1   9
BRANCH   1  15
ATOM     15  C   UNL     1      44.328   6.110  10.711  0.00  0.00    +0.000 C 
BRANCH  15  16
ATOM     16  C   UNL     1      45.317   5.841  11.831  0.00  0.00    +0.000 A 
ATOM     17  C   UNL     1      45.149   4.726  12.667  0.00  0.00    +0.000 A 
ATOM     18  C   UNL     1      46.092   4.413  13.642  0.00  0.00    +0.000 A 
ATOM     19  C   UNL     1      47.245   5.190  13.769  0.00  0.00    +0.000 A 
ATOM     20  C   UNL     1      47.486   6.284  12.918  0.00  0.00    +0.000 A 
ATOM     21  C   UNL     1      46.476   6.622  11.987  0.00  0.00    +0.000 A 
BRANCH  20  22
ATOM     22  C   UNL     1      48.785   6.992  12.933  0.00  0.00    +0.000 A 
ATOM     23  C   UNL     1      49.280   7.643  11.800  0.00  0.00    +0.000 A 
ATOM     24  C   UNL     1      50.470   8.367  11.876  0.00  0.00    +0.000 A 
ATOM     25  C   UNL     1      51.144   8.423  13.087  0.00  0.00    +0.000 A 
ATOM     26  C   UNL     1      50.595   7.753  14.168  0.00  0.00    +0.000 A 
ATOM     27  N   UNL     1      49.439   7.049  14.122  0.00  0.00    +0.000 NA
ENDBRANCH  20  22
ENDBRANCH  15  16
ENDBRANCH   1  15
TORSDOF 5
ENDMDL
MODEL 3
REMARK VINA RESULT:    -8.462      3.219      6.881
REMARK INTER + INTRA:         -11.571
REMARK INTER:                 -10.389
REMARK INTRA:                  -1.181
REMARK UNBOUND:                -0.636
REMARK  Name = 
REMARK  6 active torsions:
REMARK  status: ('A' for Active; 'I' for Inactive)
REMARK    1  A    between atoms: C_1  and  C_2
REMARK    2  A    between atoms: C_4  and  C_5
REMARK    3  A    between atoms: C_10  and  N_11
REMARK    4  A    between atoms: N_11  and  C_12
REMARK    5  A    between atoms: C_12  and  C_13
REMARK    6  A    between atoms: C_17  and  C_18
REMARK                            x       y       z     vdW  Elec       q    Type
REMARK                         _______ _______ _______ _____ _____    ______ ____
ROOT
ATOM      1  N   UNL     1      44.539   6.887  12.661  0.00  0.00    +0.000 N 
ATOM      2  H   UNL     1      43.949   7.394  13.301  0.00  0.00    +0.000 HD
ENDROOT
BRANCH   1   9
ATOM      3  C   UNL     1      46.305   4.864  13.829  0.00  0.00    +0.000 C 
ATOM      4  C   UNL     1      46.779   6.154  13.226  0.00  0.00    +0.000 A 
ATOM      5  C   UNL     1      48.168   6.403  13.174  0.00  0.00    +0.000 A 
ATOM      6  C   UNL     1      48.653   7.578  12.607  0.00  0.00    +0.000 A 
ATOM      7  C   UNL     1      47.719   8.455  12.098  0.00  0.00    +0.000 A 
ATOM      8  N   UNL     1      46.380   8.243  12.131  0.00  0.00    +0.000 NA
ATOM      9  C   UNL     1      45.900   7.117  12.708  0.00  0.00    +0.000 A 
BRANCH   6  10
ATOM     10  C   UNL     1      50.117   7.813  12.571  0.00  0.00    +0.000 C 
ATOM     11  N   UNL     1      50.823   7.431  11.454  0.00  0.00    +0.000 N 
ATOM     12  O   UNL     1      50.699   8.334  13.501  0.00  0.00    +0.000 OA
ATOM     13  H   UNL     1      50.444   7.004  10.626  0.00  0.00    +0.000 HD
ATOM     14  H   UNL     1      51.817   7.616  11.475  0.00  0.00    +0.000 HD
ENDBRANCH   6  10
ENDBRANCH   1   9
BRANCH   1  15
ATOM     15  C   UNL     1      43.907   6.442  11.424  0.00  0.00    +0.000 C 
BRANCH  15  16
ATOM     16  C   UNL     1      44.042   4.961  11.121  0.00  0.00    +0.000 A 
ATOM     17  C   UNL     1      43.223   4.030  11.778  0.00  0.00    +0.000 A 
ATOM     18  C   UNL     1      43.270   2.677  11.451  0.00  0.00    +0.000 A 
ATOM     19  C   UNL     1      44.111   2.238  10.427  0.00  0.00    +0.000 A 
ATOM     20  C   UNL     1      44.910   3.141   9.701  0.00  0.00    +0.000 A 
ATOM     21  C   UNL     1      44.896   4.496  10.104  0.00  0.00    +0.000 A 
BRANCH  20  22
ATOM     22  C   UNL     1      45.660   2.704   8.503  0.00  0.00    +0.000 A 
ATOM     23  C   UNL     1      45.952   3.584   7.458  0.00  0.00    +0.000 A 
ATOM     24  C   UNL     1      46.730   3.155   6.382  0.00  0.00    +0.000 A 
ATOM     25  C   UNL     1      47.199   1.851   6.373  0.00  0.00    +0.000 A 
ATOM     26  C   UNL     1      46.870   1.033   7.442  0.00  0.00    +0.000 A 
ATOM     27  N   UNL     1      46.122   1.426   8.500  0.00  0.00    +0.000 NA
ENDBRANCH  20  22
ENDBRANCH  15  16
ENDBRANCH   1  15
TORSDOF 5
ENDMDL
MODEL 4
REMARK VINA RESULT:    -7.585      3.147      7.002
REMARK INTER + INTRA:         -10.438
REMARK INTER:                  -9.308
REMARK INTRA:                  -1.130
REMARK UNBOUND:                -0.636
REMARK  Name = 
REMARK  6 active torsions:
REMARK  status: ('A' for Active; 'I' for Inactive)
REMARK    1  A    between atoms: C_1  and  C_2
REMARK    2  A    between atoms: C_4  and  C_5
REMARK    3  A    between atoms: C_10  and  N_11
REMARK    4  A    between atoms: N_11  and  C_12
REMARK    5  A    between atoms: C_12  and  C_13
REMARK    6  A    between atoms: C_17  and  C_18
REMARK                            x       y       z     vdW  Elec       q    Type
REMARK                         _______ _______ _______ _____ _____    ______ ____
ROOT
ATOM      1  N   UNL     1      46.246   5.828  13.972  0.00  0.00    +0.000 N 
ATOM      2  H   UNL     1      45.513   6.305  14.472  0.00  0.00    +0.000 HD
ENDROOT
BRANCH   1   9
ATOM      3  C   UNL     1      45.418   8.375  12.788  0.00  0.00    +0.000 C 
ATOM      4  C   UNL     1      46.817   7.833  12.737  0.00  0.00    +0.000 A 
ATOM      5  C   UNL     1      47.819   8.613  12.118  0.00  0.00    +0.000 A 
ATOM      6  C   UNL     1      49.133   8.158  12.066  0.00  0.00    +0.000 A 
ATOM      7  C   UNL     1      49.394   6.939  12.653  0.00  0.00    +0.000 A 
ATOM      8  N   UNL     1      48.455   6.169  13.257  0.00  0.00    +0.000 NA
ATOM      9  C   UNL     1      47.169   6.591  13.285  0.00  0.00    +0.000 A 
BRANCH   6  10
ATOM     10  C   UNL     1      50.163   8.997  11.405  0.00  0.00    +0.000 C 
ATOM     11  N   UNL     1      49.833  10.278  11.027  0.00  0.00    +0.000 N 
ATOM     12  O   UNL     1      51.283   8.578  11.192  0.00  0.00    +0.000 OA
ATOM     13  H   UNL     1      48.944  10.729  11.162  0.00  0.00    +0.000 HD
ATOM     14  H   UNL     1      50.569  10.811  10.584  0.00  0.00    +0.000 HD
ENDBRANCH   6  10
ENDBRANCH   1   9
BRANCH   1  15
ATOM     15  C   UNL     1      45.947   4.465  13.544  0.00  0.00    +0.000 C 
BRANCH  15  16
ATOM     16  C   UNL     1      45.174   4.348  12.244  0.00  0.00    +0.000 A 
ATOM     17  C   UNL     1      44.004   5.098  12.048  0.00  0.00    +0.000 A 
ATOM     18  C   UNL     1      43.329   5.071  10.831  0.00  0.00    +0.000 A 
ATOM     19  C   UNL     1      43.840   4.322   9.769  0.00  0.00    +0.000 A 
ATOM     20  C   UNL     1      45.039   3.597   9.898  0.00  0.00    +0.000 A 
ATOM     21  C   UNL     1      45.662   3.584  11.167  0.00  0.00    +0.000 A 
BRANCH  20  22
ATOM     22  C   UNL     1      45.672   2.954   8.726  0.00  0.00    +0.000 A 
ATOM     23  C   UNL     1      46.078   3.694   7.612  0.00  0.00    +0.000 A 
ATOM     24  C   UNL     1      46.743   3.062   6.560  0.00  0.00    +0.000 A 
ATOM     25  C   UNL     1      46.987   1.700   6.644  0.00  0.00    +0.000 A 
ATOM     26  C   UNL     1      46.555   1.030   7.777  0.00  0.00    +0.000 A 
ATOM     27  N   UNL     1      45.913   1.620   8.814  0.00  0.00    +0.000 NA
ENDBRANCH  20  22
ENDBRANCH  15  16
ENDBRANCH   1  15
TORSDOF 5
ENDMDL
MODEL 5
REMARK VINA RESULT:    -7.335      3.211      7.439
REMARK INTER + INTRA:         -10.115
REMARK INTER:                  -9.808
REMARK INTRA:                  -0.307
REMARK UNBOUND:                -0.636
REMARK  Name = 
REMARK  6 active torsions:
REMARK  status: ('A' for Active; 'I' for Inactive)
REMARK    1  A    between atoms: C_1  and  C_2
REMARK    2  A    between atoms: C_4  and  C_5
REMARK    3  A    between atoms: C_10  and  N_11
REMARK    4  A    between atoms: N_11  and  C_12
REMARK    5  A    between atoms: C_12  and  C_13
REMARK    6  A    between atoms: C_17  and  C_18
REMARK                            x       y       z     vdW  Elec       q    Type
REMARK                         _______ _______ _______ _____ _____    ______ ____
ROOT
ATOM      1  N   UNL     1      44.495   7.405  10.959  0.00  0.00    +0.000 N 
ATOM      2  H   UNL     1      44.687   7.641   9.998  0.00  0.00    +0.000 HD
ENDROOT
BRANCH   1   9
ATOM      3  C   UNL     1      45.041  10.019  12.162  0.00  0.00    +0.000 C 
ATOM      4  C   UNL     1      45.783   8.759  12.502  0.00  0.00    +0.000 A 
ATOM      5  C   UNL     1      46.784   8.815  13.497  0.00  0.00    +0.000 A 
ATOM      6  C   UNL     1      47.484   7.666  13.857  0.00  0.00    +0.000 A 
ATOM      7  C   UNL     1      47.139   6.499  13.211  0.00  0.00    +0.000 A 
ATOM      8  N   UNL     1      46.181   6.413  12.254  0.00  0.00    +0.000 NA
ATOM      9  C   UNL     1      45.518   7.531  11.878  0.00  0.00    +0.000 A 
BRANCH   6  10
ATOM     10  C   UNL     1      48.533   7.757  14.901  0.00  0.00    +0.000 C 
ATOM     11  N   UNL     1      48.286   8.508  16.027  0.00  0.00    +0.000 N 
ATOM     12  O   UNL     1      49.597   7.184  14.784  0.00  0.00    +0.000 OA
ATOM     13  H   UNL     1      47.441   9.013  16.233  0.00  0.00    +0.000 HD
ATOM     14  H   UNL     1      49.029   8.536  16.711  0.00  0.00    +0.000 HD
ENDBRANCH   6  10
ENDBRANCH   1   9
BRANCH   1  15
ATOM     15  C   UNL     1      43.416   6.449  11.179  0.00  0.00    +0.000 C 
BRANCH  15  16
ATOM     16  C   UNL     1      43.778   4.994  10.941  0.00  0.00    +0.000 A 
ATOM     17  C   UNL     1      43.100   3.977  11.630  0.00  0.00    +0.000 A 
ATOM     18  C   UNL     1      43.356   2.635  11.362  0.00  0.00    +0.000 A 
ATOM     19  C   UNL     1      44.269   2.287  10.365  0.00  0.00    +0.000 A 
ATOM     20  C   UNL     1      44.933   3.270   9.608  0.00  0.00    +0.000 A 
ATOM     21  C   UNL     1      44.708   4.623   9.953  0.00  0.00    +0.000 A 
BRANCH  20  22
ATOM     22  C   UNL     1      45.759   2.903   8.437  0.00  0.00    +0.000 A 
ATOM     23  C   UNL     1      46.229   1.601   8.249  0.00  0.00    +0.000 A 
ATOM     24  C   UNL     1      46.937   1.276   7.091  0.00  0.00    +0.000 A 
ATOM     25  C   UNL     1      47.163   2.264   6.145  0.00  0.00    +0.000 A 
ATOM     26  C   UNL     1      46.668   3.533   6.398  0.00  0.00    +0.000 A 
ATOM     27  N   UNL     1      45.973   3.873   7.510  0.00  0.00    +0.000 NA
ENDBRANCH  20  22
ENDBRANCH  15  16
ENDBRANCH   1  15
TORSDOF 5
ENDMDL
MODEL 6
REMARK VINA RESULT:    -7.308      3.049      7.623
REMARK INTER + INTRA:         -10.079
REMARK INTER:                  -9.455
REMARK INTRA:                  -0.625
REMARK UNBOUND:                -0.636
REMARK  Name = 
REMARK  6 active torsions:
REMARK  status: ('A' for Active; 'I' for Inactive)
REMARK    1  A    between atoms: C_1  and  C_2
REMARK    2  A    between atoms: C_4  and  C_5
REMARK    3  A    between atoms: C_10  and  N_11
REMARK    4  A    between atoms: N_11  and  C_12
REMARK    5  A    between atoms: C_12  and  C_13
REMARK    6  A    between atoms: C_17  and  C_18
REMARK                            x       y       z     vdW  Elec       q    Type
REMARK                         _______ _______ _______ _____ _____    ______ ____
ROOT
ATOM      1  N   UNL     1      47.543   6.733  12.695  0.00  0.00    +0.000 N 
ATOM      2  H   UNL     1      48.178   6.500  11.948  0.00  0.00    +0.000 HD
ENDROOT
BRANCH   1   9
ATOM      3  C   UNL     1      49.290   7.889  14.741  0.00  0.00    +0.000 C 
ATOM      4  C   UNL     1      48.493   6.630  14.921  0.00  0.00    +0.000 A 
ATOM      5  C   UNL     1      48.546   5.973  16.171  0.00  0.00    +0.000 A 
ATOM      6  C   UNL     1      47.809   4.813  16.388  0.00  0.00    +0.000 A 
ATOM      7  C   UNL     1      47.031   4.364  15.343  0.00  0.00    +0.000 A 
ATOM      8  N   UNL     1      46.956   4.975  14.133  0.00  0.00    +0.000 NA
ATOM      9  C   UNL     1      47.694   6.086  13.905  0.00  0.00    +0.000 A 
BRANCH   6  10
ATOM     10  C   UNL     1      47.889   4.142  17.708  0.00  0.00    +0.000 C 
ATOM     11  N   UNL     1      47.319   2.898  17.856  0.00  0.00    +0.000 N 
ATOM     12  O   UNL     1      48.445   4.664  18.654  0.00  0.00    +0.000 OA
ATOM     13  H   UNL     1      46.846   2.370  17.143  0.00  0.00    +0.000 HD
ATOM     14  H   UNL     1      47.404   2.480  18.773  0.00  0.00    +0.000 HD
ENDBRANCH   6  10
ENDBRANCH   1   9
BRANCH   1  15
ATOM     15  C   UNL     1      46.239   7.246  12.288  0.00  0.00    +0.000 C 
BRANCH  15  16
ATOM     16  C   UNL     1      45.333   6.245  11.595  0.00  0.00    +0.000 A 
ATOM     17  C   UNL     1      43.940   6.344  11.730  0.00  0.00    +0.000 A 
ATOM     18  C   UNL     1      43.090   5.490  11.033  0.00  0.00    +0.000 A 
ATOM     19  C   UNL     1      43.621   4.546  10.152  0.00  0.00    +0.000 A 
ATOM     20  C   UNL     1      45.008   4.445   9.940  0.00  0.00    +0.000 A 
ATOM     21  C   UNL     1      45.850   5.275  10.717  0.00  0.00    +0.000 A 
BRANCH  20  22
ATOM     22  C   UNL     1      45.557   3.575   8.878  0.00  0.00    +0.000 A 
ATOM     23  C   UNL     1      46.165   4.103   7.736  0.00  0.00    +0.000 A 
ATOM     24  C   UNL     1      46.742   3.249   6.795  0.00  0.00    +0.000 A 
ATOM     25  C   UNL     1      46.696   1.881   7.015  0.00  0.00    +0.000 A 
ATOM     26  C   UNL     1      46.076   1.428   8.168  0.00  0.00    +0.000 A 
ATOM     27  N   UNL     1      45.514   2.235   9.099  0.00  0.00    +0.000 NA
ENDBRANCH  20  22
ENDBRANCH  15  16
ENDBRANCH   1  15
TORSDOF 5
ENDMDL
MODEL 7
REMARK VINA RESULT:    -6.932      4.006      7.720
REMARK INTER + INTRA:          -9.594
REMARK INTER:                  -8.753
REMARK INTRA:                  -0.841
REMARK UNBOUND:                -0.636
REMARK  Name = 
REMARK  6 active torsions:
REMARK  status: ('A' for Active; 'I' for Inactive)
REMARK    1  A    between atoms: C_1  and  C_2
REMARK    2  A    between atoms: C_4  and  C_5
REMARK    3  A    between atoms: C_10  and  N_11
REMARK    4  A    between atoms: N_11  and  C_12
REMARK    5  A    between atoms: C_12  and  C_13
REMARK    6  A    between atoms: C_17  and  C_18
REMARK                            x       y       z     vdW  Elec       q    Type
REMARK                         _______ _______ _______ _____ _____    ______ ____
ROOT
ATOM      1  N   UNL     1      48.301   6.020  16.377  0.00  0.00    +0.000 N 
ATOM      2  H   UNL     1      47.504   6.264  16.943  0.00  0.00    +0.000 HD
ENDROOT
BRANCH   1   9
ATOM      3  C   UNL     1      47.202   3.370  16.963  0.00  0.00    +0.000 C 
ATOM      4  C   UNL     1      48.655   3.729  17.083  0.00  0.00    +0.000 A 
ATOM      5  C   UNL     1      49.569   2.720  17.461  0.00  0.00    +0.000 A 
ATOM      6  C   UNL     1      50.927   3.005  17.565  0.00  0.00    +0.000 A 
ATOM      7  C   UNL     1      51.318   4.293  17.270  0.00  0.00    +0.000 A 
ATOM      8  N   UNL     1      50.465   5.282  16.902  0.00  0.00    +0.000 NA
ATOM      9  C   UNL     1      49.140   5.020  16.828  0.00  0.00    +0.000 A 
BRANCH   6  10
ATOM     10  C   UNL     1      51.862   1.927  17.969  0.00  0.00    +0.000 C 
ATOM     11  N   UNL     1      51.441   0.620  17.892  0.00  0.00    +0.000 N 
ATOM     12  O   UNL     1      52.984   2.174  18.363  0.00  0.00    +0.000 OA
ATOM     13  H   UNL     1      50.542   0.300  17.572  0.00  0.00    +0.000 HD
ATOM     14  H   UNL     1      52.115  -0.079  18.175  0.00  0.00    +0.000 HD
ENDBRANCH   6  10
ENDBRANCH   1   9
BRANCH   1  15
ATOM     15  C   UNL     1      48.807   7.069  15.498  0.00  0.00    +0.000 C 
BRANCH  15  16
ATOM     16  C   UNL     1      48.230   7.076  14.095  0.00  0.00    +0.000 A 
ATOM     17  C   UNL     1      48.966   7.622  13.033  0.00  0.00    +0.000 A 
ATOM     18  C   UNL     1      48.493   7.559  11.725  0.00  0.00    +0.000 A 
ATOM     19  C   UNL     1      47.290   6.906  11.451  0.00  0.00    +0.000 A 
ATOM     20  C   UNL     1      46.543   6.293  12.474  0.00  0.00    +0.000 A 
ATOM     21  C   UNL     1      47.011   6.438  13.801  0.00  0.00    +0.000 A 
BRANCH  20  22
ATOM     22  C   UNL     1      45.368   5.450  12.161  0.00  0.00    +0.000 A 
ATOM     23  C   UNL     1      44.991   5.175  10.844  0.00  0.00    +0.000 A 
ATOM     24  C   UNL     1      43.925   4.311  10.591  0.00  0.00    +0.000 A 
ATOM     25  C   UNL     1      43.256   3.741  11.662  0.00  0.00    +0.000 A 
ATOM     26  C   UNL     1      43.684   4.059  12.941  0.00  0.00    +0.000 A 
ATOM     27  N   UNL     1      44.718   4.889  13.214  0.00  0.00    +0.000 NA
ENDBRANCH  20  22
ENDBRANCH  15  16
ENDBRANCH   1  15
TORSDOF 5
ENDMDL
MODEL 8
REMARK VINA RESULT:    -6.668      3.396      8.122
REMARK INTER + INTRA:          -9.253
REMARK INTER:                  -8.692
REMARK INTRA:                  -0.561
REMARK UNBOUND:                -0.636
REMARK  Name = 
REMARK  6 active torsions:
REMARK  status: ('A' for Active; 'I' for Inactive)
REMARK    1  A    between atoms: C_1  and  C_2
REMARK    2  A    between atoms: C_4  and  C_5
REMARK    3  A    between atoms: C_10  and  N_11
REMARK    4  A    between atoms: N_11  and  C_12
REMARK    5  A    between atoms: C_12  and  C_13
REMARK    6  A    between atoms: C_17  and  C_18
REMARK                            x       y       z     vdW  Elec       q    Type
REMARK                         _______ _______ _______ _____ _____    ______ ____
ROOT
ATOM      1  N   UNL     1      46.833   4.882  14.513  0.00  0.00    +0.000 N 
ATOM      2  H   UNL     1      46.358   4.016  14.709  0.00  0.00    +0.000 HD
ENDROOT
BRANCH   1   9
ATOM      3  C   UNL     1      47.160   3.495  17.072  0.00  0.00    +0.000 C 
ATOM      4  C   UNL     1      48.016   4.640  16.614  0.00  0.00    +0.000 A 
ATOM      5  C   UNL     1      49.080   5.059  17.444  0.00  0.00    +0.000 A 
ATOM      6  C   UNL     1      49.910   6.104  17.050  0.00  0.00    +0.000 A 
ATOM      7  C   UNL     1      49.648   6.681  15.827  0.00  0.00    +0.000 A 
ATOM      8  N   UNL     1      48.636   6.300  15.007  0.00  0.00    +0.000 NA
ATOM      9  C   UNL     1      47.807   5.305  15.397  0.00  0.00    +0.000 A 
BRANCH   6  10
ATOM     10  C   UNL     1      51.016   6.525  17.945  0.00  0.00    +0.000 C 
ATOM     11  N   UNL     1      50.717   7.260  19.069  0.00  0.00    +0.000 N 
ATOM     12  O   UNL     1      52.171   6.236  17.706  0.00  0.00    +0.000 OA
ATOM     13  H   UNL     1      49.800   7.545  19.369  0.00  0.00    +0.000 HD
ATOM     14  H   UNL     1      51.503   7.520  19.649  0.00  0.00    +0.000 HD
ENDBRANCH   6  10
ENDBRANCH   1   9
BRANCH   1  15
ATOM     15  C   UNL     1      46.097   5.848  13.706  0.00  0.00    +0.000 C 
BRANCH  15  16
ATOM     16  C   UNL     1      45.150   5.252  12.681  0.00  0.00    +0.000 A 
ATOM     17  C   UNL     1      43.778   5.542  12.736  0.00  0.00    +0.000 A 
ATOM     18  C   UNL     1      42.906   5.076  11.756  0.00  0.00    +0.000 A 
ATOM     19  C   UNL     1      43.402   4.345  10.675  0.00  0.00    +0.000 A 
ATOM     20  C   UNL     1      44.777   4.076  10.545  0.00  0.00    +0.000 A 
ATOM     21  C   UNL     1      45.628   4.498  11.594  0.00  0.00    +0.000 A 
BRANCH  20  22
ATOM     22  C   UNL     1      45.322   3.462   9.314  0.00  0.00    +0.000 A 
ATOM     23  C   UNL     1      45.762   4.238   8.239  0.00  0.00    +0.000 A 
ATOM     24  C   UNL     1      46.344   3.625   7.129  0.00  0.00    +0.000 A 
ATOM     25  C   UNL     1      46.471   2.244   7.116  0.00  0.00    +0.000 A 
ATOM     26  C   UNL     1      46.013   1.539   8.217  0.00  0.00    +0.000 A 
ATOM     27  N   UNL     1      45.450   2.110   9.308  0.00  0.00    +0.000 NA
ENDBRANCH  20  22
ENDBRANCH  15  16
ENDBRANCH   1  15
TORSDOF 5
ENDMDL
MODEL 9
REMARK VINA RESULT:    -6.611      2.120      3.087
REMARK INTER + INTRA:          -9.179
REMARK INTER:                  -8.408
REMARK INTRA:                  -0.771
REMARK UNBOUND:                -0.636
REMARK  Name = 
REMARK  6 active torsions:
REMARK  status: ('A' for Active; 'I' for Inactive)
REMARK    1  A    between atoms: C_1  and  C_2
REMARK    2  A    between atoms: C_4  and  C_5
REMARK    3  A    between atoms: C_10  and  N_11
REMARK    4  A    between atoms: N_11  and  C_12
REMARK    5  A    between atoms: C_12  and  C_13
REMARK    6  A    between atoms: C_17  and  C_18
REMARK                            x       y       z     vdW  Elec       q    Type
REMARK                         _______ _______ _______ _____ _____    ______ ____
ROOT
ATOM      1  N   UNL     1      44.986   7.150  12.698  0.00  0.00    +0.000 N 
ATOM      2  H   UNL     1      44.549   7.014  13.596  0.00  0.00    +0.000 HD
ENDROOT
BRANCH   1   9
ATOM      3  C   UNL     1      43.005   5.020  13.031  0.00  0.00    +0.000 C 
ATOM      4  C   UNL     1      43.985   5.095  11.896  0.00  0.00    +0.000 A 
ATOM      5  C   UNL     1      43.930   4.102  10.893  0.00  0.00    +0.000 A 
ATOM      6  C   UNL     1      44.808   4.142   9.813  0.00  0.00    +0.000 A 
ATOM      7  C   UNL     1      45.700   5.192   9.775  0.00  0.00    +0.000 A 
ATOM      8  N   UNL     1      45.774   6.162  10.721  0.00  0.00    +0.000 NA
ATOM      9  C   UNL     1      44.945   6.112  11.789  0.00  0.00    +0.000 A 
BRANCH   6  10
ATOM     10  C   UNL     1      44.730   3.083   8.779  0.00  0.00    +0.000 C 
ATOM     11  N   UNL     1      44.637   1.770   9.179  0.00  0.00    +0.000 N 
ATOM     12  O   UNL     1      44.747   3.350   7.594  0.00  0.00    +0.000 OA
ATOM     13  H   UNL     1      44.604   1.437  10.127  0.00  0.00    +0.000 HD
ATOM     14  H   UNL     1      44.583   1.085   8.437  0.00  0.00    +0.000 HD
ENDBRANCH   6  10
ENDBRANCH   1   9
BRANCH   1  15
ATOM     15  C   UNL     1      46.068   8.128  12.655  0.00  0.00    +0.000 C 
BRANCH  15  16
ATOM     16  C   UNL     1      47.302   7.770  13.462  0.00  0.00    +0.000 A 
ATOM     17  C   UNL     1      48.385   8.659  13.526  0.00  0.00    +0.000 A 
ATOM     18  C   UNL     1      49.489   8.388  14.331  0.00  0.00    +0.000 A 
ATOM     19  C   UNL     1      49.507   7.238  15.122  0.00  0.00    +0.000 A 
ATOM     20  C   UNL     1      48.421   6.344  15.135  0.00  0.00    +0.000 A 
ATOM     21  C   UNL     1      47.347   6.607  14.253  0.00  0.00    +0.000 A 
BRANCH  20  22
ATOM     22  C   UNL     1      48.362   5.227  16.104  0.00  0.00    +0.000 A 
ATOM     23  C   UNL     1      47.218   4.437  16.245  0.00  0.00    +0.000 A 
ATOM     24  C   UNL     1      47.230   3.343  17.112  0.00  0.00    +0.000 A 
ATOM     25  C   UNL     1      48.387   3.064  17.822  0.00  0.00    +0.000 A 
ATOM     26  C   UNL     1      49.483   3.890  17.633  0.00  0.00    +0.000 A 
ATOM     27  N   UNL     1      49.500   4.953  16.794  0.00  0.00    +0.000 NA
ENDBRANCH  20  22
ENDBRANCH  15  16
ENDBRANCH   1  15
TORSDOF 5
ENDMDL
