MODEL 1
REMARK VINA RESULT:    -7.636      0.000      0.000
REMARK INTER + INTRA:         -10.458
REMARK INTER:                 -10.091
REMARK INTRA:                  -0.368
REMARK UNBOUND:                -0.368
REMARK  Name = 
REMARK  7 active torsions:
REMARK  status: ('A' for Active; 'I' for Inactive)
REMARK    1  A    between atoms: C_1  and  C_2
REMARK    2  A    between atoms: C_2  and  C_3
REMARK    3  A    between atoms: C_2  and  C_15
REMARK    4  A    between atoms: C_3  and  N_4
REMARK    5  A    between atoms: N_4  and  C_5
REMARK    6  A    between atoms: C_8  and  S_9
REMARK    7  A    between atoms: S_9  and  N_10
REMARK                            x       y       z     vdW  Elec       q    Type
REMARK                         _______ _______ _______ _____ _____    ______ ____
ROOT
ATOM      1  C   UNL     1      45.775   5.521  11.766  0.00  0.00    +0.000 A 
ATOM      2  C   UNL     1      46.808   6.253  12.366  0.00  0.00    +0.000 A 
ATOM      3  C   UNL     1      47.347   5.876  13.600  0.00  0.00    +0.000 A 
ATOM      4  C   UNL     1      46.870   4.731  14.235  0.00  0.00    +0.000 A 
ATOM      5  C   UNL     1      45.889   3.946  13.631  0.00  0.00    +0.000 A 
ATOM      6  C   UNL     1      45.349   4.345  12.404  0.00  0.00    +0.000 A 
ENDROOT
BRANCH   4   7
ATOM      7  S   UNL     1      47.544   4.250  15.794  0.00  0.00    +0.000 S 
ATOM      8  O   UNL     1      48.664   5.103  16.115  0.00  0.00    +0.000 OA
ATOM      9  O   UNL     1      46.469   3.998  16.726  0.00  0.00    +0.000 OA
BRANCH   7  10
ATOM     10  N   UNL     1      48.196   2.747  15.428  0.00  0.00    +0.000 NA
ATOM     11  H   UNL     1      48.115   2.128  16.235  0.00  0.00    +0.000 HD
ATOM     12  H   UNL     1      47.770   2.382  14.576  0.00  0.00    +0.000 HD
ENDBRANCH   7  10
ENDBRANCH   4   7
BRANCH   1  13
ATOM     13  N   UNL     1      45.227   5.830  10.514  0.00  0.00    +0.000 N 
ATOM     14  H   UNL     1      44.954   6.808  10.452  0.00  0.00    +0.000 HD
BRANCH  13  15
ATOM     15  C   UNL     1      45.879   5.337   9.313  0.00  0.00    +0.000 C 
BRANCH  15  17
ATOM     16  C   UNL     1      43.926   3.644   9.503  0.00  0.00    +0.000 C 
ATOM     17  C   UNL     1      45.113   4.172   8.757  0.00  0.00    +0.000 C 
BRANCH  17  18
ATOM     18  C   UNL     1      45.936   3.185   8.042  0.00  0.00    +0.000 A 
ATOM     19  C   UNL     1      45.950   1.851   8.457  0.00  0.00    +0.000 A 
ATOM     20  C   UNL     1      46.696   0.907   7.748  0.00  0.00    +0.000 A 
ATOM     21  C   UNL     1      47.425   1.291   6.623  0.00  0.00    +0.000 A 
ATOM     22  C   UNL     1      47.413   2.619   6.204  0.00  0.00    +0.000 A 
ATOM     23  C   UNL     1      46.673   3.565   6.914  0.00  0.00    +0.000 A 
ENDBRANCH  17  18
ENDBRANCH  15  17
ENDBRANCH  13  15
ENDBRANCH   1  13
TORSDOF 6
ENDMDL
MODEL 2
REMARK VINA RESULT:    -7.633      1.801      2.483
REMARK INTER + INTRA:         -10.455
REMARK INTER:                  -9.861
REMARK INTRA:                  -0.595
REMARK UNBOUND:                -0.368
REMARK  Name = 
REMARK  7 active torsions:
REMARK  status: ('A' for Active; 'I' for Inactive)
REMARK    1  A    between atoms: C_1  and  C_2
REMARK    2  A    between atoms: C_2  and  C_3
REMARK    3  A    between atoms: C_2  and  C_15
REMARK    4  A    between atoms: C_3  and  N_4
REMARK    5  A    between atoms: N_4  and  C_5
REMARK    6  A    between atoms: C_8  and  S_9
REMARK    7  A    between atoms: S_9  and  N_10
REMARK                            x       y       z     vdW  Elec       q    Type
REMARK                         _______ _______ _______ _____ _____    ______ ____
ROOT
ATOM      1  C   UNL     1      44.836   5.193  11.090  0.00  0.00    +0.000 A 
ATOM      2  C   UNL     1      44.820   4.848  12.448  0.00  0.00    +0.000 A 
ATOM      3  C   UNL     1      45.808   5.303  13.327  0.00  0.00    +0.000 A 
ATOM      4  C   UNL     1      46.814   6.142  12.852  0.00  0.00    +0.000 A 
ATOM      5  C   UNL     1      46.818   6.555  11.521  0.00  0.00    +0.000 A 
ATOM      6  C   UNL     1      45.833   6.080  10.650  0.00  0.00    +0.000 A 
ENDROOT
BRANCH   4   7
ATOM      7  S   UNL     1      48.066   6.717  13.956  0.00  0.00    +0.000 S 
ATOM      8  O   UNL     1      47.833   8.109  14.262  0.00  0.00    +0.000 OA
ATOM      9  O   UNL     1      48.297   5.726  14.981  0.00  0.00    +0.000 OA
BRANCH   7  10
ATOM     10  N   UNL     1      49.424   6.681  12.970  0.00  0.00    +0.000 NA
ATOM     11  H   UNL     1      49.357   7.410  12.259  0.00  0.00    +0.000 HD
ATOM     12  H   UNL     1      50.269   6.730  13.539  0.00  0.00    +0.000 HD
ENDBRANCH   7  10
ENDBRANCH   4   7
BRANCH   1  13
ATOM     13  N   UNL     1      43.850   4.800  10.174  0.00  0.00    +0.000 N 
ATOM     14  H   UNL     1      43.041   5.416  10.204  0.00  0.00    +0.000 HD
BRANCH  13  15
ATOM     15  C   UNL     1      44.243   4.430   8.826  0.00  0.00    +0.000 C 
BRANCH  15  17
ATOM     16  C   UNL     1      44.363   2.119   9.994  0.00  0.00    +0.000 C 
ATOM     17  C   UNL     1      44.549   2.961   8.769  0.00  0.00    +0.000 C 
BRANCH  17  18
ATOM     18  C   UNL     1      45.670   2.605   7.886  0.00  0.00    +0.000 A 
ATOM     19  C   UNL     1      46.145   3.526   6.949  0.00  0.00    +0.000 A 
ATOM     20  C   UNL     1      47.240   3.201   6.145  0.00  0.00    +0.000 A 
ATOM     21  C   UNL     1      47.864   1.961   6.277  0.00  0.00    +0.000 A 
ATOM     22  C   UNL     1      47.395   1.041   7.211  0.00  0.00    +0.000 A 
ATOM     23  C   UNL     1      46.298   1.360   8.012  0.00  0.00    +0.000 A 
ENDBRANCH  17  18
ENDBRANCH  15  17
ENDBRANCH  13  15
ENDBRANCH   1  13
TORSDOF 6
ENDMDL
MODEL 3
REMARK VINA RESULT:    -7.549      4.540      7.057
REMARK INTER + INTRA:         -10.343
REMARK INTER:                  -9.568
REMARK INTRA:                  -0.775
REMARK UNBOUND:                -0.368
REMARK  Name = 
REMARK  7 active torsions:
REMARK  status: ('A' for Active; 'I' for Inactive)
REMARK    1  A    between atoms: C_1  and  C_2
REMARK    2  A    between atoms: C_2  and  C_3
REMARK    3  A    between atoms: C_2  and  C_15
REMARK    4  A    between atoms: C_3  and  N_4
REMARK    5  A    between atoms: N_4  and  C_5
REMARK    6  A    between atoms: C_8  and  S_9
REMARK    7  A    between atoms: S_9  and  N_10
REMARK                            x       y       z     vdW  Elec       q    Type
REMARK                         _______ _______ _______ _____ _____    ______ ____
ROOT
ATOM      1  C   UNL     1      44.902   4.055   9.742  0.00  0.00    +0.000 A 
ATOM      2  C   UNL     1      44.941   2.658   9.639  0.00  0.00    +0.000 A 
ATOM      3  C   UNL     1      45.616   2.024   8.592  0.00  0.00    +0.000 A 
ATOM      4  C   UNL     1      46.289   2.793   7.645  0.00  0.00    +0.000 A 
ATOM      5  C   UNL     1      46.323   4.181   7.758  0.00  0.00    +0.000 A 
ATOM      6  C   UNL     1      45.631   4.802   8.803  0.00  0.00    +0.000 A 
ENDROOT
BRANCH   4   7
ATOM      7  S   UNL     1      47.141   1.997   6.318  0.00  0.00    +0.000 S 
ATOM      8  O   UNL     1      47.171   0.573   6.553  0.00  0.00    +0.000 OA
ATOM      9  O   UNL     1      46.712   2.567   5.061  0.00  0.00    +0.000 OA
BRANCH   7  10
ATOM     10  N   UNL     1      48.711   2.540   6.555  0.00  0.00    +0.000 NA
ATOM     11  H   UNL     1      48.728   3.559   6.575  0.00  0.00    +0.000 HD
ATOM     12  H   UNL     1      49.110   2.099   7.384  0.00  0.00    +0.000 HD
ENDBRANCH   7  10
ENDBRANCH   4   7
BRANCH   1  13
ATOM     13  N   UNL     1      44.277   4.742  10.792  0.00  0.00    +0.000 N 
ATOM     14  H   UNL     1      43.286   4.886  10.611  0.00  0.00    +0.000 HD
BRANCH  13  15
ATOM     15  C   UNL     1      44.561   4.353  12.162  0.00  0.00    +0.000 C 
BRANCH  15  17
ATOM     16  C   UNL     1      46.686   4.005  13.606  0.00  0.00    +0.000 C 
ATOM     17  C   UNL     1      45.963   4.749  12.525  0.00  0.00    +0.000 C 
BRANCH  17  18
ATOM     18  C   UNL     1      46.237   6.190  12.418  0.00  0.00    +0.000 A 
ATOM     19  C   UNL     1      45.283   7.119  12.842  0.00  0.00    +0.000 A 
ATOM     20  C   UNL     1      45.566   8.486  12.783  0.00  0.00    +0.000 A 
ATOM     21  C   UNL     1      46.800   8.927  12.306  0.00  0.00    +0.000 A 
ATOM     22  C   UNL     1      47.755   8.004  11.885  0.00  0.00    +0.000 A 
ATOM     23  C   UNL     1      47.473   6.639  11.938  0.00  0.00    +0.000 A 
ENDBRANCH  17  18
ENDBRANCH  15  17
ENDBRANCH  13  15
ENDBRANCH   1  13
TORSDOF 6
ENDMDL
MODEL 4
REMARK VINA RESULT:    -7.298      4.432      6.727
REMARK INTER + INTRA:         -10.012
REMARK INTER:                  -9.100
REMARK INTRA:                  -0.913
REMARK UNBOUND:                -0.368
REMARK  Name = 
REMARK  7 active torsions:
REMARK  status: ('A' for Active; 'I' for Inactive)
REMARK    1  A    between atoms: C_1  and  C_2
REMARK    2  A    between atoms: C_2  and  C_3
REMARK    3  A    between atoms: C_2  and  C_15
REMARK    4  A    between atoms: C_3  and  N_4
REMARK    5  A    between atoms: N_4  and  C_5
REMARK    6  A    between atoms: C_8  and  S_9
REMARK    7  A    between atoms: S_9  and  N_10
REMARK                            x       y       z     vdW  Elec       q    Type
REMARK                         _______ _______ _______ _____ _____    ______ ____
ROOT
ATOM      1  C   UNL     1      44.415   3.266   9.820  0.00  0.00    +0.000 A 
ATOM      2  C   UNL     1      44.963   4.295   9.042  0.00  0.00    +0.000 A 
ATOM      3  C   UNL     1      45.855   4.023   8.000  0.00  0.00    +0.000 A 
ATOM      4  C   UNL     1      46.185   2.701   7.708  0.00  0.00    +0.000 A 
ATOM      5  C   UNL     1      45.605   1.654   8.422  0.00  0.00    +0.000 A 
ATOM      6  C   UNL     1      44.727   1.942   9.471  0.00  0.00    +0.000 A 
ENDROOT
BRANCH   4   7
ATOM      7  S   UNL     1      47.314   2.352   6.395  0.00  0.00    +0.000 S 
ATOM      8  O   UNL     1      46.786   2.875   5.157  0.00  0.00    +0.000 OA
ATOM      9  O   UNL     1      48.663   2.618   6.837  0.00  0.00    +0.000 OA
BRANCH   7  10
ATOM     10  N   UNL     1      47.190   0.681   6.283  0.00  0.00    +0.000 NA
ATOM     11  H   UNL     1      47.282   0.390   5.310  0.00  0.00    +0.000 HD
ATOM     12  H   UNL     1      47.857   0.240   6.916  0.00  0.00    +0.000 HD
ENDBRANCH   7  10
ENDBRANCH   4   7
BRANCH   1  13
ATOM     13  N   UNL     1      43.486   3.478  10.849  0.00  0.00    +0.000 N 
ATOM     14  H   UNL     1      42.589   3.046  10.641  0.00  0.00    +0.000 HD
BRANCH  13  15
ATOM     15  C   UNL     1      43.904   3.302  12.229  0.00  0.00    +0.000 C 
BRANCH  15  17
ATOM     16  C   UNL     1      42.743   5.517  12.912  0.00  0.00    +0.000 C 
ATOM     17  C   UNL     1      43.954   4.634  12.920  0.00  0.00    +0.000 C 
BRANCH  17  18
ATOM     18  C   UNL     1      45.261   5.306  12.859  0.00  0.00    +0.000 A 
ATOM     19  C   UNL     1      46.317   4.859  13.657  0.00  0.00    +0.000 A 
ATOM     20  C   UNL     1      47.570   5.469  13.562  0.00  0.00    +0.000 A 
ATOM     21  C   UNL     1      47.772   6.521  12.669  0.00  0.00    +0.000 A 
ATOM     22  C   UNL     1      46.722   6.968  11.870  0.00  0.00    +0.000 A 
ATOM     23  C   UNL     1      45.469   6.365  11.967  0.00  0.00    +0.000 A 
ENDBRANCH  17  18
ENDBRANCH  15  17
ENDBRANCH  13  15
ENDBRANCH   1  13
TORSDOF 6
ENDMDL
MODEL 5
REMARK VINA RESULT:    -7.292      2.267      2.853
REMARK INTER + INTRA:         -10.004
REMARK INTER:                  -9.173
REMARK INTRA:                  -0.831
REMARK UNBOUND:                -0.368
REMARK  Name = 
REMARK  7 active torsions:
REMARK  status: ('A' for Active; 'I' for Inactive)
REMARK    1  A    between atoms: C_1  and  C_2
REMARK    2  A    between atoms: C_2  and  C_3
REMARK    3  A    between atoms: C_2  and  C_15
REMARK    4  A    between atoms: C_3  and  N_4
REMARK    5  A    between atoms: N_4  and  C_5
REMARK    6  A    between atoms: C_8  and  S_9
REMARK    7  A    between atoms: S_9  and  N_10
REMARK                            x       y       z     vdW  Elec       q    Type
REMARK                         _______ _______ _______ _____ _____    ______ ____
ROOT
ATOM      1  C   UNL     1      44.888   6.126  12.778  0.00  0.00    +0.000 A 
ATOM      2  C   UNL     1      45.338   7.434  12.554  0.00  0.00    +0.000 A 
ATOM      3  C   UNL     1      46.627   7.833  12.920  0.00  0.00    +0.000 A 
ATOM      4  C   UNL     1      47.495   6.905  13.492  0.00  0.00    +0.000 A 
ATOM      5  C   UNL     1      47.098   5.581  13.665  0.00  0.00    +0.000 A 
ATOM      6  C   UNL     1      45.801   5.200  13.309  0.00  0.00    +0.000 A 
ENDROOT
BRANCH   4   7
ATOM      7  S   UNL     1      49.124   7.404  13.958  0.00  0.00    +0.000 S 
ATOM      8  O   UNL     1      49.191   8.846  13.997  0.00  0.00    +0.000 OA
ATOM      9  O   UNL     1      49.587   6.577  15.048  0.00  0.00    +0.000 OA
BRANCH   7  10
ATOM     10  N   UNL     1      50.015   6.935  12.615  0.00  0.00    +0.000 NA
ATOM     11  H   UNL     1      50.757   6.295  12.897  0.00  0.00    +0.000 HD
ATOM     12  H   UNL     1      49.393   6.563  11.897  0.00  0.00    +0.000 HD
ENDBRANCH   7  10
ENDBRANCH   4   7
BRANCH   1  13
ATOM     13  N   UNL     1      43.622   5.661  12.395  0.00  0.00    +0.000 N 
ATOM     14  H   UNL     1      42.876   6.202  12.824  0.00  0.00    +0.000 HD
BRANCH  13  15
ATOM     15  C   UNL     1      43.375   5.346  10.999  0.00  0.00    +0.000 C 
BRANCH  15  17
ATOM     16  C   UNL     1      43.391   2.927  11.931  0.00  0.00    +0.000 C 
ATOM     17  C   UNL     1      43.528   3.869  10.774  0.00  0.00    +0.000 C 
BRANCH  17  18
ATOM     18  C   UNL     1      44.511   3.507   9.741  0.00  0.00    +0.000 A 
ATOM     19  C   UNL     1      44.796   2.163   9.485  0.00  0.00    +0.000 A 
ATOM     20  C   UNL     1      45.695   1.822   8.471  0.00  0.00    +0.000 A 
ATOM     21  C   UNL     1      46.305   2.819   7.710  0.00  0.00    +0.000 A 
ATOM     22  C   UNL     1      46.021   4.159   7.960  0.00  0.00    +0.000 A 
ATOM     23  C   UNL     1      45.129   4.503   8.976  0.00  0.00    +0.000 A 
ENDBRANCH  17  18
ENDBRANCH  15  17
ENDBRANCH  13  15
ENDBRANCH   1  13
TORSDOF 6
ENDMDL
MODEL 6
REMARK VINA RESULT:    -6.631      2.252      3.031
REMARK INTER + INTRA:          -9.131
REMARK INTER:                  -8.609
REMARK INTRA:                  -0.522
REMARK UNBOUND:                -0.368
REMARK  Name = 
REMARK  7 active torsions:
REMARK  status: ('A' for Active; 'I' for Inactive)
REMARK    1  A    between atoms: C_1  and  C_2
REMARK    2  A    between atoms: C_2  and  C_3
REMARK    3  A    between atoms: C_2  and  C_15
REMARK    4  A    between atoms: C_3  and  N_4
REMARK    5  A    between atoms: N_4  and  C_5
REMARK    6  A    between atoms: C_8  and  S_9
REMARK    7  A    between atoms: S_9  and  N_10
REMARK                            x       y       z     vdW  Elec       q    Type
REMARK                         _______ _______ _______ _____ _____    ______ ____
ROOT
ATOM      1  C   UNL     1      46.453   5.806  12.264  0.00  0.00    +0.000 A 
ATOM      2  C   UNL     1      46.780   5.402  13.566  0.00  0.00    +0.000 A 
ATOM      3  C   UNL     1      47.867   5.958  14.248  0.00  0.00    +0.000 A 
ATOM      4  C   UNL     1      48.624   6.954  13.636  0.00  0.00    +0.000 A 
ATOM      5  C   UNL     1      48.282   7.422  12.369  0.00  0.00    +0.000 A 
ATOM      6  C   UNL     1      47.202   6.847  11.692  0.00  0.00    +0.000 A 
ENDROOT
BRANCH   4   7
ATOM      7  S   UNL     1      49.999   7.657  14.492  0.00  0.00    +0.000 S 
ATOM      8  O   UNL     1      50.520   6.695  15.435  0.00  0.00    +0.000 OA
ATOM      9  O   UNL     1      50.844   8.358  13.552  0.00  0.00    +0.000 OA
BRANCH   7  10
ATOM     10  N   UNL     1      49.250   8.846  15.410  0.00  0.00    +0.000 NA
ATOM     11  H   UNL     1      48.776   8.422  16.208  0.00  0.00    +0.000 HD
ATOM     12  H   UNL     1      49.925   9.569  15.661  0.00  0.00    +0.000 HD
ENDBRANCH   7  10
ENDBRANCH   4   7
BRANCH   1  13
ATOM     13  N   UNL     1      45.352   5.313  11.549  0.00  0.00    +0.000 N 
ATOM     14  H   UNL     1      44.475   5.687  11.905  0.00  0.00    +0.000 HD
BRANCH  13  15
ATOM     15  C   UNL     1      45.412   5.266  10.099  0.00  0.00    +0.000 C 
BRANCH  15  17
ATOM     16  C   UNL     1      43.856   3.237  10.525  0.00  0.00    +0.000 C 
ATOM     17  C   UNL     1      44.737   4.021   9.601  0.00  0.00    +0.000 C 
BRANCH  17  18
ATOM     18  C   UNL     1      45.522   3.250   8.625  0.00  0.00    +0.000 A 
ATOM     19  C   UNL     1      46.197   3.905   7.592  0.00  0.00    +0.000 A 
ATOM     20  C   UNL     1      46.978   3.174   6.694  0.00  0.00    +0.000 A 
ATOM     21  C   UNL     1      47.091   1.791   6.829  0.00  0.00    +0.000 A 
ATOM     22  C   UNL     1      46.422   1.133   7.858  0.00  0.00    +0.000 A 
ATOM     23  C   UNL     1      45.636   1.860   8.752  0.00  0.00    +0.000 A 
ENDBRANCH  17  18
ENDBRANCH  15  17
ENDBRANCH  13  15
ENDBRANCH   1  13
TORSDOF 6
ENDMDL
MODEL 7
REMARK VINA RESULT:    -6.567      1.573      2.165
REMARK INTER + INTRA:          -9.046
REMARK INTER:                  -8.621
REMARK INTRA:                  -0.425
REMARK UNBOUND:                -0.368
REMARK  Name = 
REMARK  7 active torsions:
REMARK  status: ('A' for Active; 'I' for Inactive)
REMARK    1  A    between atoms: C_1  and  C_2
REMARK    2  A    between atoms: C_2  and  C_3
REMARK    3  A    between atoms: C_2  and  C_15
REMARK    4  A    between atoms: C_3  and  N_4
REMARK    5  A    between atoms: N_4  and  C_5
REMARK    6  A    between atoms: C_8  and  S_9
REMARK    7  A    between atoms: S_9  and  N_10
REMARK                            x       y       z     vdW  Elec       q    Type
REMARK                         _______ _______ _______ _____ _____    ______ ____
ROOT
ATOM      1  C   UNL     1      46.704   5.678  12.733  0.00  0.00    +0.000 A 
ATOM      2  C   UNL     1      47.549   6.582  13.391  0.00  0.00    +0.000 A 
ATOM      3  C   UNL     1      48.031   6.323  14.678  0.00  0.00    +0.000 A 
ATOM      4  C   UNL     1      47.690   5.129  15.310  0.00  0.00    +0.000 A 
ATOM      5  C   UNL     1      46.907   4.182  14.654  0.00  0.00    +0.000 A 
ATOM      6  C   UNL     1      46.419   4.461  13.373  0.00  0.00    +0.000 A 
ENDROOT
BRANCH   4   7
ATOM      7  S   UNL     1      48.294   4.798  16.936  0.00  0.00    +0.000 S 
ATOM      8  O   UNL     1      48.944   3.509  16.953  0.00  0.00    +0.000 OA
ATOM      9  O   UNL     1      48.916   5.988  17.470  0.00  0.00    +0.000 OA
BRANCH   7  10
ATOM     10  N   UNL     1      46.862   4.605  17.792  0.00  0.00    +0.000 NA
ATOM     11  H   UNL     1      46.654   5.455  18.317  0.00  0.00    +0.000 HD
ATOM     12  H   UNL     1      46.117   4.311  17.160  0.00  0.00    +0.000 HD
ENDBRANCH   7  10
ENDBRANCH   4   7
BRANCH   1  13
ATOM     13  N   UNL     1      46.225   5.867  11.429  0.00  0.00    +0.000 N 
ATOM     14  H   UNL     1      46.477   5.093  10.819  0.00  0.00    +0.000 HD
BRANCH  13  15
ATOM     15  C   UNL     1      44.864   6.334  11.234  0.00  0.00    +0.000 C 
BRANCH  15  17
ATOM     16  C   UNL     1      42.961   4.621  11.640  0.00  0.00    +0.000 C 
ATOM     17  C   UNL     1      44.004   5.207  10.738  0.00  0.00    +0.000 C 
BRANCH  17  18
ATOM     18  C   UNL     1      44.683   4.279   9.822  0.00  0.00    +0.000 A 
ATOM     19  C   UNL     1      44.549   2.899   9.995  0.00  0.00    +0.000 A 
ATOM     20  C   UNL     1      45.157   2.020   9.096  0.00  0.00    +0.000 A 
ATOM     21  C   UNL     1      45.895   2.516   8.021  0.00  0.00    +0.000 A 
ATOM     22  C   UNL     1      46.030   3.891   7.844  0.00  0.00    +0.000 A 
ATOM     23  C   UNL     1      45.428   4.770   8.743  0.00  0.00    +0.000 A 
ENDBRANCH  17  18
ENDBRANCH  15  17
ENDBRANCH  13  15
ENDBRANCH   1  13
TORSDOF 6
ENDMDL
MODEL 8
REMARK VINA RESULT:    -6.457      4.185      7.454
REMARK INTER + INTRA:          -8.900
REMARK INTER:                  -8.241
REMARK INTRA:                  -0.659
REMARK UNBOUND:                -0.368
REMARK  Name = 
REMARK  7 active torsions:
REMARK  status: ('A' for Active; 'I' for Inactive)
REMARK    1  A    between atoms: C_1  and  C_2
REMARK    2  A    between atoms: C_2  and  C_3
REMARK    3  A    between atoms: C_2  and  C_15
REMARK    4  A    between atoms: C_3  and  N_4
REMARK    5  A    between atoms: N_4  and  C_5
REMARK    6  A    between atoms: C_8  and  S_9
REMARK    7  A    between atoms: S_9  and  N_10
REMARK                            x       y       z     vdW  Elec       q    Type
REMARK                         _______ _______ _______ _____ _____    ______ ____
ROOT
ATOM      1  C   UNL     1      46.639   6.295  13.131  0.00  0.00    +0.000 A 
ATOM      2  C   UNL     1      46.404   6.615  11.788  0.00  0.00    +0.000 A 
ATOM      3  C   UNL     1      45.684   5.759  10.950  0.00  0.00    +0.000 A 
ATOM      4  C   UNL     1      45.162   4.574  11.466  0.00  0.00    +0.000 A 
ATOM      5  C   UNL     1      45.323   4.261  12.815  0.00  0.00    +0.000 A 
ATOM      6  C   UNL     1      46.059   5.120  13.637  0.00  0.00    +0.000 A 
ENDROOT
BRANCH   4   7
ATOM      7  S   UNL     1      44.254   3.486  10.412  0.00  0.00    +0.000 S 
ATOM      8  O   UNL     1      45.166   2.570   9.769  0.00  0.00    +0.000 OA
ATOM      9  O   UNL     1      43.060   3.042  11.094  0.00  0.00    +0.000 OA
BRANCH   7  10
ATOM     10  N   UNL     1      43.733   4.539   9.214  0.00  0.00    +0.000 NA
ATOM     11  H   UNL     1      43.622   5.477   9.599  0.00  0.00    +0.000 HD
ATOM     12  H   UNL     1      44.359   4.489   8.410  0.00  0.00    +0.000 HD
ENDBRANCH   7  10
ENDBRANCH   4   7
BRANCH   1  13
ATOM     13  N   UNL     1      47.318   7.134  14.026  0.00  0.00    +0.000 N 
ATOM     14  H   UNL     1      46.706   7.472  14.764  0.00  0.00    +0.000 HD
BRANCH  13  15
ATOM     15  C   UNL     1      48.635   6.747  14.501  0.00  0.00    +0.000 C 
BRANCH  15  17
ATOM     16  C   UNL     1      49.269   7.939  16.714  0.00  0.00    +0.000 C 
ATOM     17  C   UNL     1      48.662   6.769  16.002  0.00  0.00    +0.000 C 
BRANCH  17  18
ATOM     18  C   UNL     1      48.840   5.450  16.629  0.00  0.00    +0.000 A 
ATOM     19  C   UNL     1      47.795   4.522  16.620  0.00  0.00    +0.000 A 
ATOM     20  C   UNL     1      47.983   3.254  17.175  0.00  0.00    +0.000 A 
ATOM     21  C   UNL     1      49.213   2.909  17.734  0.00  0.00    +0.000 A 
ATOM     22  C   UNL     1      50.258   3.830  17.744  0.00  0.00    +0.000 A 
ATOM     23  C   UNL     1      50.071   5.099  17.196  0.00  0.00    +0.000 A 
ENDBRANCH  17  18
ENDBRANCH  15  17
ENDBRANCH  13  15
ENDBRANCH   1  13
TORSDOF 6
ENDMDL
MODEL 9
REMARK VINA RESULT:    -6.430      2.004      3.241
REMARK INTER + INTRA:          -8.866
REMARK INTER:                  -8.115
REMARK INTRA:                  -0.750
REMARK UNBOUND:                -0.368
REMARK  Name = 
REMARK  7 active torsions:
REMARK  status: ('A' for Active; 'I' for Inactive)
REMARK    1  A    between atoms: C_1  and  C_2
REMARK    2  A    between atoms: C_2  and  C_3
REMARK    3  A    between atoms: C_2  and  C_15
REMARK    4  A    between atoms: C_3  and  N_4
REMARK    5  A    between atoms: N_4  and  C_5
REMARK    6  A    between atoms: C_8  and  S_9
REMARK    7  A    between atoms: S_9  and  N_10
REMARK                            x       y       z     vdW  Elec       q    Type
REMARK                         _______ _______ _______ _____ _____    ______ ____
ROOT
ATOM      1  C   UNL     1      47.265   6.077  13.694  0.00  0.00    +0.000 A 
ATOM      2  C   UNL     1      46.745   4.776  13.751  0.00  0.00    +0.000 A 
ATOM      3  C   UNL     1      47.041   3.920  14.815  0.00  0.00    +0.000 A 
ATOM      4  C   UNL     1      47.846   4.375  15.858  0.00  0.00    +0.000 A 
ATOM      5  C   UNL     1      48.323   5.684  15.861  0.00  0.00    +0.000 A 
ATOM      6  C   UNL     1      48.031   6.525  14.782  0.00  0.00    +0.000 A 
ENDROOT
BRANCH   4   7
ATOM      7  S   UNL     1      48.226   3.296  17.204  0.00  0.00    +0.000 S 
ATOM      8  O   UNL     1      48.851   2.098  16.696  0.00  0.00    +0.000 OA
ATOM      9  O   UNL     1      48.789   4.064  18.291  0.00  0.00    +0.000 OA
BRANCH   7  10
ATOM     10  N   UNL     1      46.692   2.840  17.710  0.00  0.00    +0.000 NA
ATOM     11  H   UNL     1      46.465   3.302  18.591  0.00  0.00    +0.000 HD
ATOM     12  H   UNL     1      46.016   3.006  16.965  0.00  0.00    +0.000 HD
ENDBRANCH   7  10
ENDBRANCH   4   7
BRANCH   1  13
ATOM     13  N   UNL     1      46.968   6.991  12.673  0.00  0.00    +0.000 N 
ATOM     14  H   UNL     1      47.487   7.858  12.782  0.00  0.00    +0.000 HD
BRANCH  13  15
ATOM     15  C   UNL     1      46.909   6.524  11.299  0.00  0.00    +0.000 C 
BRANCH  15  17
ATOM     16  C   UNL     1      44.388   6.959  11.714  0.00  0.00    +0.000 C 
ATOM     17  C   UNL     1      45.478   6.364  10.876  0.00  0.00    +0.000 C 
BRANCH  17  18
ATOM     18  C   UNL     1      45.177   5.087  10.211  0.00  0.00    +0.000 A 
ATOM     19  C   UNL     1      45.665   4.832   8.926  0.00  0.00    +0.000 A 
ATOM     20  C   UNL     1      45.416   3.601   8.317  0.00  0.00    +0.000 A 
ATOM     21  C   UNL     1      44.686   2.620   8.988  0.00  0.00    +0.000 A 
ATOM     22  C   UNL     1      44.199   2.869  10.269  0.00  0.00    +0.000 A 
ATOM     23  C   UNL     1      44.441   4.100  10.878  0.00  0.00    +0.000 A 
ENDBRANCH  17  18
ENDBRANCH  15  17
ENDBRANCH  13  15
ENDBRANCH   1  13
TORSDOF 6
ENDMDL
