MODEL 1
REMARK VINA RESULT:    -7.230      0.000      0.000
REMARK INTER + INTRA:          -8.481
REMARK INTER:                  -8.076
REMARK INTRA:                  -0.406
REMARK UNBOUND:                -0.406
REMARK  Name = 
REMARK  2 active torsions:
REMARK  status: ('A' for Active; 'I' for Inactive)
REMARK    1  A    between atoms: C_7  and  C_8
REMARK    2  A    between atoms: C_8  and  C_9
REMARK                            x       y       z     vdW  Elec       q    Type
REMARK                         _______ _______ _______ _____ _____    ______ ____
ROOT
ATOM      1  N   UNL     1      47.170   8.631  12.702  0.00  0.00    +0.000 NA
ATOM      2  C   UNL     1      45.920   8.436  12.463  0.00  0.00    +0.000 C 
ATOM      3  N   UNL     1      44.988   9.311  12.898  0.00  0.00    +0.000 N 
ATOM      4  N   UNL     1      45.425   7.334  11.823  0.00  0.00    +0.000 N 
ATOM      5  C   UNL     1      44.203   7.363  11.014  0.00  0.00    +0.000 C 
ATOM      6  C   UNL     1      43.418   6.087  11.295  0.00  0.00    +0.000 C 
ATOM      7  C   UNL     1      44.232   4.833  10.928  0.00  0.00    +0.000 C 
ATOM      8  C   UNL     1      45.593   4.888  11.651  0.00  0.00    +0.000 C 
ATOM      9  C   UNL     1      46.325   6.224  11.477  0.00  0.00    +0.000 C 
ATOM     10  H   UNL     1      47.286   9.521  13.185  0.00  0.00    +0.000 HD
ATOM     11  H   UNL     1      45.310   9.963  13.601  0.00  0.00    +0.000 HD
ATOM     12  H   UNL     1      44.142   8.848  13.203  0.00  0.00    +0.000 HD
ENDROOT
BRANCH   7  13
ATOM     13  C   UNL     1      44.406   4.642   9.403  0.00  0.00    +0.000 C 
BRANCH  13  14
ATOM     14  C   UNL     1      44.952   3.290   9.037  0.00  0.00    +0.000 A 
ATOM     15  C   UNL     1      44.480   2.075   9.496  0.00  0.00    +0.000 A 
ATOM     16  N   UNL     1      45.183   1.075   8.882  0.00  0.00    +0.000 N 
ATOM     17  C   UNL     1      46.120   1.610   8.031  0.00  0.00    +0.000 A 
ATOM     18  C   UNL     1      47.032   0.984   7.192  0.00  0.00    +0.000 A 
ATOM     19  N   UNL     1      47.880   1.738   6.457  0.00  0.00    +0.000 NA
ATOM     20  C   UNL     1      47.817   3.083   6.569  0.00  0.00    +0.000 A 
ATOM     21  C   UNL     1      46.922   3.772   7.375  0.00  0.00    +0.000 A 
ATOM     22  C   UNL     1      46.027   2.998   8.133  0.00  0.00    +0.000 A 
ATOM     23  H   UNL     1      45.034   0.085   9.026  0.00  0.00    +0.000 HD
ENDBRANCH  13  14
ENDBRANCH   7  13
TORSDOF 2
ENDMDL
MODEL 2
REMARK VINA RESULT:    -6.862      1.141      6.490
REMARK INTER + INTRA:          -8.069
REMARK INTER:                  -7.583
REMARK INTRA:                  -0.486
REMARK UNBOUND:                -0.406
REMARK  Name = 
REMARK  2 active torsions:
REMARK  status: ('A' for Active; 'I' for Inactive)
REMARK    1  A    between atoms: C_7  and  C_8
REMARK    2  A    between atoms: C_8  and  C_9
REMARK                            x       y       z     vdW  Elec       q    Type
REMARK                         _______ _______ _______ _____ _____    ______ ____
ROOT
ATOM      1  N   UNL     1      48.212   2.886   6.153  0.00  0.00    +0.000 NA
ATOM      2  C   UNL     1      47.381   2.109   6.753  0.00  0.00    +0.000 C 
ATOM      3  N   UNL     1      47.312   0.797   6.440  0.00  0.00    +0.000 N 
ATOM      4  N   UNL     1      46.474   2.530   7.687  0.00  0.00    +0.000 N 
ATOM      5  C   UNL     1      45.999   1.674   8.778  0.00  0.00    +0.000 C 
ATOM      6  C   UNL     1      44.503   1.912   8.950  0.00  0.00    +0.000 C 
ATOM      7  C   UNL     1      44.202   3.382   9.296  0.00  0.00    +0.000 C 
ATOM      8  C   UNL     1      44.850   4.291   8.233  0.00  0.00    +0.000 C 
ATOM      9  C   UNL     1      46.325   3.965   7.964  0.00  0.00    +0.000 C 
ATOM     10  H   UNL     1      48.781   2.339   5.508  0.00  0.00    +0.000 HD
ATOM     11  H   UNL     1      47.765   0.541   5.573  0.00  0.00    +0.000 HD
ATOM     12  H   UNL     1      46.362   0.447   6.463  0.00  0.00    +0.000 HD
ENDROOT
BRANCH   7  13
ATOM     13  C   UNL     1      44.644   3.775  10.726  0.00  0.00    +0.000 C 
BRANCH  13  14
ATOM     14  C   UNL     1      44.365   5.215  11.053  0.00  0.00    +0.000 A 
ATOM     15  C   UNL     1      43.119   5.814  11.075  0.00  0.00    +0.000 A 
ATOM     16  N   UNL     1      43.266   7.110  11.488  0.00  0.00    +0.000 N 
ATOM     17  C   UNL     1      44.591   7.380  11.731  0.00  0.00    +0.000 A 
ATOM     18  C   UNL     1      45.202   8.542  12.184  0.00  0.00    +0.000 A 
ATOM     19  N   UNL     1      46.546   8.571  12.325  0.00  0.00    +0.000 NA
ATOM     20  C   UNL     1      47.256   7.465  12.012  0.00  0.00    +0.000 A 
ATOM     21  C   UNL     1      46.709   6.269  11.569  0.00  0.00    +0.000 A 
ATOM     22  C   UNL     1      45.312   6.223  11.432  0.00  0.00    +0.000 A 
ATOM     23  H   UNL     1      42.512   7.773  11.605  0.00  0.00    +0.000 HD
ENDBRANCH  13  14
ENDBRANCH   7  13
TORSDOF 2
ENDMDL
MODEL 3
REMARK VINA RESULT:    -6.304      1.826      3.089
REMARK INTER + INTRA:          -7.446
REMARK INTER:                  -6.993
REMARK INTRA:                  -0.453
REMARK UNBOUND:                -0.406
REMARK  Name = 
REMARK  2 active torsions:
REMARK  status: ('A' for Active; 'I' for Inactive)
REMARK    1  A    between atoms: C_7  and  C_8
REMARK    2  A    between atoms: C_8  and  C_9
REMARK                            x       y       z     vdW  Elec       q    Type
REMARK                         _______ _______ _______ _____ _____    ______ ____
ROOT
ATOM      1  N   UNL     1      50.240   7.769  12.327  0.00  0.00    +0.000 NA
ATOM      2  C   UNL     1      49.195   8.484  12.560  0.00  0.00    +0.000 C 
ATOM      3  N   UNL     1      49.311   9.762  12.980  0.00  0.00    +0.000 N 
ATOM      4  N   UNL     1      47.912   8.018  12.470  0.00  0.00    +0.000 N 
ATOM      5  C   UNL     1      46.777   8.875  12.115  0.00  0.00    +0.000 C 
ATOM      6  C   UNL     1      45.596   8.486  12.997  0.00  0.00    +0.000 C 
ATOM      7  C   UNL     1      45.198   7.013  12.789  0.00  0.00    +0.000 C 
ATOM      8  C   UNL     1      46.440   6.124  12.999  0.00  0.00    +0.000 C 
ATOM      9  C   UNL     1      47.669   6.592  12.211  0.00  0.00    +0.000 C 
ATOM     10  H   UNL     1      51.075   8.339  12.459  0.00  0.00    +0.000 HD
ATOM     11  H   UNL     1      50.230  10.018  13.318  0.00  0.00    +0.000 HD
ATOM     12  H   UNL     1      48.602  10.007  13.659  0.00  0.00    +0.000 HD
ENDROOT
BRANCH   7  13
ATOM     13  C   UNL     1      44.534   6.748  11.418  0.00  0.00    +0.000 C 
BRANCH  13  14
ATOM     14  C   UNL     1      44.303   5.287  11.148  0.00  0.00    +0.000 A 
ATOM     15  C   UNL     1      43.535   4.433  11.917  0.00  0.00    +0.000 A 
ATOM     16  N   UNL     1      43.508   3.207  11.310  0.00  0.00    +0.000 N 
ATOM     17  C   UNL     1      44.255   3.235  10.156  0.00  0.00    +0.000 A 
ATOM     18  C   UNL     1      44.490   2.241   9.215  0.00  0.00    +0.000 A 
ATOM     19  N   UNL     1      45.291   2.507   8.159  0.00  0.00    +0.000 NA
ATOM     20  C   UNL     1      45.845   3.735   8.056  0.00  0.00    +0.000 A 
ATOM     21  C   UNL     1      45.639   4.777   8.951  0.00  0.00    +0.000 A 
ATOM     22  C   UNL     1      44.798   4.515  10.045  0.00  0.00    +0.000 A 
ATOM     23  H   UNL     1      43.008   2.398  11.653  0.00  0.00    +0.000 HD
ENDBRANCH  13  14
ENDBRANCH   7  13
TORSDOF 2
ENDMDL
MODEL 4
REMARK VINA RESULT:    -6.194      1.810      3.191
REMARK INTER + INTRA:          -7.323
REMARK INTER:                  -7.165
REMARK INTRA:                  -0.158
REMARK UNBOUND:                -0.406
REMARK  Name = 
REMARK  2 active torsions:
REMARK  status: ('A' for Active; 'I' for Inactive)
REMARK    1  A    between atoms: C_7  and  C_8
REMARK    2  A    between atoms: C_8  and  C_9
REMARK                            x       y       z     vdW  Elec       q    Type
REMARK                         _______ _______ _______ _____ _____    ______ ____
ROOT
ATOM      1  N   UNL     1      47.898   9.574  15.188  0.00  0.00    +0.000 NA
ATOM      2  C   UNL     1      48.125   8.489  14.533  0.00  0.00    +0.000 C 
ATOM      3  N   UNL     1      49.306   7.846  14.650  0.00  0.00    +0.000 N 
ATOM      4  N   UNL     1      47.249   7.935  13.641  0.00  0.00    +0.000 N 
ATOM      5  C   UNL     1      47.177   6.494  13.385  0.00  0.00    +0.000 C 
ATOM      6  C   UNL     1      46.989   6.287  11.887  0.00  0.00    +0.000 C 
ATOM      7  C   UNL     1      45.694   6.951  11.385  0.00  0.00    +0.000 C 
ATOM      8  C   UNL     1      45.695   8.435  11.804  0.00  0.00    +0.000 C 
ATOM      9  C   UNL     1      46.015   8.652  13.288  0.00  0.00    +0.000 C 
ATOM     10  H   UNL     1      48.696   9.780  15.788  0.00  0.00    +0.000 HD
ATOM     11  H   UNL     1      50.047   8.388  15.074  0.00  0.00    +0.000 HD
ATOM     12  H   UNL     1      49.613   7.449  13.771  0.00  0.00    +0.000 HD
ENDROOT
BRANCH   7  13
ATOM     13  C   UNL     1      44.412   6.227  11.859  0.00  0.00    +0.000 C 
BRANCH  13  14
ATOM     14  C   UNL     1      44.372   4.779  11.461  0.00  0.00    +0.000 A 
ATOM     15  C   UNL     1      43.890   3.739  12.235  0.00  0.00    +0.000 A 
ATOM     16  N   UNL     1      43.953   2.586  11.502  0.00  0.00    +0.000 N 
ATOM     17  C   UNL     1      44.477   2.845  10.258  0.00  0.00    +0.000 A 
ATOM     18  C   UNL     1      44.702   1.994   9.184  0.00  0.00    +0.000 A 
ATOM     19  N   UNL     1      45.259   2.487   8.056  0.00  0.00    +0.000 NA
ATOM     20  C   UNL     1      45.588   3.797   8.011  0.00  0.00    +0.000 A 
ATOM     21  C   UNL     1      45.377   4.704   9.041  0.00  0.00    +0.000 A 
ATOM     22  C   UNL     1      44.786   4.205  10.213  0.00  0.00    +0.000 A 
ATOM     23  H   UNL     1      43.652   1.675  11.821  0.00  0.00    +0.000 HD
ENDBRANCH  13  14
ENDBRANCH   7  13
TORSDOF 2
ENDMDL
MODEL 5
REMARK VINA RESULT:    -5.908      2.252      6.642
REMARK INTER + INTRA:          -7.004
REMARK INTER:                  -6.733
REMARK INTRA:                  -0.271
REMARK UNBOUND:                -0.406
REMARK  Name = 
REMARK  2 active torsions:
REMARK  status: ('A' for Active; 'I' for Inactive)
REMARK    1  A    between atoms: C_7  and  C_8
REMARK    2  A    between atoms: C_8  and  C_9
REMARK                            x       y       z     vdW  Elec       q    Type
REMARK                         _______ _______ _______ _____ _____    ______ ____
ROOT
ATOM      1  N   UNL     1      44.869   3.263   8.294  0.00  0.00    +0.000 NA
ATOM      2  C   UNL     1      44.667   2.974   9.531  0.00  0.00    +0.000 C 
ATOM      3  N   UNL     1      44.200   1.759   9.890  0.00  0.00    +0.000 N 
ATOM      4  N   UNL     1      44.840   3.855  10.563  0.00  0.00    +0.000 N 
ATOM      5  C   UNL     1      45.226   3.436  11.913  0.00  0.00    +0.000 C 
ATOM      6  C   UNL     1      44.420   4.257  12.913  0.00  0.00    +0.000 C 
ATOM      7  C   UNL     1      44.697   5.763  12.757  0.00  0.00    +0.000 C 
ATOM      8  C   UNL     1      44.452   6.170  11.290  0.00  0.00    +0.000 C 
ATOM      9  C   UNL     1      45.158   5.261  10.276  0.00  0.00    +0.000 C 
ATOM     10  H   UNL     1      44.675   2.444   7.719  0.00  0.00    +0.000 HD
ATOM     11  H   UNL     1      43.806   1.213   9.134  0.00  0.00    +0.000 HD
ATOM     12  H   UNL     1      43.551   1.812  10.665  0.00  0.00    +0.000 HD
ENDROOT
BRANCH   7  13
ATOM     13  C   UNL     1      46.110   6.178  13.233  0.00  0.00    +0.000 C 
BRANCH  13  14
ATOM     14  C   UNL     1      46.456   7.598  12.885  0.00  0.00    +0.000 A 
ATOM     15  C   UNL     1      45.646   8.701  13.085  0.00  0.00    +0.000 A 
ATOM     16  N   UNL     1      46.337   9.821  12.711  0.00  0.00    +0.000 N 
ATOM     17  C   UNL     1      47.588   9.475  12.258  0.00  0.00    +0.000 A 
ATOM     18  C   UNL     1      48.630  10.272  11.803  0.00  0.00    +0.000 A 
ATOM     19  N   UNL     1      49.774   9.688  11.383  0.00  0.00    +0.000 NA
ATOM     20  C   UNL     1      49.865   8.340  11.411  0.00  0.00    +0.000 A 
ATOM     21  C   UNL     1      48.868   7.487  11.866  0.00  0.00    +0.000 A 
ATOM     22  C   UNL     1      47.680   8.084  12.319  0.00  0.00    +0.000 A 
ATOM     23  H   UNL     1      45.985  10.767  12.765  0.00  0.00    +0.000 HD
ENDBRANCH  13  14
ENDBRANCH   7  13
TORSDOF 2
ENDMDL
MODEL 6
REMARK VINA RESULT:    -5.796      3.066      6.967
REMARK INTER + INTRA:          -6.880
REMARK INTER:                  -6.741
REMARK INTRA:                  -0.139
REMARK UNBOUND:                -0.406
REMARK  Name = 
REMARK  2 active torsions:
REMARK  status: ('A' for Active; 'I' for Inactive)
REMARK    1  A    between atoms: C_7  and  C_8
REMARK    2  A    between atoms: C_8  and  C_9
REMARK                            x       y       z     vdW  Elec       q    Type
REMARK                         _______ _______ _______ _____ _____    ______ ____
ROOT
ATOM      1  N   UNL     1      43.230   2.144  11.704  0.00  0.00    +0.000 NA
ATOM      2  C   UNL     1      43.913   2.965  10.986  0.00  0.00    +0.000 C 
ATOM      3  N   UNL     1      44.146   2.712   9.680  0.00  0.00    +0.000 N 
ATOM      4  N   UNL     1      44.501   4.101  11.469  0.00  0.00    +0.000 N 
ATOM      5  C   UNL     1      44.712   5.300  10.652  0.00  0.00    +0.000 C 
ATOM      6  C   UNL     1      46.086   5.867  10.989  0.00  0.00    +0.000 C 
ATOM      7  C   UNL     1      46.188   6.250  12.476  0.00  0.00    +0.000 C 
ATOM      8  C   UNL     1      45.800   5.031  13.336  0.00  0.00    +0.000 C 
ATOM      9  C   UNL     1      44.479   4.377  12.913  0.00  0.00    +0.000 C 
ATOM     10  H   UNL     1      42.896   1.380  11.118  0.00  0.00    +0.000 HD
ATOM     11  H   UNL     1      43.965   1.760   9.391  0.00  0.00    +0.000 HD
ATOM     12  H   UNL     1      45.073   3.001   9.394  0.00  0.00    +0.000 HD
ENDROOT
BRANCH   7  13
ATOM     13  C   UNL     1      45.348   7.496  12.846  0.00  0.00    +0.000 C 
BRANCH  13  14
ATOM     14  C   UNL     1      45.944   8.779  12.338  0.00  0.00    +0.000 A 
ATOM     15  C   UNL     1      45.238   9.915  11.986  0.00  0.00    +0.000 A 
ATOM     16  N   UNL     1      46.132  10.893  11.645  0.00  0.00    +0.000 N 
ATOM     17  C   UNL     1      47.417  10.419  11.756  0.00  0.00    +0.000 A 
ATOM     18  C   UNL     1      48.631  11.056  11.537  0.00  0.00    +0.000 A 
ATOM     19  N   UNL     1      49.780  10.361  11.693  0.00  0.00    +0.000 NA
ATOM     20  C   UNL     1      49.710   9.060  12.050  0.00  0.00    +0.000 A 
ATOM     21  C   UNL     1      48.532   8.367  12.298  0.00  0.00    +0.000 A 
ATOM     22  C   UNL     1      47.333   9.084  12.152  0.00  0.00    +0.000 A 
ATOM     23  H   UNL     1      45.887  11.831  11.358  0.00  0.00    +0.000 HD
ENDBRANCH  13  14
ENDBRANCH   7  13
TORSDOF 2
ENDMDL
MODEL 7
REMARK VINA RESULT:    -5.675      3.783      5.039
REMARK INTER + INTRA:          -6.744
REMARK INTER:                  -6.325
REMARK INTRA:                  -0.419
REMARK UNBOUND:                -0.406
REMARK  Name = 
REMARK  2 active torsions:
REMARK  status: ('A' for Active; 'I' for Inactive)
REMARK    1  A    between atoms: C_7  and  C_8
REMARK    2  A    between atoms: C_8  and  C_9
REMARK                            x       y       z     vdW  Elec       q    Type
REMARK                         _______ _______ _______ _____ _____    ______ ____
ROOT
ATOM      1  N   UNL     1      47.004  11.263  11.641  0.00  0.00    +0.000 NA
ATOM      2  C   UNL     1      47.831  10.700  12.449  0.00  0.00    +0.000 C 
ATOM      3  N   UNL     1      48.833  11.406  13.015  0.00  0.00    +0.000 N 
ATOM      4  N   UNL     1      47.817   9.367  12.756  0.00  0.00    +0.000 N 
ATOM      5  C   UNL     1      48.269   8.841  14.047  0.00  0.00    +0.000 C 
ATOM      6  C   UNL     1      49.055   7.561  13.789  0.00  0.00    +0.000 C 
ATOM      7  C   UNL     1      48.186   6.499  13.091  0.00  0.00    +0.000 C 
ATOM      8  C   UNL     1      47.573   7.110  11.816  0.00  0.00    +0.000 C 
ATOM      9  C   UNL     1      46.895   8.465  12.051  0.00  0.00    +0.000 C 
ATOM     10  H   UNL     1      47.216  12.258  11.579  0.00  0.00    +0.000 HD
ATOM     11  H   UNL     1      49.022  12.301  12.583  0.00  0.00    +0.000 HD
ATOM     12  H   UNL     1      49.685  10.864  13.097  0.00  0.00    +0.000 HD
ENDROOT
BRANCH   7  13
ATOM     13  C   UNL     1      47.099   5.897  14.012  0.00  0.00    +0.000 C 
BRANCH  13  14
ATOM     14  C   UNL     1      46.329   4.781  13.364  0.00  0.00    +0.000 A 
ATOM     15  C   UNL     1      46.696   3.448  13.344  0.00  0.00    +0.000 A 
ATOM     16  N   UNL     1      45.706   2.734  12.726  0.00  0.00    +0.000 N 
ATOM     17  C   UNL     1      44.695   3.575  12.329  0.00  0.00    +0.000 A 
ATOM     18  C   UNL     1      43.493   3.295  11.692  0.00  0.00    +0.000 A 
ATOM     19  N   UNL     1      42.658   4.311  11.379  0.00  0.00    +0.000 NA
ATOM     20  C   UNL     1      43.025   5.573  11.690  0.00  0.00    +0.000 A 
ATOM     21  C   UNL     1      44.203   5.921  12.338  0.00  0.00    +0.000 A 
ATOM     22  C   UNL     1      45.071   4.871  12.680  0.00  0.00    +0.000 A 
ATOM     23  H   UNL     1      45.711   1.733  12.586  0.00  0.00    +0.000 HD
ENDBRANCH  13  14
ENDBRANCH   7  13
TORSDOF 2
ENDMDL
MODEL 8
REMARK VINA RESULT:    -5.627      4.275      6.069
REMARK INTER + INTRA:          -6.690
REMARK INTER:                  -6.248
REMARK INTRA:                  -0.443
REMARK UNBOUND:                -0.406
REMARK  Name = 
REMARK  2 active torsions:
REMARK  status: ('A' for Active; 'I' for Inactive)
REMARK    1  A    between atoms: C_7  and  C_8
REMARK    2  A    between atoms: C_8  and  C_9
REMARK                            x       y       z     vdW  Elec       q    Type
REMARK                         _______ _______ _______ _____ _____    ______ ____
ROOT
ATOM      1  N   UNL     1      51.978   9.639  14.286  0.00  0.00    +0.000 NA
ATOM      2  C   UNL     1      51.349   8.516  14.280  0.00  0.00    +0.000 C 
ATOM      3  N   UNL     1      51.914   7.404  14.799  0.00  0.00    +0.000 N 
ATOM      4  N   UNL     1      50.119   8.329  13.712  0.00  0.00    +0.000 N 
ATOM      5  C   UNL     1      49.157   7.338  14.202  0.00  0.00    +0.000 C 
ATOM      6  C   UNL     1      48.501   6.677  12.995  0.00  0.00    +0.000 C 
ATOM      7  C   UNL     1      47.760   7.707  12.123  0.00  0.00    +0.000 C 
ATOM      8  C   UNL     1      48.735   8.841  11.747  0.00  0.00    +0.000 C 
ATOM      9  C   UNL     1      49.495   9.419  12.948  0.00  0.00    +0.000 C 
ATOM     10  H   UNL     1      52.869   9.524  14.768  0.00  0.00    +0.000 HD
ATOM     11  H   UNL     1      52.911   7.467  14.957  0.00  0.00    +0.000 HD
ATOM     12  H   UNL     1      51.690   6.575  14.263  0.00  0.00    +0.000 HD
ENDROOT
BRANCH   7  13
ATOM     13  C   UNL     1      46.476   8.258  12.786  0.00  0.00    +0.000 C 
BRANCH  13  14
ATOM     14  C   UNL     1      45.216   7.697  12.188  0.00  0.00    +0.000 A 
ATOM     15  C   UNL     1      44.350   8.371  11.346  0.00  0.00    +0.000 A 
ATOM     16  N   UNL     1      43.364   7.507  10.956  0.00  0.00    +0.000 N 
ATOM     17  C   UNL     1      43.559   6.275  11.533  0.00  0.00    +0.000 A 
ATOM     18  C   UNL     1      42.831   5.099  11.407  0.00  0.00    +0.000 A 
ATOM     19  N   UNL     1      43.214   4.007  12.105  0.00  0.00    +0.000 NA
ATOM     20  C   UNL     1      44.293   4.097  12.913  0.00  0.00    +0.000 A 
ATOM     21  C   UNL     1      45.072   5.234  13.074  0.00  0.00    +0.000 A 
ATOM     22  C   UNL     1      44.691   6.371  12.342  0.00  0.00    +0.000 A 
ATOM     23  H   UNL     1      42.604   7.735  10.329  0.00  0.00    +0.000 HD
ENDBRANCH  13  14
ENDBRANCH   7  13
TORSDOF 2
ENDMDL
MODEL 9
REMARK VINA RESULT:    -5.575      3.771      5.360
REMARK INTER + INTRA:          -6.632
REMARK INTER:                  -6.176
REMARK INTRA:                  -0.456
REMARK UNBOUND:                -0.406
REMARK  Name = 
REMARK  2 active torsions:
REMARK  status: ('A' for Active; 'I' for Inactive)
REMARK    1  A    between atoms: C_7  and  C_8
REMARK    2  A    between atoms: C_8  and  C_9
REMARK                            x       y       z     vdW  Elec       q    Type
REMARK                         _______ _______ _______ _____ _____    ______ ____
ROOT
ATOM      1  N   UNL     1      51.474  10.059  13.489  0.00  0.00    +0.000 NA
ATOM      2  C   UNL     1      51.088   8.983  12.898  0.00  0.00    +0.000 C 
ATOM      3  N   UNL     1      51.979   8.172  12.288  0.00  0.00    +0.000 N 
ATOM      4  N   UNL     1      49.780   8.600  12.778  0.00  0.00    +0.000 N 
ATOM      5  C   UNL     1      49.364   7.197  12.704  0.00  0.00    +0.000 C 
ATOM      6  C   UNL     1      48.256   7.086  11.663  0.00  0.00    +0.000 C 
ATOM      7  C   UNL     1      47.040   7.950  12.042  0.00  0.00    +0.000 C 
ATOM      8  C   UNL     1      47.509   9.398  12.286  0.00  0.00    +0.000 C 
ATOM      9  C   UNL     1      48.711   9.501  13.232  0.00  0.00    +0.000 C 
ATOM     10  H   UNL     1      52.490  10.121  13.448  0.00  0.00    +0.000 HD
ATOM     11  H   UNL     1      52.889   8.583  12.127  0.00  0.00    +0.000 HD
ATOM     12  H   UNL     1      51.611   7.775  11.433  0.00  0.00    +0.000 HD
ENDROOT
BRANCH   7  13
ATOM     13  C   UNL     1      46.250   7.397  13.251  0.00  0.00    +0.000 C 
BRANCH  13  14
ATOM     14  C   UNL     1      45.943   5.931  13.135  0.00  0.00    +0.000 A 
ATOM     15  C   UNL     1      46.517   4.921  13.886  0.00  0.00    +0.000 A 
ATOM     16  N   UNL     1      45.930   3.735  13.541  0.00  0.00    +0.000 N 
ATOM     17  C   UNL     1      44.983   3.943  12.566  0.00  0.00    +0.000 A 
ATOM     18  C   UNL     1      44.131   3.044  11.937  0.00  0.00    +0.000 A 
ATOM     19  N   UNL     1      43.291   3.492  10.978  0.00  0.00    +0.000 NA
ATOM     20  C   UNL     1      43.312   4.803  10.655  0.00  0.00    +0.000 A 
ATOM     21  C   UNL     1      44.126   5.756  11.254  0.00  0.00    +0.000 A 
ATOM     22  C   UNL     1      44.993   5.304  12.262  0.00  0.00    +0.000 A 
ATOM     23  H   UNL     1      46.152   2.836  13.946  0.00  0.00    +0.000 HD
ENDBRANCH  13  14
ENDBRANCH   7  13
TORSDOF 2
ENDMDL
