MODEL 1
REMARK VINA RESULT:    -8.327      0.000      0.000
REMARK INTER + INTRA:         -10.883
REMARK INTER:                 -10.274
REMARK INTRA:                  -0.609
REMARK UNBOUND:                -0.609
REMARK  Name = 
REMARK  4 active torsions:
REMARK  status: ('A' for Active; 'I' for Inactive)
REMARK    1  A    between atoms: C_2  and  C_4
REMARK    2  A    between atoms: C_7  and  C_8
REMARK    3  A    between atoms: C_8  and  C_9
REMARK    4  A    between atoms: C_9  and  C_10
REMARK                            x       y       z     vdW  Elec       q    Type
REMARK                         _______ _______ _______ _____ _____    ______ ____
ROOT
ATOM      1  C   UNL     1      46.381   2.323   7.783  0.00  0.00    +0.000 A 
ATOM      2  C   UNL     1      46.377   3.720   7.640  0.00  0.00    +0.000 A 
ATOM      3  C   UNL     1      45.535   4.510   8.430  0.00  0.00    +0.000 A 
ATOM      4  C   UNL     1      44.654   3.931   9.354  0.00  0.00    +0.000 A 
ATOM      5  C   UNL     1      44.642   2.529   9.461  0.00  0.00    +0.000 A 
ATOM      6  C   UNL     1      45.487   1.731   8.680  0.00  0.00    +0.000 A 
ENDROOT
BRANCH   1   8
ATOM      7  N   UNL     1      48.456   2.080   6.540  0.00  0.00    +0.000 N 
ATOM      8  C   UNL     1      47.329   1.470   7.015  0.00  0.00    +0.000 C 
ATOM      9  O   UNL     1      47.130   0.274   6.847  0.00  0.00    +0.000 OA
ATOM     10  H   UNL     1      49.142   1.487   6.097  0.00  0.00    +0.000 HD
ATOM     11  H   UNL     1      48.766   2.979   6.883  0.00  0.00    +0.000 HD
ENDBRANCH   1   8
BRANCH   4  12
ATOM     12  C   UNL     1      43.806   4.750  10.326  0.00  0.00    +0.000 C 
BRANCH  12  13
ATOM     13  C   UNL     1      44.117   4.546  11.807  0.00  0.00    +0.000 C 
ATOM     14  C   UNL     1      43.354   3.420  12.483  0.00  0.00    +0.000 C 
ATOM     15  C   UNL     1      43.058   4.821  12.885  0.00  0.00    +0.000 C 
BRANCH  13  16
ATOM     16  C   UNL     1      45.503   4.981  12.270  0.00  0.00    +0.000 A 
ATOM     17  C   UNL     1      46.118   6.138  11.754  0.00  0.00    +0.000 A 
ATOM     18  C   UNL     1      47.328   6.555  12.279  0.00  0.00    +0.000 A 
ATOM     19  N   UNL     1      47.987   5.906  13.255  0.00  0.00    +0.000 NA
ATOM     20  C   UNL     1      47.404   4.781  13.729  0.00  0.00    +0.000 A 
ATOM     21  C   UNL     1      46.186   4.297  13.280  0.00  0.00    +0.000 A 
ENDBRANCH  13  16
ENDBRANCH  12  13
ENDBRANCH   4  12
TORSDOF 4
ENDMDL
MODEL 2
REMARK VINA RESULT:    -5.651      3.322      6.256
REMARK INTER + INTRA:          -7.582
REMARK INTER:                  -7.459
REMARK INTRA:                  -0.123
REMARK UNBOUND:                -0.609
REMARK  Name = 
REMARK  4 active torsions:
REMARK  status: ('A' for Active; 'I' for Inactive)
REMARK    1  A    between atoms: C_2  and  C_4
REMARK    2  A    between atoms: C_7  and  C_8
REMARK    3  A    between atoms: C_8  and  C_9
REMARK    4  A    between atoms: C_9  and  C_10
REMARK                            x       y       z     vdW  Elec       q    Type
REMARK                         _______ _______ _______ _____ _____    ______ ____
ROOT
ATOM      1  C   UNL     1      46.716   8.879  12.136  0.00  0.00    +0.000 A 
ATOM      2  C   UNL     1      45.387   8.574  12.475  0.00  0.00    +0.000 A 
ATOM      3  C   UNL     1      44.962   7.243  12.545  0.00  0.00    +0.000 A 
ATOM      4  C   UNL     1      45.834   6.187  12.246  0.00  0.00    +0.000 A 
ATOM      5  C   UNL     1      47.151   6.508  11.873  0.00  0.00    +0.000 A 
ATOM      6  C   UNL     1      47.587   7.837  11.808  0.00  0.00    +0.000 A 
ENDROOT
BRANCH   1   8
ATOM      7  N   UNL     1      46.287  11.260  12.387  0.00  0.00    +0.000 N 
ATOM      8  C   UNL     1      47.210  10.283  12.140  0.00  0.00    +0.000 C 
ATOM      9  O   UNL     1      48.393  10.551  11.968  0.00  0.00    +0.000 OA
ATOM     10  H   UNL     1      46.634  12.203  12.480  0.00  0.00    +0.000 HD
ATOM     11  H   UNL     1      45.380  11.053  12.786  0.00  0.00    +0.000 HD
ENDBRANCH   1   8
BRANCH   4  12
ATOM     12  C   UNL     1      45.459   4.717  12.426  0.00  0.00    +0.000 C 
BRANCH  12  13
ATOM     13  C   UNL     1      44.434   4.171  11.434  0.00  0.00    +0.000 C 
ATOM     14  C   UNL     1      43.014   4.678  11.621  0.00  0.00    +0.000 C 
ATOM     15  C   UNL     1      43.301   3.244  11.895  0.00  0.00    +0.000 C 
BRANCH  13  16
ATOM     16  C   UNL     1      44.974   3.749  10.072  0.00  0.00    +0.000 A 
ATOM     17  C   UNL     1      45.478   4.695   9.159  0.00  0.00    +0.000 A 
ATOM     18  C   UNL     1      46.056   4.260   7.980  0.00  0.00    +0.000 A 
ATOM     19  N   UNL     1      46.151   2.966   7.623  0.00  0.00    +0.000 NA
ATOM     20  C   UNL     1      45.641   2.064   8.491  0.00  0.00    +0.000 A 
ATOM     21  C   UNL     1      45.062   2.404   9.704  0.00  0.00    +0.000 A 
ENDBRANCH  13  16
ENDBRANCH  12  13
ENDBRANCH   4  12
TORSDOF 4
ENDMDL
MODEL 3
REMARK VINA RESULT:    -5.551      3.150      6.082
REMARK INTER + INTRA:          -7.459
REMARK INTER:                  -7.346
REMARK INTRA:                  -0.113
REMARK UNBOUND:                -0.609
REMARK  Name = 
REMARK  4 active torsions:
REMARK  status: ('A' for Active; 'I' for Inactive)
REMARK    1  A    between atoms: C_2  and  C_4
REMARK    2  A    between atoms: C_7  and  C_8
REMARK    3  A    between atoms: C_8  and  C_9
REMARK    4  A    between atoms: C_9  and  C_10
REMARK                            x       y       z     vdW  Elec       q    Type
REMARK                         _______ _______ _______ _____ _____    ______ ____
ROOT
ATOM      1  C   UNL     1      48.826   7.448  12.805  0.00  0.00    +0.000 A 
ATOM      2  C   UNL     1      48.510   6.676  13.935  0.00  0.00    +0.000 A 
ATOM      3  C   UNL     1      47.383   5.846  13.933  0.00  0.00    +0.000 A 
ATOM      4  C   UNL     1      46.526   5.790  12.824  0.00  0.00    +0.000 A 
ATOM      5  C   UNL     1      46.836   6.595  11.714  0.00  0.00    +0.000 A 
ATOM      6  C   UNL     1      47.965   7.423  11.705  0.00  0.00    +0.000 A 
ENDROOT
BRANCH   1   8
ATOM      7  N   UNL     1      51.153   7.708  12.148  0.00  0.00    +0.000 N 
ATOM      8  C   UNL     1      50.066   8.271  12.755  0.00  0.00    +0.000 C 
ATOM      9  O   UNL     1      50.102   9.411  13.201  0.00  0.00    +0.000 OA
ATOM     10  H   UNL     1      51.965   8.295  12.033  0.00  0.00    +0.000 HD
ATOM     11  H   UNL     1      51.074   6.895  11.552  0.00  0.00    +0.000 HD
ENDBRANCH   1   8
BRANCH   4  12
ATOM     12  C   UNL     1      45.357   4.813  12.721  0.00  0.00    +0.000 C 
BRANCH  12  13
ATOM     13  C   UNL     1      44.497   4.943  11.466  0.00  0.00    +0.000 C 
ATOM     14  C   UNL     1      43.714   6.240  11.347  0.00  0.00    +0.000 C 
ATOM     15  C   UNL     1      42.964   4.972  11.556  0.00  0.00    +0.000 C 
BRANCH  13  16
ATOM     16  C   UNL     1      44.964   4.162  10.244  0.00  0.00    +0.000 A 
ATOM     17  C   UNL     1      44.874   2.758  10.194  0.00  0.00    +0.000 A 
ATOM     18  C   UNL     1      45.209   2.097   9.026  0.00  0.00    +0.000 A 
ATOM     19  N   UNL     1      45.649   2.713   7.914  0.00  0.00    +0.000 NA
ATOM     20  C   UNL     1      45.758   4.060   7.976  0.00  0.00    +0.000 A 
ATOM     21  C   UNL     1      45.428   4.808   9.094  0.00  0.00    +0.000 A 
ENDBRANCH  13  16
ENDBRANCH  12  13
ENDBRANCH   4  12
TORSDOF 4
ENDMDL
MODEL 4
REMARK VINA RESULT:    -5.481      3.350      6.596
REMARK INTER + INTRA:          -7.372
REMARK INTER:                  -7.484
REMARK INTRA:                   0.112
REMARK UNBOUND:                -0.609
REMARK  Name = 
REMARK  4 active torsions:
REMARK  status: ('A' for Active; 'I' for Inactive)
REMARK    1  A    between atoms: C_2  and  C_4
REMARK    2  A    between atoms: C_7  and  C_8
REMARK    3  A    between atoms: C_8  and  C_9
REMARK    4  A    between atoms: C_9  and  C_10
REMARK                            x       y       z     vdW  Elec       q    Type
REMARK                         _______ _______ _______ _____ _____    ______ ____
ROOT
ATOM      1  C   UNL     1      47.540   4.365  15.888  0.00  0.00    +0.000 A 
ATOM      2  C   UNL     1      47.989   5.685  15.717  0.00  0.00    +0.000 A 
ATOM      3  C   UNL     1      47.873   6.317  14.474  0.00  0.00    +0.000 A 
ATOM      4  C   UNL     1      47.345   5.642  13.364  0.00  0.00    +0.000 A 
ATOM      5  C   UNL     1      46.934   4.309  13.541  0.00  0.00    +0.000 A 
ATOM      6  C   UNL     1      47.038   3.672  14.783  0.00  0.00    +0.000 A 
ENDROOT
BRANCH   1   8
ATOM      7  N   UNL     1      48.561   4.103  18.080  0.00  0.00    +0.000 N 
ATOM      8  C   UNL     1      47.575   3.705  17.222  0.00  0.00    +0.000 C 
ATOM      9  O   UNL     1      46.739   2.872  17.551  0.00  0.00    +0.000 OA
ATOM     10  H   UNL     1      48.533   3.724  19.014  0.00  0.00    +0.000 HD
ATOM     11  H   UNL     1      49.086   4.956  17.935  0.00  0.00    +0.000 HD
ENDBRANCH   1   8
BRANCH   4  12
ATOM     12  C   UNL     1      47.083   6.320  12.021  0.00  0.00    +0.000 C 
BRANCH  12  13
ATOM     13  C   UNL     1      45.644   6.247  11.514  0.00  0.00    +0.000 C 
ATOM     14  C   UNL     1      44.912   7.576  11.441  0.00  0.00    +0.000 C 
ATOM     15  C   UNL     1      44.460   6.568  12.437  0.00  0.00    +0.000 C 
BRANCH  13  16
ATOM     16  C   UNL     1      45.317   5.087  10.580  0.00  0.00    +0.000 A 
ATOM     17  C   UNL     1      44.587   3.970  11.027  0.00  0.00    +0.000 A 
ATOM     18  C   UNL     1      44.220   2.991  10.121  0.00  0.00    +0.000 A 
ATOM     19  N   UNL     1      44.540   3.020   8.815  0.00  0.00    +0.000 NA
ATOM     20  C   UNL     1      45.264   4.082   8.396  0.00  0.00    +0.000 A 
ATOM     21  C   UNL     1      45.659   5.119   9.225  0.00  0.00    +0.000 A 
ENDBRANCH  13  16
ENDBRANCH  12  13
ENDBRANCH   4  12
TORSDOF 4
ENDMDL
MODEL 5
REMARK VINA RESULT:    -5.466      3.209      5.018
REMARK INTER + INTRA:          -7.354
REMARK INTER:                  -6.883
REMARK INTRA:                  -0.470
REMARK UNBOUND:                -0.609
REMARK  Name = 
REMARK  4 active torsions:
REMARK  status: ('A' for Active; 'I' for Inactive)
REMARK    1  A    between atoms: C_2  and  C_4
REMARK    2  A    between atoms: C_7  and  C_8
REMARK    3  A    between atoms: C_8  and  C_9
REMARK    4  A    between atoms: C_9  and  C_10
REMARK                            x       y       z     vdW  Elec       q    Type
REMARK                         _______ _______ _______ _____ _____    ______ ____
ROOT
ATOM      1  C   UNL     1      44.484   4.169  11.257  0.00  0.00    +0.000 A 
ATOM      2  C   UNL     1      45.290   4.852  10.333  0.00  0.00    +0.000 A 
ATOM      3  C   UNL     1      45.899   6.062  10.683  0.00  0.00    +0.000 A 
ATOM      4  C   UNL     1      45.694   6.639  11.945  0.00  0.00    +0.000 A 
ATOM      5  C   UNL     1      44.855   5.961  12.847  0.00  0.00    +0.000 A 
ATOM      6  C   UNL     1      44.248   4.747  12.508  0.00  0.00    +0.000 A 
ENDROOT
BRANCH   1   8
ATOM      7  N   UNL     1      44.431   2.174   9.868  0.00  0.00    +0.000 N 
ATOM      8  C   UNL     1      43.896   2.839  10.935  0.00  0.00    +0.000 C 
ATOM      9  O   UNL     1      43.004   2.347  11.614  0.00  0.00    +0.000 OA
ATOM     10  H   UNL     1      44.098   1.236   9.701  0.00  0.00    +0.000 HD
ATOM     11  H   UNL     1      45.323   2.432   9.465  0.00  0.00    +0.000 HD
ENDBRANCH   1   8
BRANCH   4  12
ATOM     12  C   UNL     1      46.430   7.889  12.422  0.00  0.00    +0.000 C 
BRANCH  12  13
ATOM     13  C   UNL     1      47.871   7.673  12.879  0.00  0.00    +0.000 C 
ATOM     14  C   UNL     1      48.139   6.351  13.580  0.00  0.00    +0.000 C 
ATOM     15  C   UNL     1      48.227   7.608  14.372  0.00  0.00    +0.000 C 
BRANCH  13  16
ATOM     16  C   UNL     1      48.947   8.405  12.085  0.00  0.00    +0.000 A 
ATOM     17  C   UNL     1      48.833   9.776  11.789  0.00  0.00    +0.000 A 
ATOM     18  C   UNL     1      49.881  10.425  11.160  0.00  0.00    +0.000 A 
ATOM     19  N   UNL     1      51.020   9.818  10.781  0.00  0.00    +0.000 NA
ATOM     20  C   UNL     1      51.113   8.495  11.044  0.00  0.00    +0.000 A 
ATOM     21  C   UNL     1      50.125   7.766  11.687  0.00  0.00    +0.000 A 
ENDBRANCH  13  16
ENDBRANCH  12  13
ENDBRANCH   4  12
TORSDOF 4
ENDMDL
