MODEL 1
REMARK VINA RESULT:    -8.068      0.000      0.000
REMARK INTER + INTRA:         -11.954
REMARK INTER:                 -10.898
REMARK INTRA:                  -1.056
REMARK UNBOUND:                -1.056
REMARK  Name = 
REMARK  7 active torsions:
REMARK  status: ('A' for Active; 'I' for Inactive)
REMARK    1  A    between atoms: C_1  and  C_2
REMARK    2  A    between atoms: C_7  and  C_8
REMARK    3  A    between atoms: N_10  and  C_11
REMARK    4  A    between atoms: C_11  and  C_12
REMARK    5  A    between atoms: C_15  and  C_16
REMARK    6  A    between atoms: C_16  and  N_17
REMARK    7  A    between atoms: C_18  and  C_20
REMARK                            x       y       z     vdW  Elec       q    Type
REMARK                         _______ _______ _______ _____ _____    ______ ____
ROOT
ATOM      1  C   UNL     1      47.415   8.003  13.470  0.00  0.00    +0.000 A 
ATOM      2  C   UNL     1      47.858   6.979  12.638  0.00  0.00    +0.000 A 
ATOM      3  C   UNL     1      46.994   6.426  11.692  0.00  0.00    +0.000 A 
ATOM      4  C   UNL     1      45.687   6.897  11.622  0.00  0.00    +0.000 A 
ATOM      5  N   UNL     1      45.235   7.897  12.421  0.00  0.00    +0.000 NA
ATOM      6  C   UNL     1      46.100   8.423  13.318  0.00  0.00    +0.000 A 
ENDROOT
BRANCH   1   7
ATOM      7  C   UNL     1      48.303   8.585  14.534  0.00  0.00    +0.000 C 
BRANCH   7  10
ATOM      8  C   UNL     1      49.233   6.888  16.050  0.00  0.00    +0.000 C 
ATOM      9  O   UNL     1      50.195   6.698  15.313  0.00  0.00    +0.000 OA
ATOM     10  N   UNL     1      48.244   7.798  15.749  0.00  0.00    +0.000 N 
ATOM     11  H   UNL     1      47.348   7.723  16.206  0.00  0.00    +0.000 HD
BRANCH   8  18
ATOM     12  C   UNL     1      47.550   4.279  16.293  0.00  0.00    +0.000 C 
ATOM     13  C   UNL     1      48.327   4.903  17.414  0.00  0.00    +0.000 A 
ATOM     14  N   UNL     1      48.200   4.241  18.602  0.00  0.00    +0.000 NA
ATOM     15  C   UNL     1      48.805   4.756  19.693  0.00  0.00    +0.000 A 
ATOM     16  C   UNL     1      49.559   5.910  19.669  0.00  0.00    +0.000 A 
ATOM     17  C   UNL     1      49.699   6.574  18.452  0.00  0.00    +0.000 A 
ATOM     18  C   UNL     1      49.084   6.074  17.292  0.00  0.00    +0.000 A 
ENDBRANCH   8  18
ENDBRANCH   7  10
ENDBRANCH   1   7
BRANCH   4  19
ATOM     19  C   UNL     1      44.718   6.306  10.628  0.00  0.00    +0.000 C 
BRANCH  19  20
ATOM     20  N   UNL     1      45.227   5.099  10.017  0.00  0.00    +0.000 N 
ATOM     21  C   UNL     1      44.468   3.968   9.874  0.00  0.00    +0.000 C 
ATOM     22  O   UNL     1      43.314   3.888  10.288  0.00  0.00    +0.000 OA
ATOM     23  H   UNL     1      46.223   5.080   9.823  0.00  0.00    +0.000 HD
BRANCH  21  24
ATOM     24  C   UNL     1      45.094   2.875   9.149  0.00  0.00    +0.000 A 
ATOM     25  C   UNL     1      44.747   1.547   9.324  0.00  0.00    +0.000 A 
ATOM     26  O   UNL     1      45.460   0.733   8.504  0.00  0.00    +0.000 OA
ATOM     27  C   UNL     1      46.311   1.523   7.791  0.00  0.00    +0.000 A 
ATOM     28  N   UNL     1      47.196   1.046   6.883  0.00  0.00    +0.000 NA
ATOM     29  C   UNL     1      47.938   1.967   6.357  0.00  0.00    +0.000 A 
ATOM     30  N   UNL     1      47.860   3.310   6.650  0.00  0.00    +0.000 N 
ATOM     31  C   UNL     1      46.933   3.834   7.519  0.00  0.00    +0.000 A 
ATOM     32  O   UNL     1      46.804   5.037   7.704  0.00  0.00    +0.000 OA
ATOM     33  C   UNL     1      46.112   2.840   8.161  0.00  0.00    +0.000 A 
ATOM     34  H   UNL     1      48.463   3.975   6.189  0.00  0.00    +0.000 HD
ENDBRANCH  21  24
ENDBRANCH  19  20
ENDBRANCH   4  19
TORSDOF 6
ENDMDL
MODEL 2
REMARK VINA RESULT:    -7.762      1.747      2.188
REMARK INTER + INTRA:         -11.541
REMARK INTER:                 -10.607
REMARK INTRA:                  -0.934
REMARK UNBOUND:                -1.056
REMARK  Name = 
REMARK  7 active torsions:
REMARK  status: ('A' for Active; 'I' for Inactive)
REMARK    1  A    between atoms: C_1  and  C_2
REMARK    2  A    between atoms: C_7  and  C_8
REMARK    3  A    between atoms: N_10  and  C_11
REMARK    4  A    between atoms: C_11  and  C_12
REMARK    5  A    between atoms: C_15  and  C_16
REMARK    6  A    between atoms: C_16  and  N_17
REMARK    7  A    between atoms: C_18  and  C_20
REMARK                            x       y       z     vdW  Elec       q    Type
REMARK                         _______ _______ _______ _____ _____    ______ ____
ROOT
ATOM      1  C   UNL     1      46.291   7.451  12.832  0.00  0.00    +0.000 A 
ATOM      2  C   UNL     1      46.846   6.194  13.046  0.00  0.00    +0.000 A 
ATOM      3  C   UNL     1      46.104   5.047  12.762  0.00  0.00    +0.000 A 
ATOM      4  C   UNL     1      44.801   5.190  12.296  0.00  0.00    +0.000 A 
ATOM      5  N   UNL     1      44.242   6.407  12.078  0.00  0.00    +0.000 NA
ATOM      6  C   UNL     1      44.991   7.501  12.348  0.00  0.00    +0.000 A 
ENDROOT
BRANCH   1   7
ATOM      7  C   UNL     1      47.045   8.707  13.176  0.00  0.00    +0.000 C 
BRANCH   7  10
ATOM      8  C   UNL     1      48.368   8.688  15.248  0.00  0.00    +0.000 C 
ATOM      9  O   UNL     1      49.389   8.381  14.641  0.00  0.00    +0.000 OA
ATOM     10  N   UNL     1      47.159   8.868  14.611  0.00  0.00    +0.000 N 
ATOM     11  H   UNL     1      46.307   8.829  15.149  0.00  0.00    +0.000 HD
BRANCH   8  18
ATOM     12  C   UNL     1      48.793   6.338  17.246  0.00  0.00    +0.000 C 
ATOM     13  C   UNL     1      48.591   7.771  17.642  0.00  0.00    +0.000 A 
ATOM     14  N   UNL     1      48.561   7.966  18.993  0.00  0.00    +0.000 NA
ATOM     15  C   UNL     1      48.318   9.209  19.458  0.00  0.00    +0.000 A 
ATOM     16  C   UNL     1      48.111  10.299  18.639  0.00  0.00    +0.000 A 
ATOM     17  C   UNL     1      48.156  10.099  17.261  0.00  0.00    +0.000 A 
ATOM     18  C   UNL     1      48.405   8.820  16.734  0.00  0.00    +0.000 A 
ENDBRANCH   8  18
ENDBRANCH   7  10
ENDBRANCH   1   7
BRANCH   4  19
ATOM     19  C   UNL     1      43.960   3.972  12.002  0.00  0.00    +0.000 C 
BRANCH  19  20
ATOM     20  N   UNL     1      44.589   3.089  11.047  0.00  0.00    +0.000 N 
ATOM     21  C   UNL     1      44.546   3.311   9.696  0.00  0.00    +0.000 C 
ATOM     22  O   UNL     1      43.937   4.256   9.200  0.00  0.00    +0.000 OA
ATOM     23  H   UNL     1      44.950   2.214  11.414  0.00  0.00    +0.000 HD
BRANCH  21  24
ATOM     24  C   UNL     1      45.312   2.387   8.879  0.00  0.00    +0.000 A 
ATOM     25  C   UNL     1      45.159   1.013   8.934  0.00  0.00    +0.000 A 
ATOM     26  O   UNL     1      45.970   0.384   8.046  0.00  0.00    +0.000 OA
ATOM     27  C   UNL     1      46.693   1.346   7.408  0.00  0.00    +0.000 A 
ATOM     28  N   UNL     1      47.627   1.082   6.463  0.00  0.00    +0.000 NA
ATOM     29  C   UNL     1      48.225   2.141   6.022  0.00  0.00    +0.000 A 
ATOM     30  N   UNL     1      47.962   3.429   6.434  0.00  0.00    +0.000 N 
ATOM     31  C   UNL     1      46.980   3.737   7.344  0.00  0.00    +0.000 A 
ATOM     32  O   UNL     1      46.684   4.889   7.635  0.00  0.00    +0.000 OA
ATOM     33  C   UNL     1      46.314   2.584   7.893  0.00  0.00    +0.000 A 
ATOM     34  H   UNL     1      48.459   4.211   6.035  0.00  0.00    +0.000 HD
ENDBRANCH  21  24
ENDBRANCH  19  20
ENDBRANCH   4  19
TORSDOF 6
ENDMDL
MODEL 3
REMARK VINA RESULT:    -7.516      3.627      4.860
REMARK INTER + INTRA:         -11.209
REMARK INTER:                 -10.072
REMARK INTRA:                  -1.137
REMARK UNBOUND:                -1.056
REMARK  Name = 
REMARK  7 active torsions:
REMARK  status: ('A' for Active; 'I' for Inactive)
REMARK    1  A    between atoms: C_1  and  C_2
REMARK    2  A    between atoms: C_7  and  C_8
REMARK    3  A    between atoms: N_10  and  C_11
REMARK    4  A    between atoms: C_11  and  C_12
REMARK    5  A    between atoms: C_15  and  C_16
REMARK    6  A    between atoms: C_16  and  N_17
REMARK    7  A    between atoms: C_18  and  C_20
REMARK                            x       y       z     vdW  Elec       q    Type
REMARK                         _______ _______ _______ _____ _____    ______ ____
ROOT
ATOM      1  C   UNL     1      50.338   7.244  15.603  0.00  0.00    +0.000 A 
ATOM      2  C   UNL     1      48.993   6.890  15.578  0.00  0.00    +0.000 A 
ATOM      3  C   UNL     1      48.212   7.196  14.463  0.00  0.00    +0.000 A 
ATOM      4  C   UNL     1      48.796   7.885  13.405  0.00  0.00    +0.000 A 
ATOM      5  N   UNL     1      50.107   8.237  13.407  0.00  0.00    +0.000 NA
ATOM      6  C   UNL     1      50.843   7.912  14.495  0.00  0.00    +0.000 A 
ENDROOT
BRANCH   1   7
ATOM      7  C   UNL     1      51.195   6.974  16.809  0.00  0.00    +0.000 C 
BRANCH   7  10
ATOM      8  C   UNL     1      51.087   4.689  17.712  0.00  0.00    +0.000 C 
ATOM      9  O   UNL     1      50.209   5.003  18.510  0.00  0.00    +0.000 OA
ATOM     10  N   UNL     1      51.639   5.595  16.832  0.00  0.00    +0.000 N 
ATOM     11  H   UNL     1      52.532   5.390  16.410  0.00  0.00    +0.000 HD
BRANCH   8  18
ATOM     12  C   UNL     1      49.518   2.155  16.811  0.00  0.00    +0.000 C 
ATOM     13  C   UNL     1      50.929   2.151  17.320  0.00  0.00    +0.000 A 
ATOM     14  N   UNL     1      51.477   0.903  17.403  0.00  0.00    +0.000 NA
ATOM     15  C   UNL     1      52.720   0.779  17.912  0.00  0.00    +0.000 A 
ATOM     16  C   UNL     1      53.475   1.851  18.341  0.00  0.00    +0.000 A 
ATOM     17  C   UNL     1      52.918   3.124  18.241  0.00  0.00    +0.000 A 
ATOM     18  C   UNL     1      51.626   3.297  17.718  0.00  0.00    +0.000 A 
ENDBRANCH   8  18
ENDBRANCH   7  10
ENDBRANCH   1   7
BRANCH   4  19
ATOM     19  C   UNL     1      47.977   8.256  12.193  0.00  0.00    +0.000 C 
BRANCH  19  20
ATOM     20  N   UNL     1      46.897   7.326  11.956  0.00  0.00    +0.000 N 
ATOM     21  C   UNL     1      45.598   7.601  12.292  0.00  0.00    +0.000 C 
ATOM     22  O   UNL     1      45.266   8.643  12.852  0.00  0.00    +0.000 OA
ATOM     23  H   UNL     1      47.165   6.393  11.655  0.00  0.00    +0.000 HD
BRANCH  21  24
ATOM     24  C   UNL     1      44.618   6.604  11.897  0.00  0.00    +0.000 A 
ATOM     25  C   UNL     1      43.444   6.911  11.232  0.00  0.00    +0.000 A 
ATOM     26  O   UNL     1      42.723   5.796  10.952  0.00  0.00    +0.000 OA
ATOM     27  C   UNL     1      43.410   4.734  11.457  0.00  0.00    +0.000 A 
ATOM     28  N   UNL     1      42.975   3.452  11.381  0.00  0.00    +0.000 NA
ATOM     29  C   UNL     1      43.761   2.608  11.967  0.00  0.00    +0.000 A 
ATOM     30  N   UNL     1      44.938   2.932  12.603  0.00  0.00    +0.000 N 
ATOM     31  C   UNL     1      45.439   4.211  12.646  0.00  0.00    +0.000 A 
ATOM     32  O   UNL     1      46.531   4.480  13.128  0.00  0.00    +0.000 OA
ATOM     33  C   UNL     1      44.575   5.192  12.041  0.00  0.00    +0.000 A 
ATOM     34  H   UNL     1      45.510   2.218  13.028  0.00  0.00    +0.000 HD
ENDBRANCH  21  24
ENDBRANCH  19  20
ENDBRANCH   4  19
TORSDOF 6
ENDMDL
MODEL 4
REMARK VINA RESULT:    -7.365      2.496      3.268
REMARK INTER + INTRA:         -11.005
REMARK INTER:                 -10.182
REMARK INTRA:                  -0.823
REMARK UNBOUND:                -1.056
REMARK  Name = 
REMARK  7 active torsions:
REMARK  status: ('A' for Active; 'I' for Inactive)
REMARK    1  A    between atoms: C_1  and  C_2
REMARK    2  A    between atoms: C_7  and  C_8
REMARK    3  A    between atoms: N_10  and  C_11
REMARK    4  A    between atoms: C_11  and  C_12
REMARK    5  A    between atoms: C_15  and  C_16
REMARK    6  A    between atoms: C_16  and  N_17
REMARK    7  A    between atoms: C_18  and  C_20
REMARK                            x       y       z     vdW  Elec       q    Type
REMARK                         _______ _______ _______ _____ _____    ______ ____
ROOT
ATOM      1  C   UNL     1      49.186   7.516  15.503  0.00  0.00    +0.000 A 
ATOM      2  C   UNL     1      48.496   8.710  15.317  0.00  0.00    +0.000 A 
ATOM      3  C   UNL     1      47.522   8.805  14.322  0.00  0.00    +0.000 A 
ATOM      4  C   UNL     1      47.284   7.701  13.511  0.00  0.00    +0.000 A 
ATOM      5  N   UNL     1      47.943   6.526  13.678  0.00  0.00    +0.000 NA
ATOM      6  C   UNL     1      48.870   6.459  14.660  0.00  0.00    +0.000 A 
ENDROOT
BRANCH   1   7
ATOM      7  C   UNL     1      50.276   7.396  16.532  0.00  0.00    +0.000 C 
BRANCH   7  10
ATOM      8  C   UNL     1      50.361   5.143  17.513  0.00  0.00    +0.000 C 
ATOM      9  O   UNL     1      49.513   5.432  18.352  0.00  0.00    +0.000 OA
ATOM     10  N   UNL     1      50.805   6.048  16.574  0.00  0.00    +0.000 N 
ATOM     11  H   UNL     1      51.683   5.882  16.105  0.00  0.00    +0.000 HD
BRANCH   8  18
ATOM     12  C   UNL     1      48.908   2.491  16.770  0.00  0.00    +0.000 C 
ATOM     13  C   UNL     1      50.341   2.588  17.205  0.00  0.00    +0.000 A 
ATOM     14  N   UNL     1      50.968   1.379  17.296  0.00  0.00    +0.000 NA
ATOM     15  C   UNL     1      52.240   1.346  17.743  0.00  0.00    +0.000 A 
ATOM     16  C   UNL     1      52.949   2.475  18.100  0.00  0.00    +0.000 A 
ATOM     17  C   UNL     1      52.310   3.708  17.992  0.00  0.00    +0.000 A 
ATOM     18  C   UNL     1      50.984   3.787  17.532  0.00  0.00    +0.000 A 
ENDBRANCH   8  18
ENDBRANCH   7  10
ENDBRANCH   1   7
BRANCH   4  19
ATOM     19  C   UNL     1      46.256   7.774  12.409  0.00  0.00    +0.000 C 
BRANCH  19  20
ATOM     20  N   UNL     1      45.807   6.466  11.991  0.00  0.00    +0.000 N 
ATOM     21  C   UNL     1      44.550   6.240  11.497  0.00  0.00    +0.000 C 
ATOM     22  O   UNL     1      43.704   7.127  11.410  0.00  0.00    +0.000 OA
ATOM     23  H   UNL     1      46.422   5.688  12.211  0.00  0.00    +0.000 HD
BRANCH  21  24
ATOM     24  C   UNL     1      44.288   4.890  11.028  0.00  0.00    +0.000 A 
ATOM     25  C   UNL     1      43.411   4.022  11.654  0.00  0.00    +0.000 A 
ATOM     26  O   UNL     1      43.326   2.838  10.996  0.00  0.00    +0.000 OA
ATOM     27  C   UNL     1      44.174   2.905   9.932  0.00  0.00    +0.000 A 
ATOM     28  N   UNL     1      44.366   1.888   9.058  0.00  0.00    +0.000 NA
ATOM     29  C   UNL     1      45.250   2.151   8.151  0.00  0.00    +0.000 A 
ATOM     30  N   UNL     1      45.941   3.337   8.038  0.00  0.00    +0.000 N 
ATOM     31  C   UNL     1      45.726   4.410   8.869  0.00  0.00    +0.000 A 
ATOM     32  O   UNL     1      46.272   5.494   8.707  0.00  0.00    +0.000 OA
ATOM     33  C   UNL     1      44.779   4.148   9.921  0.00  0.00    +0.000 A 
ATOM     34  H   UNL     1      46.608   3.477   7.294  0.00  0.00    +0.000 HD
ENDBRANCH  21  24
ENDBRANCH  19  20
ENDBRANCH   4  19
TORSDOF 6
ENDMDL
MODEL 5
REMARK VINA RESULT:    -7.309      3.049      8.916
REMARK INTER + INTRA:         -10.929
REMARK INTER:                 -10.082
REMARK INTRA:                  -0.847
REMARK UNBOUND:                -1.056
REMARK  Name = 
REMARK  7 active torsions:
REMARK  status: ('A' for Active; 'I' for Inactive)
REMARK    1  A    between atoms: C_1  and  C_2
REMARK    2  A    between atoms: C_7  and  C_8
REMARK    3  A    between atoms: N_10  and  C_11
REMARK    4  A    between atoms: C_11  and  C_12
REMARK    5  A    between atoms: C_15  and  C_16
REMARK    6  A    between atoms: C_16  and  N_17
REMARK    7  A    between atoms: C_18  and  C_20
REMARK                            x       y       z     vdW  Elec       q    Type
REMARK                         _______ _______ _______ _____ _____    ______ ____
ROOT
ATOM      1  C   UNL     1      47.190   7.687  13.282  0.00  0.00    +0.000 A 
ATOM      2  C   UNL     1      47.562   8.795  14.036  0.00  0.00    +0.000 A 
ATOM      3  C   UNL     1      48.444   8.645  15.107  0.00  0.00    +0.000 A 
ATOM      4  C   UNL     1      48.910   7.372  15.418  0.00  0.00    +0.000 A 
ATOM      5  N   UNL     1      48.563   6.278  14.693  0.00  0.00    +0.000 NA
ATOM      6  C   UNL     1      47.719   6.457  13.651  0.00  0.00    +0.000 A 
ENDROOT
BRANCH   1   7
ATOM      7  C   UNL     1      46.203   7.805  12.153  0.00  0.00    +0.000 C 
BRANCH   7  10
ATOM      8  C   UNL     1      44.853   6.057  11.073  0.00  0.00    +0.000 C 
ATOM      9  O   UNL     1      43.808   6.638  11.348  0.00  0.00    +0.000 OA
ATOM     10  N   UNL     1      46.087   6.555  11.431  0.00  0.00    +0.000 N 
ATOM     11  H   UNL     1      46.882   5.934  11.453  0.00  0.00    +0.000 HD
BRANCH   8  18
ATOM     12  C   UNL     1      43.719   3.426  12.291  0.00  0.00    +0.000 C 
ATOM     13  C   UNL     1      44.300   3.549  10.913  0.00  0.00    +0.000 A 
ATOM     14  N   UNL     1      44.336   2.369  10.227  0.00  0.00    +0.000 NA
ATOM     15  C   UNL     1      44.900   2.355   9.002  0.00  0.00    +0.000 A 
ATOM     16  C   UNL     1      45.432   3.475   8.398  0.00  0.00    +0.000 A 
ATOM     17  C   UNL     1      45.380   4.680   9.095  0.00  0.00    +0.000 A 
ATOM     18  C   UNL     1      44.802   4.739  10.375  0.00  0.00    +0.000 A 
ENDBRANCH   8  18
ENDBRANCH   7  10
ENDBRANCH   1   7
BRANCH   4  19
ATOM     19  C   UNL     1      49.845   7.168  16.585  0.00  0.00    +0.000 C 
BRANCH  19  20
ATOM     20  N   UNL     1      50.316   5.805  16.677  0.00  0.00    +0.000 N 
ATOM     21  C   UNL     1      49.717   4.869  17.478  0.00  0.00    +0.000 C 
ATOM     22  O   UNL     1      48.760   5.133  18.202  0.00  0.00    +0.000 OA
ATOM     23  H   UNL     1      51.204   5.604  16.225  0.00  0.00    +0.000 HD
BRANCH  21  24
ATOM     24  C   UNL     1      50.249   3.521  17.381  0.00  0.00    +0.000 A 
ATOM     25  C   UNL     1      49.520   2.446  16.905  0.00  0.00    +0.000 A 
ATOM     26  O   UNL     1      50.260   1.308  16.889  0.00  0.00    +0.000 OA
ATOM     27  C   UNL     1      51.490   1.620  17.384  0.00  0.00    +0.000 A 
ATOM     28  N   UNL     1      52.490   0.719  17.536  0.00  0.00    +0.000 NA
ATOM     29  C   UNL     1      53.558   1.221  18.067  0.00  0.00    +0.000 A 
ATOM     30  N   UNL     1      53.712   2.537  18.442  0.00  0.00    +0.000 N 
ATOM     31  C   UNL     1      52.741   3.490  18.246  0.00  0.00    +0.000 A 
ATOM     32  O   UNL     1      52.917   4.676  18.492  0.00  0.00    +0.000 OA
ATOM     33  C   UNL     1      51.518   2.967  17.694  0.00  0.00    +0.000 A 
ATOM     34  H   UNL     1      54.580   2.863  18.839  0.00  0.00    +0.000 HD
ENDBRANCH  21  24
ENDBRANCH  19  20
ENDBRANCH   4  19
TORSDOF 6
ENDMDL
MODEL 6
REMARK VINA RESULT:    -7.230      1.527      2.064
REMARK INTER + INTRA:         -10.823
REMARK INTER:                 -10.040
REMARK INTRA:                  -0.783
REMARK UNBOUND:                -1.056
REMARK  Name = 
REMARK  7 active torsions:
REMARK  status: ('A' for Active; 'I' for Inactive)
REMARK    1  A    between atoms: C_1  and  C_2
REMARK    2  A    between atoms: C_7  and  C_8
REMARK    3  A    between atoms: N_10  and  C_11
REMARK    4  A    between atoms: C_11  and  C_12
REMARK    5  A    between atoms: C_15  and  C_16
REMARK    6  A    between atoms: C_16  and  N_17
REMARK    7  A    between atoms: C_18  and  C_20
REMARK                            x       y       z     vdW  Elec       q    Type
REMARK                         _______ _______ _______ _____ _____    ______ ____
ROOT
ATOM      1  C   UNL     1      47.702   7.618  13.854  0.00  0.00    +0.000 A 
ATOM      2  C   UNL     1      46.583   8.390  13.557  0.00  0.00    +0.000 A 
ATOM      3  C   UNL     1      45.598   7.892  12.704  0.00  0.00    +0.000 A 
ATOM      4  C   UNL     1      45.775   6.634  12.138  0.00  0.00    +0.000 A 
ATOM      5  N   UNL     1      46.857   5.862  12.416  0.00  0.00    +0.000 NA
ATOM      6  C   UNL     1      47.787   6.365  13.260  0.00  0.00    +0.000 A 
ENDROOT
BRANCH   1   7
ATOM      7  C   UNL     1      48.806   8.144  14.729  0.00  0.00    +0.000 C 
BRANCH   7  10
ATOM      8  C   UNL     1      48.966   7.339  17.047  0.00  0.00    +0.000 C 
ATOM      9  O   UNL     1      49.833   6.525  16.747  0.00  0.00    +0.000 OA
ATOM     10  N   UNL     1      48.395   8.181  16.118  0.00  0.00    +0.000 N 
ATOM     11  H   UNL     1      47.508   8.615  16.325  0.00  0.00    +0.000 HD
BRANCH   8  18
ATOM     12  C   UNL     1      49.326   9.745  18.989  0.00  0.00    +0.000 C 
ATOM     13  C   UNL     1      48.619   8.468  19.333  0.00  0.00    +0.000 A 
ATOM     14  N   UNL     1      48.170   8.421  20.622  0.00  0.00    +0.000 NA
ATOM     15  C   UNL     1      47.578   7.289  21.056  0.00  0.00    +0.000 A 
ATOM     16  C   UNL     1      47.390   6.178  20.260  0.00  0.00    +0.000 A 
ATOM     17  C   UNL     1      47.837   6.235  18.942  0.00  0.00    +0.000 A 
ATOM     18  C   UNL     1      48.460   7.394  18.450  0.00  0.00    +0.000 A 
ENDBRANCH   8  18
ENDBRANCH   7  10
ENDBRANCH   1   7
BRANCH   4  19
ATOM     19  C   UNL     1      44.743   6.073  11.191  0.00  0.00    +0.000 C 
BRANCH  19  20
ATOM     20  N   UNL     1      45.171   4.831  10.588  0.00  0.00    +0.000 N 
ATOM     21  C   UNL     1      44.453   4.202   9.606  0.00  0.00    +0.000 C 
ATOM     22  O   UNL     1      43.377   4.630   9.195  0.00  0.00    +0.000 OA
ATOM     23  H   UNL     1      45.962   4.368  11.025  0.00  0.00    +0.000 HD
BRANCH  21  24
ATOM     24  C   UNL     1      45.068   3.016   9.035  0.00  0.00    +0.000 A 
ATOM     25  C   UNL     1      44.662   1.728   9.334  0.00  0.00    +0.000 A 
ATOM     26  O   UNL     1      45.379   0.806   8.642  0.00  0.00    +0.000 OA
ATOM     27  C   UNL     1      46.291   1.484   7.891  0.00  0.00    +0.000 A 
ATOM     28  N   UNL     1      47.198   0.882   7.084  0.00  0.00    +0.000 NA
ATOM     29  C   UNL     1      47.997   1.714   6.499  0.00  0.00    +0.000 A 
ATOM     30  N   UNL     1      47.959   3.083   6.642  0.00  0.00    +0.000 N 
ATOM     31  C   UNL     1      47.015   3.729   7.403  0.00  0.00    +0.000 A 
ATOM     32  O   UNL     1      46.924   4.949   7.452  0.00  0.00    +0.000 OA
ATOM     33  C   UNL     1      46.128   2.839   8.107  0.00  0.00    +0.000 A 
ATOM     34  H   UNL     1      48.607   3.673   6.143  0.00  0.00    +0.000 HD
ENDBRANCH  21  24
ENDBRANCH  19  20
ENDBRANCH   4  19
TORSDOF 6
ENDMDL
MODEL 7
REMARK VINA RESULT:    -7.190      5.404      7.769
REMARK INTER + INTRA:         -10.768
REMARK INTER:                 -10.104
REMARK INTRA:                  -0.664
REMARK UNBOUND:                -1.056
REMARK  Name = 
REMARK  7 active torsions:
REMARK  status: ('A' for Active; 'I' for Inactive)
REMARK    1  A    between atoms: C_1  and  C_2
REMARK    2  A    between atoms: C_7  and  C_8
REMARK    3  A    between atoms: N_10  and  C_11
REMARK    4  A    between atoms: C_11  and  C_12
REMARK    5  A    between atoms: C_15  and  C_16
REMARK    6  A    between atoms: C_16  and  N_17
REMARK    7  A    between atoms: C_18  and  C_20
REMARK                            x       y       z     vdW  Elec       q    Type
REMARK                         _______ _______ _______ _____ _____    ______ ____
ROOT
ATOM      1  C   UNL     1      51.348   3.037  17.664  0.00  0.00    +0.000 A 
ATOM      2  C   UNL     1      50.674   4.165  18.121  0.00  0.00    +0.000 A 
ATOM      3  C   UNL     1      49.300   4.289  17.911  0.00  0.00    +0.000 A 
ATOM      4  C   UNL     1      48.636   3.284  17.215  0.00  0.00    +0.000 A 
ATOM      5  N   UNL     1      49.273   2.174  16.764  0.00  0.00    +0.000 NA
ATOM      6  C   UNL     1      50.602   2.075  16.996  0.00  0.00    +0.000 A 
ENDROOT
BRANCH   1   7
ATOM      7  C   UNL     1      52.836   2.896  17.829  0.00  0.00    +0.000 C 
BRANCH   7  10
ATOM      8  C   UNL     1      54.071   0.849  18.404  0.00  0.00    +0.000 C 
ATOM      9  O   UNL     1      54.459   1.333  19.463  0.00  0.00    +0.000 OA
ATOM     10  N   UNL     1      53.267   1.546  17.529  0.00  0.00    +0.000 N 
ATOM     11  H   UNL     1      53.209   1.246  16.567  0.00  0.00    +0.000 HD
BRANCH   8  18
ATOM     12  C   UNL     1      55.752   0.174  15.872  0.00  0.00    +0.000 C 
ATOM     13  C   UNL     1      55.271  -0.835  16.872  0.00  0.00    +0.000 A 
ATOM     14  N   UNL     1      55.599  -2.121  16.553  0.00  0.00    +0.000 NA
ATOM     15  C   UNL     1      55.157  -3.115  17.352  0.00  0.00    +0.000 A 
ATOM     16  C   UNL     1      54.401  -2.898  18.486  0.00  0.00    +0.000 A 
ATOM     17  C   UNL     1      54.081  -1.583  18.816  0.00  0.00    +0.000 A 
ATOM     18  C   UNL     1      54.519  -0.519  18.010  0.00  0.00    +0.000 A 
ENDBRANCH   8  18
ENDBRANCH   7  10
ENDBRANCH   1   7
BRANCH   4  19
ATOM     19  C   UNL     1      47.154   3.395  16.947  0.00  0.00    +0.000 C 
BRANCH  19  20
ATOM     20  N   UNL     1      46.855   4.369  15.924  0.00  0.00    +0.000 N 
ATOM     21  C   UNL     1      46.943   4.087  14.586  0.00  0.00    +0.000 C 
ATOM     22  O   UNL     1      47.320   2.996  14.164  0.00  0.00    +0.000 OA
ATOM     23  H   UNL     1      46.709   5.324  16.240  0.00  0.00    +0.000 HD
BRANCH  21  24
ATOM     24  C   UNL     1      46.512   5.143  13.687  0.00  0.00    +0.000 A 
ATOM     25  C   UNL     1      47.315   6.209  13.322  0.00  0.00    +0.000 A 
ATOM     26  O   UNL     1      46.683   7.033  12.448  0.00  0.00    +0.000 OA
ATOM     27  C   UNL     1      45.435   6.527  12.246  0.00  0.00    +0.000 A 
ATOM     28  N   UNL     1      44.509   7.106  11.443  0.00  0.00    +0.000 NA
ATOM     29  C   UNL     1      43.376   6.482  11.433  0.00  0.00    +0.000 A 
ATOM     30  N   UNL     1      43.098   5.333  12.140  0.00  0.00    +0.000 N 
ATOM     31  C   UNL     1      44.031   4.687  12.914  0.00  0.00    +0.000 A 
ATOM     32  O   UNL     1      43.808   3.616  13.464  0.00  0.00    +0.000 OA
ATOM     33  C   UNL     1      45.297   5.369  12.988  0.00  0.00    +0.000 A 
ATOM     34  H   UNL     1      42.193   4.892  12.073  0.00  0.00    +0.000 HD
ENDBRANCH  21  24
ENDBRANCH  19  20
ENDBRANCH   4  19
TORSDOF 6
ENDMDL
MODEL 8
REMARK VINA RESULT:    -6.950      2.895      9.061
REMARK INTER + INTRA:         -10.445
REMARK INTER:                  -9.299
REMARK INTRA:                  -1.145
REMARK UNBOUND:                -1.056
REMARK  Name = 
REMARK  7 active torsions:
REMARK  status: ('A' for Active; 'I' for Inactive)
REMARK    1  A    between atoms: C_1  and  C_2
REMARK    2  A    between atoms: C_7  and  C_8
REMARK    3  A    between atoms: N_10  and  C_11
REMARK    4  A    between atoms: C_11  and  C_12
REMARK    5  A    between atoms: C_15  and  C_16
REMARK    6  A    between atoms: C_16  and  N_17
REMARK    7  A    between atoms: C_18  and  C_20
REMARK                            x       y       z     vdW  Elec       q    Type
REMARK                         _______ _______ _______ _____ _____    ______ ____
ROOT
ATOM      1  C   UNL     1      47.681   7.600  13.528  0.00  0.00    +0.000 A 
ATOM      2  C   UNL     1      47.926   6.333  14.050  0.00  0.00    +0.000 A 
ATOM      3  C   UNL     1      48.390   6.196  15.358  0.00  0.00    +0.000 A 
ATOM      4  C   UNL     1      48.629   7.343  16.108  0.00  0.00    +0.000 A 
ATOM      5  N   UNL     1      48.393   8.587  15.621  0.00  0.00    +0.000 NA
ATOM      6  C   UNL     1      47.929   8.688  14.354  0.00  0.00    +0.000 A 
ENDROOT
BRANCH   1   7
ATOM      7  C   UNL     1      47.229   7.786  12.106  0.00  0.00    +0.000 C 
BRANCH   7  10
ATOM      8  C   UNL     1      45.482   6.347  11.143  0.00  0.00    +0.000 C 
ATOM      9  O   UNL     1      44.634   7.225  11.268  0.00  0.00    +0.000 OA
ATOM     10  N   UNL     1      46.792   6.529  11.531  0.00  0.00    +0.000 N 
ATOM     11  H   UNL     1      47.377   5.723  11.687  0.00  0.00    +0.000 HD
BRANCH   8  18
ATOM     12  C   UNL     1      44.182   4.058  12.805  0.00  0.00    +0.000 C 
ATOM     13  C   UNL     1      44.507   3.974  11.343  0.00  0.00    +0.000 A 
ATOM     14  N   UNL     1      44.222   2.760  10.788  0.00  0.00    +0.000 NA
ATOM     15  C   UNL     1      44.539   2.554   9.493  0.00  0.00    +0.000 A 
ATOM     16  C   UNL     1      45.124   3.514   8.693  0.00  0.00    +0.000 A 
ATOM     17  C   UNL     1      45.400   4.757   9.259  0.00  0.00    +0.000 A 
ATOM     18  C   UNL     1      45.089   5.012  10.606  0.00  0.00    +0.000 A 
ENDBRANCH   8  18
ENDBRANCH   7  10
ENDBRANCH   1   7
BRANCH   4  19
ATOM     19  C   UNL     1      49.155   7.234  17.518  0.00  0.00    +0.000 C 
BRANCH  19  20
ATOM     20  N   UNL     1      49.995   6.072  17.701  0.00  0.00    +0.000 N 
ATOM     21  C   UNL     1      51.332   6.074  17.406  0.00  0.00    +0.000 C 
ATOM     22  O   UNL     1      51.903   7.052  16.929  0.00  0.00    +0.000 OA
ATOM     23  H   UNL     1      49.519   5.205  17.929  0.00  0.00    +0.000 HD
BRANCH  21  24
ATOM     24  C   UNL     1      52.056   4.859  17.741  0.00  0.00    +0.000 A 
ATOM     25  C   UNL     1      53.340   4.854  18.254  0.00  0.00    +0.000 A 
ATOM     26  O   UNL     1      53.771   3.592  18.509  0.00  0.00    +0.000 OA
ATOM     27  C   UNL     1      52.772   2.743  18.139  0.00  0.00    +0.000 A 
ATOM     28  N   UNL     1      52.860   1.394  18.232  0.00  0.00    +0.000 NA
ATOM     29  C   UNL     1      51.814   0.780  17.782  0.00  0.00    +0.000 A 
ATOM     30  N   UNL     1      50.696   1.394  17.265  0.00  0.00    +0.000 N 
ATOM     31  C   UNL     1      50.549   2.760  17.212  0.00  0.00    +0.000 A 
ATOM     32  O   UNL     1      49.516   3.301  16.841  0.00  0.00    +0.000 OA
ATOM     33  C   UNL     1      51.707   3.485  17.666  0.00  0.00    +0.000 A 
ATOM     34  H   UNL     1      49.909   0.850  16.944  0.00  0.00    +0.000 HD
ENDBRANCH  21  24
ENDBRANCH  19  20
ENDBRANCH   4  19
TORSDOF 6
ENDMDL
MODEL 9
REMARK VINA RESULT:    -6.444      2.506      3.297
REMARK INTER + INTRA:          -9.760
REMARK INTER:                  -9.005
REMARK INTRA:                  -0.755
REMARK UNBOUND:                -1.056
REMARK  Name = 
REMARK  7 active torsions:
REMARK  status: ('A' for Active; 'I' for Inactive)
REMARK    1  A    between atoms: C_1  and  C_2
REMARK    2  A    between atoms: C_7  and  C_8
REMARK    3  A    between atoms: N_10  and  C_11
REMARK    4  A    between atoms: C_11  and  C_12
REMARK    5  A    between atoms: C_15  and  C_16
REMARK    6  A    between atoms: C_16  and  N_17
REMARK    7  A    between atoms: C_18  and  C_20
REMARK                            x       y       z     vdW  Elec       q    Type
REMARK                         _______ _______ _______ _____ _____    ______ ____
ROOT
ATOM      1  C   UNL     1      49.436   8.246  13.846  0.00  0.00    +0.000 A 
ATOM      2  C   UNL     1      48.343   8.900  14.406  0.00  0.00    +0.000 A 
ATOM      3  C   UNL     1      47.095   8.827  13.787  0.00  0.00    +0.000 A 
ATOM      4  C   UNL     1      46.979   8.121  12.594  0.00  0.00    +0.000 A 
ATOM      5  N   UNL     1      48.031   7.473  12.032  0.00  0.00    +0.000 NA
ATOM      6  C   UNL     1      49.225   7.549  12.664  0.00  0.00    +0.000 A 
ENDROOT
BRANCH   1   7
ATOM      7  C   UNL     1      50.805   8.345  14.460  0.00  0.00    +0.000 C 
BRANCH   7  10
ATOM      8  C   UNL     1      51.118   6.967  16.473  0.00  0.00    +0.000 C 
ATOM      9  O   UNL     1      50.756   7.883  17.205  0.00  0.00    +0.000 OA
ATOM     10  N   UNL     1      51.178   7.102  15.102  0.00  0.00    +0.000 N 
ATOM     11  H   UNL     1      51.741   6.457  14.568  0.00  0.00    +0.000 HD
BRANCH   8  18
ATOM     12  C   UNL     1      54.078   6.179  17.028  0.00  0.00    +0.000 C 
ATOM     13  C   UNL     1      52.892   5.309  17.323  0.00  0.00    +0.000 A 
ATOM     14  N   UNL     1      53.223   4.085  17.829  0.00  0.00    +0.000 NA
ATOM     15  C   UNL     1      52.234   3.198  18.067  0.00  0.00    +0.000 A 
ATOM     16  C   UNL     1      50.901   3.468  17.839  0.00  0.00    +0.000 A 
ATOM     17  C   UNL     1      50.566   4.724  17.336  0.00  0.00    +0.000 A 
ATOM     18  C   UNL     1      51.565   5.676  17.072  0.00  0.00    +0.000 A 
ENDBRANCH   8  18
ENDBRANCH   7  10
ENDBRANCH   1   7
BRANCH   4  19
ATOM     19  C   UNL     1      45.650   8.042  11.882  0.00  0.00    +0.000 C 
BRANCH  19  20
ATOM     20  N   UNL     1      45.349   6.703  11.433  0.00  0.00    +0.000 N 
ATOM     21  C   UNL     1      44.613   5.821  12.179  0.00  0.00    +0.000 C 
ATOM     22  O   UNL     1      44.190   6.095  13.299  0.00  0.00    +0.000 OA
ATOM     23  H   UNL     1      45.828   6.392  10.592  0.00  0.00    +0.000 HD
BRANCH  21  24
ATOM     24  C   UNL     1      44.314   4.550  11.543  0.00  0.00    +0.000 A 
ATOM     25  C   UNL     1      43.523   3.574  12.124  0.00  0.00    +0.000 A 
ATOM     26  O   UNL     1      43.376   2.500  11.307  0.00  0.00    +0.000 OA
ATOM     27  C   UNL     1      44.096   2.749  10.178  0.00  0.00    +0.000 A 
ATOM     28  N   UNL     1      44.197   1.880   9.144  0.00  0.00    +0.000 NA
ATOM     29  C   UNL     1      44.968   2.300   8.194  0.00  0.00    +0.000 A 
ATOM     30  N   UNL     1      45.629   3.508   8.186  0.00  0.00    +0.000 N 
ATOM     31  C   UNL     1      45.500   4.438   9.189  0.00  0.00    +0.000 A 
ATOM     32  O   UNL     1      46.012   5.549   9.133  0.00  0.00    +0.000 OA
ATOM     33  C   UNL     1      44.682   3.996  10.289  0.00  0.00    +0.000 A 
ATOM     34  H   UNL     1      46.205   3.777   7.402  0.00  0.00    +0.000 HD
ENDBRANCH  21  24
ENDBRANCH  19  20
ENDBRANCH   4  19
TORSDOF 6
ENDMDL
