MODEL 1
REMARK VINA RESULT:    -7.301      0.000      0.000
REMARK INTER + INTRA:         -10.442
REMARK INTER:                  -9.649
REMARK INTRA:                  -0.793
REMARK UNBOUND:                -0.793
REMARK  Name = 
REMARK  7 active torsions:
REMARK  status: ('A' for Active; 'I' for Inactive)
REMARK    1  A    between atoms: C_1  and  C_2
REMARK    2  A    between atoms: C_7  and  C_8
REMARK    3  A    between atoms: N_10  and  C_11
REMARK    4  A    between atoms: C_11  and  C_12
REMARK    5  A    between atoms: C_15  and  C_16
REMARK    6  A    between atoms: C_16  and  N_17
REMARK    7  A    between atoms: C_20  and  N_21
REMARK                            x       y       z     vdW  Elec       q    Type
REMARK                         _______ _______ _______ _____ _____    ______ ____
ROOT
ATOM      1  C   UNL     1      49.123   4.305  18.489  0.00  0.00    +0.000 C 
ENDROOT
BRANCH   1   2
ATOM      2  C   UNL     1      48.580   4.217  17.100  0.00  0.00    +0.000 A 
ATOM      3  C   UNL     1      48.311   5.333  16.336  0.00  0.00    +0.000 A 
ATOM      4  N   UNL     1      47.722   5.294  15.124  0.00  0.00    +0.000 NA
ATOM      5  C   UNL     1      47.394   4.074  14.645  0.00  0.00    +0.000 A 
ATOM      6  N   UNL     1      47.658   2.918  15.294  0.00  0.00    +0.000 NA
ATOM      7  C   UNL     1      48.234   3.020  16.511  0.00  0.00    +0.000 A 
BRANCH   5   8
ATOM      8  C   UNL     1      46.492   4.011  13.416  0.00  0.00    +0.000 C 
BRANCH   8   9
ATOM      9  N   UNL     1      45.402   4.984  13.200  0.00  0.00    +0.000 NA
ATOM     10  C   UNL     1      44.050   4.444  13.173  0.00  0.00    +0.000 C 
ATOM     11  C   UNL     1      43.595   3.927  11.808  0.00  0.00    +0.000 C 
ATOM     12  C   UNL     1      43.888   4.894  10.651  0.00  0.00    +0.000 C 
ATOM     13  C   UNL     1      45.295   5.490  10.748  0.00  0.00    +0.000 C 
ATOM     14  C   UNL     1      45.643   5.971  12.153  0.00  0.00    +0.000 C 
BRANCH  12  15
ATOM     15  N   UNL     1      42.891   5.968  10.572  0.00  0.00    +0.000 NA
ATOM     16  H   UNL     1      42.337   6.000  11.426  0.00  0.00    +0.000 HD
ATOM     17  H   UNL     1      42.239   5.774   9.812  0.00  0.00    +0.000 HD
ENDBRANCH  12  15
ENDBRANCH   8   9
ENDBRANCH   5   8
ENDBRANCH   1   2
BRANCH   1  20
ATOM     18  C   UNL     1      51.569   4.224  18.084  0.00  0.00    +0.000 C 
ATOM     19  O   UNL     1      51.557   5.303  17.503  0.00  0.00    +0.000 OA
ATOM     20  N   UNL     1      50.415   3.677  18.586  0.00  0.00    +0.000 N 
ATOM     21  H   UNL     1      50.433   2.731  18.961  0.00  0.00    +0.000 HD
BRANCH  18  28
ATOM     22  C   UNL     1      54.631  -1.901  18.371  0.00  0.00    +0.000 C 
ATOM     23  C   UNL     1      54.170  -0.473  18.341  0.00  0.00    +0.000 A 
ATOM     24  N   UNL     1      54.972   0.504  18.622  0.00  0.00    +0.000 NA
ATOM     25  C   UNL     1      54.408   1.741  18.557  0.00  0.00    +0.000 A 
ATOM     26  S   UNL     1      55.317   3.133  18.917  0.00  0.00    +0.000 S 
ATOM     27  C   UNL     1      53.974   4.149  18.650  0.00  0.00    +0.000 A 
ATOM     28  C   UNL     1      52.813   3.469  18.291  0.00  0.00    +0.000 A 
ATOM     29  C   UNL     1      53.102   2.050  18.214  0.00  0.00    +0.000 A 
ATOM     30  C   UNL     1      52.258   0.924  17.860  0.00  0.00    +0.000 A 
ATOM     31  O   UNL     1      51.104   1.022  17.452  0.00  0.00    +0.000 OA
ATOM     32  N   UNL     1      52.851  -0.307  17.993  0.00  0.00    +0.000 N 
ATOM     33  H   UNL     1      52.277  -1.101  17.749  0.00  0.00    +0.000 HD
ENDBRANCH  18  28
ENDBRANCH   1  20
TORSDOF 6
ENDMDL
MODEL 2
REMARK VINA RESULT:    -7.018      4.377      8.860
REMARK INTER + INTRA:         -10.067
REMARK INTER:                  -8.956
REMARK INTRA:                  -1.112
REMARK UNBOUND:                -0.793
REMARK  Name = 
REMARK  7 active torsions:
REMARK  status: ('A' for Active; 'I' for Inactive)
REMARK    1  A    between atoms: C_1  and  C_2
REMARK    2  A    between atoms: C_7  and  C_8
REMARK    3  A    between atoms: N_10  and  C_11
REMARK    4  A    between atoms: C_11  and  C_12
REMARK    5  A    between atoms: C_15  and  C_16
REMARK    6  A    between atoms: C_16  and  N_17
REMARK    7  A    between atoms: C_20  and  N_21
REMARK                            x       y       z     vdW  Elec       q    Type
REMARK                         _______ _______ _______ _____ _____    ______ ____
ROOT
ATOM      1  C   UNL     1      48.262   9.370  15.143  0.00  0.00    +0.000 C 
ENDROOT
BRANCH   1   2
ATOM      2  C   UNL     1      49.059   8.351  15.889  0.00  0.00    +0.000 A 
ATOM      3  C   UNL     1      49.559   7.215  15.288  0.00  0.00    +0.000 A 
ATOM      4  N   UNL     1      50.189   6.224  15.953  0.00  0.00    +0.000 NA
ATOM      5  C   UNL     1      50.336   6.384  17.286  0.00  0.00    +0.000 A 
ATOM      6  N   UNL     1      49.925   7.481  17.961  0.00  0.00    +0.000 NA
ATOM      7  C   UNL     1      49.287   8.432  17.246  0.00  0.00    +0.000 A 
BRANCH   5   8
ATOM      8  C   UNL     1      50.794   5.177  18.101  0.00  0.00    +0.000 C 
BRANCH   8   9
ATOM      9  N   UNL     1      49.837   4.177  18.615  0.00  0.00    +0.000 NA
ATOM     10  C   UNL     1      49.702   2.953  17.837  0.00  0.00    +0.000 C 
ATOM     11  C   UNL     1      48.700   3.034  16.686  0.00  0.00    +0.000 C 
ATOM     12  C   UNL     1      47.352   3.655  17.082  0.00  0.00    +0.000 C 
ATOM     13  C   UNL     1      47.532   4.903  17.951  0.00  0.00    +0.000 C 
ATOM     14  C   UNL     1      48.557   4.711  19.065  0.00  0.00    +0.000 C 
BRANCH  12  15
ATOM     15  N   UNL     1      46.485   2.688  17.765  0.00  0.00    +0.000 NA
ATOM     16  H   UNL     1      46.635   2.728  18.771  0.00  0.00    +0.000 HD
ATOM     17  H   UNL     1      46.732   1.742  17.474  0.00  0.00    +0.000 HD
ENDBRANCH  12  15
ENDBRANCH   8   9
ENDBRANCH   5   8
ENDBRANCH   1   2
BRANCH   1  20
ATOM     18  C   UNL     1      47.097   8.592  13.096  0.00  0.00    +0.000 C 
ATOM     19  O   UNL     1      48.016   8.962  12.374  0.00  0.00    +0.000 OA
ATOM     20  N   UNL     1      47.150   8.765  14.456  0.00  0.00    +0.000 N 
ATOM     21  H   UNL     1      46.328   8.556  15.018  0.00  0.00    +0.000 HD
BRANCH  18  28
ATOM     22  C   UNL     1      43.568   2.771  12.300  0.00  0.00    +0.000 C 
ATOM     23  C   UNL     1      44.164   4.146  12.368  0.00  0.00    +0.000 A 
ATOM     24  N   UNL     1      43.618   5.152  11.762  0.00  0.00    +0.000 NA
ATOM     25  C   UNL     1      44.278   6.334  11.911  0.00  0.00    +0.000 A 
ATOM     26  S   UNL     1      43.708   7.751  11.162  0.00  0.00    +0.000 S 
ATOM     27  C   UNL     1      45.008   8.667  11.776  0.00  0.00    +0.000 A 
ATOM     28  C   UNL     1      45.901   7.932  12.551  0.00  0.00    +0.000 A 
ATOM     29  C   UNL     1      45.434   6.562  12.640  0.00  0.00    +0.000 A 
ATOM     30  C   UNL     1      45.977   5.413  13.340  0.00  0.00    +0.000 A 
ATOM     31  O   UNL     1      46.943   5.455  14.098  0.00  0.00    +0.000 OA
ATOM     32  N   UNL     1      45.313   4.233  13.117  0.00  0.00    +0.000 N 
ATOM     33  H   UNL     1      45.678   3.424  13.599  0.00  0.00    +0.000 HD
ENDBRANCH  18  28
ENDBRANCH   1  20
TORSDOF 6
ENDMDL
MODEL 3
REMARK VINA RESULT:    -6.484      3.837      9.518
REMARK INTER + INTRA:          -9.363
REMARK INTER:                  -8.372
REMARK INTRA:                  -0.991
REMARK UNBOUND:                -0.793
REMARK  Name = 
REMARK  7 active torsions:
REMARK  status: ('A' for Active; 'I' for Inactive)
REMARK    1  A    between atoms: C_1  and  C_2
REMARK    2  A    between atoms: C_7  and  C_8
REMARK    3  A    between atoms: N_10  and  C_11
REMARK    4  A    between atoms: C_11  and  C_12
REMARK    5  A    between atoms: C_15  and  C_16
REMARK    6  A    between atoms: C_16  and  N_17
REMARK    7  A    between atoms: C_20  and  N_21
REMARK                            x       y       z     vdW  Elec       q    Type
REMARK                         _______ _______ _______ _____ _____    ______ ____
ROOT
ATOM      1  C   UNL     1      48.341   9.262  15.821  0.00  0.00    +0.000 C 
ENDROOT
BRANCH   1   2
ATOM      2  C   UNL     1      49.142   8.101  16.311  0.00  0.00    +0.000 A 
ATOM      3  C   UNL     1      49.329   7.841  17.652  0.00  0.00    +0.000 A 
ATOM      4  N   UNL     1      50.132   6.867  18.127  0.00  0.00    +0.000 NA
ATOM      5  C   UNL     1      50.773   6.106  17.213  0.00  0.00    +0.000 A 
ATOM      6  N   UNL     1      50.620   6.249  15.878  0.00  0.00    +0.000 NA
ATOM      7  C   UNL     1      49.817   7.251  15.460  0.00  0.00    +0.000 A 
BRANCH   5   8
ATOM      8  C   UNL     1      51.885   5.186  17.709  0.00  0.00    +0.000 C 
BRANCH   8   9
ATOM      9  N   UNL     1      51.599   3.992  18.530  0.00  0.00    +0.000 NA
ATOM     10  C   UNL     1      52.738   3.145  18.857  0.00  0.00    +0.000 C 
ATOM     11  C   UNL     1      53.078   2.095  17.799  0.00  0.00    +0.000 C 
ATOM     12  C   UNL     1      51.860   1.309  17.294  0.00  0.00    +0.000 C 
ATOM     13  C   UNL     1      50.662   2.224  17.021  0.00  0.00    +0.000 C 
ATOM     14  C   UNL     1      50.417   3.233  18.138  0.00  0.00    +0.000 C 
BRANCH  12  15
ATOM     15  N   UNL     1      51.474   0.241  18.224  0.00  0.00    +0.000 NA
ATOM     16  H   UNL     1      51.941  -0.629  17.976  0.00  0.00    +0.000 HD
ATOM     17  H   UNL     1      50.473   0.064  18.145  0.00  0.00    +0.000 HD
ENDBRANCH  12  15
ENDBRANCH   8   9
ENDBRANCH   5   8
ENDBRANCH   1   2
BRANCH   1  20
ATOM     18  C   UNL     1      47.362   8.951  13.564  0.00  0.00    +0.000 C 
ATOM     19  O   UNL     1      48.344   9.441  13.018  0.00  0.00    +0.000 OA
ATOM     20  N   UNL     1      47.293   8.837  14.929  0.00  0.00    +0.000 N 
ATOM     21  H   UNL     1      46.423   8.534  15.361  0.00  0.00    +0.000 HD
BRANCH  18  28
ATOM     22  C   UNL     1      43.872   3.501  11.307  0.00  0.00    +0.000 C 
ATOM     23  C   UNL     1      44.472   4.818  11.701  0.00  0.00    +0.000 A 
ATOM     24  N   UNL     1      43.996   5.938  11.259  0.00  0.00    +0.000 NA
ATOM     25  C   UNL     1      44.650   7.049  11.700  0.00  0.00    +0.000 A 
ATOM     26  S   UNL     1      44.167   8.601  11.198  0.00  0.00    +0.000 S 
ATOM     27  C   UNL     1      45.410   9.341  12.098  0.00  0.00    +0.000 A 
ATOM     28  C   UNL     1      46.218   8.444  12.791  0.00  0.00    +0.000 A 
ATOM     29  C   UNL     1      45.732   7.097  12.562  0.00  0.00    +0.000 A 
ATOM     30  C   UNL     1      46.195   5.818  13.068  0.00  0.00    +0.000 A 
ATOM     31  O   UNL     1      47.085   5.683  13.905  0.00  0.00    +0.000 OA
ATOM     32  N   UNL     1      45.545   4.724  12.555  0.00  0.00    +0.000 N 
ATOM     33  H   UNL     1      45.854   3.826  12.898  0.00  0.00    +0.000 HD
ENDBRANCH  18  28
ENDBRANCH   1  20
TORSDOF 6
ENDMDL
MODEL 4
REMARK VINA RESULT:    -6.447      4.983      9.258
REMARK INTER + INTRA:          -9.314
REMARK INTER:                  -8.102
REMARK INTRA:                  -1.211
REMARK UNBOUND:                -0.793
REMARK  Name = 
REMARK  7 active torsions:
REMARK  status: ('A' for Active; 'I' for Inactive)
REMARK    1  A    between atoms: C_1  and  C_2
REMARK    2  A    between atoms: C_7  and  C_8
REMARK    3  A    between atoms: N_10  and  C_11
REMARK    4  A    between atoms: C_11  and  C_12
REMARK    5  A    between atoms: C_15  and  C_16
REMARK    6  A    between atoms: C_16  and  N_17
REMARK    7  A    between atoms: C_20  and  N_21
REMARK                            x       y       z     vdW  Elec       q    Type
REMARK                         _______ _______ _______ _____ _____    ______ ____
ROOT
ATOM      1  C   UNL     1      47.474   3.935  16.387  0.00  0.00    +0.000 C 
ENDROOT
BRANCH   1   2
ATOM      2  C   UNL     1      48.106   4.929  17.306  0.00  0.00    +0.000 A 
ATOM      3  C   UNL     1      47.491   5.368  18.460  0.00  0.00    +0.000 A 
ATOM      4  N   UNL     1      47.984   6.340  19.254  0.00  0.00    +0.000 NA
ATOM      5  C   UNL     1      49.158   6.895  18.880  0.00  0.00    +0.000 A 
ATOM      6  N   UNL     1      49.862   6.503  17.795  0.00  0.00    +0.000 NA
ATOM      7  C   UNL     1      49.312   5.537  17.029  0.00  0.00    +0.000 A 
BRANCH   5   8
ATOM      8  C   UNL     1      49.603   8.168  19.596  0.00  0.00    +0.000 C 
BRANCH   8   9
ATOM      9  N   UNL     1      49.201   9.507  19.121  0.00  0.00    +0.000 NA
ATOM     10  C   UNL     1      47.899   9.600  18.475  0.00  0.00    +0.000 C 
ATOM     11  C   UNL     1      47.904   9.285  16.979  0.00  0.00    +0.000 C 
ATOM     12  C   UNL     1      49.021   9.996  16.201  0.00  0.00    +0.000 C 
ATOM     13  C   UNL     1      50.361   9.933  16.941  0.00  0.00    +0.000 C 
ATOM     14  C   UNL     1      50.238  10.261  18.426  0.00  0.00    +0.000 C 
BRANCH  12  15
ATOM     15  N   UNL     1      48.677  11.391  15.904  0.00  0.00    +0.000 NA
ATOM     16  H   UNL     1      48.617  11.932  16.764  0.00  0.00    +0.000 HD
ATOM     17  H   UNL     1      47.754  11.431  15.473  0.00  0.00    +0.000 HD
ENDBRANCH  12  15
ENDBRANCH   8   9
ENDBRANCH   5   8
ENDBRANCH   1   2
BRANCH   1  20
ATOM     18  C   UNL     1      46.774   4.214  14.024  0.00  0.00    +0.000 C 
ATOM     19  O   UNL     1      47.480   3.282  13.655  0.00  0.00    +0.000 OA
ATOM     20  N   UNL     1      46.728   4.589  15.342  0.00  0.00    +0.000 N 
ATOM     21  H   UNL     1      46.226   5.435  15.603  0.00  0.00    +0.000 HD
BRANCH  18  28
ATOM     22  C   UNL     1      44.964  10.324  11.501  0.00  0.00    +0.000 C 
ATOM     23  C   UNL     1      45.217   8.899  11.898  0.00  0.00    +0.000 A 
ATOM     24  N   UNL     1      44.522   7.925  11.403  0.00  0.00    +0.000 NA
ATOM     25  C   UNL     1      44.863   6.690  11.864  0.00  0.00    +0.000 A 
ATOM     26  S   UNL     1      44.035   5.302  11.332  0.00  0.00    +0.000 S 
ATOM     27  C   UNL     1      44.979   4.289  12.326  0.00  0.00    +0.000 A 
ATOM     28  C   UNL     1      45.931   4.967  13.083  0.00  0.00    +0.000 A 
ATOM     29  C   UNL     1      45.863   6.381  12.771  0.00  0.00    +0.000 A 
ATOM     30  C   UNL     1      46.644   7.503  13.257  0.00  0.00    +0.000 A 
ATOM     31  O   UNL     1      47.619   7.401  13.998  0.00  0.00    +0.000 OA
ATOM     32  N   UNL     1      46.230   8.733  12.811  0.00  0.00    +0.000 N 
ATOM     33  H   UNL     1      46.765   9.523  13.139  0.00  0.00    +0.000 HD
ENDBRANCH  18  28
ENDBRANCH   1  20
TORSDOF 6
ENDMDL
MODEL 5
REMARK VINA RESULT:    -6.395      2.654      3.940
REMARK INTER + INTRA:          -9.244
REMARK INTER:                  -8.286
REMARK INTRA:                  -0.958
REMARK UNBOUND:                -0.793
REMARK  Name = 
REMARK  7 active torsions:
REMARK  status: ('A' for Active; 'I' for Inactive)
REMARK    1  A    between atoms: C_1  and  C_2
REMARK    2  A    between atoms: C_7  and  C_8
REMARK    3  A    between atoms: N_10  and  C_11
REMARK    4  A    between atoms: C_11  and  C_12
REMARK    5  A    between atoms: C_15  and  C_16
REMARK    6  A    between atoms: C_16  and  N_17
REMARK    7  A    between atoms: C_20  and  N_21
REMARK                            x       y       z     vdW  Elec       q    Type
REMARK                         _______ _______ _______ _____ _____    ______ ____
ROOT
ATOM      1  C   UNL     1      49.200   8.074  15.304  0.00  0.00    +0.000 C 
ENDROOT
BRANCH   1   2
ATOM      2  C   UNL     1      48.251   7.834  14.176  0.00  0.00    +0.000 A 
ATOM      3  C   UNL     1      47.103   8.578  14.002  0.00  0.00    +0.000 A 
ATOM      4  N   UNL     1      46.173   8.319  13.060  0.00  0.00    +0.000 NA
ATOM      5  C   UNL     1      46.408   7.269  12.244  0.00  0.00    +0.000 A 
ATOM      6  N   UNL     1      47.524   6.508  12.302  0.00  0.00    +0.000 NA
ATOM      7  C   UNL     1      48.412   6.803  13.275  0.00  0.00    +0.000 A 
BRANCH   5   8
ATOM      8  C   UNL     1      45.263   6.788  11.356  0.00  0.00    +0.000 C 
BRANCH   8   9
ATOM      9  N   UNL     1      44.195   5.909  11.874  0.00  0.00    +0.000 NA
ATOM     10  C   UNL     1      44.598   4.913  12.857  0.00  0.00    +0.000 C 
ATOM     11  C   UNL     1      45.118   3.604  12.264  0.00  0.00    +0.000 C 
ATOM     12  C   UNL     1      44.229   3.034  11.149  0.00  0.00    +0.000 C 
ATOM     13  C   UNL     1      43.774   4.120  10.171  0.00  0.00    +0.000 C 
ATOM     14  C   UNL     1      43.278   5.382  10.870  0.00  0.00    +0.000 C 
BRANCH  12  15
ATOM     15  N   UNL     1      43.065   2.322  11.688  0.00  0.00    +0.000 NA
ATOM     16  H   UNL     1      42.408   2.103  10.942  0.00  0.00    +0.000 HD
ATOM     17  H   UNL     1      42.567   2.928  12.340  0.00  0.00    +0.000 HD
ENDBRANCH  12  15
ENDBRANCH   8   9
ENDBRANCH   5   8
ENDBRANCH   1   2
BRANCH   1  20
ATOM     18  C   UNL     1      49.337   6.152  16.866  0.00  0.00    +0.000 C 
ATOM     19  O   UNL     1      48.394   6.565  17.533  0.00  0.00    +0.000 OA
ATOM     20  N   UNL     1      49.785   6.842  15.769  0.00  0.00    +0.000 N 
ATOM     21  H   UNL     1      50.637   6.540  15.303  0.00  0.00    +0.000 HD
BRANCH  18  28
ATOM     22  C   UNL     1      55.273   2.976  18.150  0.00  0.00    +0.000 C 
ATOM     23  C   UNL     1      53.876   3.469  17.913  0.00  0.00    +0.000 A 
ATOM     24  N   UNL     1      52.866   2.658  17.892  0.00  0.00    +0.000 NA
ATOM     25  C   UNL     1      51.663   3.253  17.660  0.00  0.00    +0.000 A 
ATOM     26  S   UNL     1      50.237   2.329  17.579  0.00  0.00    +0.000 S 
ATOM     27  C   UNL     1      49.293   3.711  17.255  0.00  0.00    +0.000 A 
ATOM     28  C   UNL     1      50.025   4.894  17.194  0.00  0.00    +0.000 A 
ATOM     29  C   UNL     1      51.419   4.601  17.464  0.00  0.00    +0.000 A 
ATOM     30  C   UNL     1      52.576   5.472  17.547  0.00  0.00    +0.000 A 
ATOM     31  O   UNL     1      52.529   6.699  17.483  0.00  0.00    +0.000 OA
ATOM     32  N   UNL     1      53.774   4.827  17.726  0.00  0.00    +0.000 N 
ATOM     33  H   UNL     1      54.589   5.419  17.787  0.00  0.00    +0.000 HD
ENDBRANCH  18  28
ENDBRANCH   1  20
TORSDOF 6
ENDMDL
MODEL 6
REMARK VINA RESULT:    -6.386      4.011      6.301
REMARK INTER + INTRA:          -9.232
REMARK INTER:                  -8.614
REMARK INTRA:                  -0.618
REMARK UNBOUND:                -0.793
REMARK  Name = 
REMARK  7 active torsions:
REMARK  status: ('A' for Active; 'I' for Inactive)
REMARK    1  A    between atoms: C_1  and  C_2
REMARK    2  A    between atoms: C_7  and  C_8
REMARK    3  A    between atoms: N_10  and  C_11
REMARK    4  A    between atoms: C_11  and  C_12
REMARK    5  A    between atoms: C_15  and  C_16
REMARK    6  A    between atoms: C_16  and  N_17
REMARK    7  A    between atoms: C_20  and  N_21
REMARK                            x       y       z     vdW  Elec       q    Type
REMARK                         _______ _______ _______ _____ _____    ______ ____
ROOT
ATOM      1  C   UNL     1      45.714   8.386  12.954  0.00  0.00    +0.000 C 
ENDROOT
BRANCH   1   2
ATOM      2  C   UNL     1      45.472   7.124  12.194  0.00  0.00    +0.000 A 
ATOM      3  C   UNL     1      44.274   6.852  11.568  0.00  0.00    +0.000 A 
ATOM      4  N   UNL     1      43.985   5.681  10.965  0.00  0.00    +0.000 NA
ATOM      5  C   UNL     1      44.949   4.735  10.981  0.00  0.00    +0.000 A 
ATOM      6  N   UNL     1      46.173   4.919  11.525  0.00  0.00    +0.000 NA
ATOM      7  C   UNL     1      46.399   6.105  12.128  0.00  0.00    +0.000 A 
BRANCH   5   8
ATOM      8  C   UNL     1      44.565   3.320  10.554  0.00  0.00    +0.000 C 
BRANCH   8   9
ATOM      9  N   UNL     1      44.380   2.960   9.134  0.00  0.00    +0.000 NA
ATOM     10  C   UNL     1      44.844   1.637   8.738  0.00  0.00    +0.000 C 
ATOM     11  C   UNL     1      46.323   1.566   8.361  0.00  0.00    +0.000 C 
ATOM     12  C   UNL     1      46.773   2.680   7.404  0.00  0.00    +0.000 C 
ATOM     13  C   UNL     1      46.214   4.045   7.816  0.00  0.00    +0.000 C 
ATOM     14  C   UNL     1      44.732   3.999   8.174  0.00  0.00    +0.000 C 
BRANCH  12  15
ATOM     15  N   UNL     1      46.407   2.387   6.013  0.00  0.00    +0.000 NA
ATOM     16  H   UNL     1      45.738   1.620   5.978  0.00  0.00    +0.000 HD
ATOM     17  H   UNL     1      47.232   2.073   5.503  0.00  0.00    +0.000 HD
ENDBRANCH  12  15
ENDBRANCH   8   9
ENDBRANCH   5   8
ENDBRANCH   1   2
BRANCH   1  20
ATOM     18  C   UNL     1      48.047   8.551  13.780  0.00  0.00    +0.000 C 
ATOM     19  O   UNL     1      48.437   9.036  12.724  0.00  0.00    +0.000 OA
ATOM     20  N   UNL     1      46.731   8.207  13.958  0.00  0.00    +0.000 N 
ATOM     21  H   UNL     1      46.456   7.701  14.798  0.00  0.00    +0.000 HD
BRANCH  18  28
ATOM     22  C   UNL     1      50.120   4.359  18.790  0.00  0.00    +0.000 C 
ATOM     23  C   UNL     1      49.835   5.415  17.763  0.00  0.00    +0.000 A 
ATOM     24  N   UNL     1      50.441   6.559  17.782  0.00  0.00    +0.000 NA
ATOM     25  C   UNL     1      50.072   7.416  16.790  0.00  0.00    +0.000 A 
ATOM     26  S   UNL     1      50.755   8.970  16.682  0.00  0.00    +0.000 S 
ATOM     27  C   UNL     1      49.810   9.353  15.317  0.00  0.00    +0.000 A 
ATOM     28  C   UNL     1      48.957   8.329  14.914  0.00  0.00    +0.000 A 
ATOM     29  C   UNL     1      49.150   7.184  15.783  0.00  0.00    +0.000 A 
ATOM     30  C   UNL     1      48.537   5.869  15.777  0.00  0.00    +0.000 A 
ATOM     31  O   UNL     1      47.765   5.467  14.910  0.00  0.00    +0.000 OA
ATOM     32  N   UNL     1      48.895   5.060  16.825  0.00  0.00    +0.000 N 
ATOM     33  H   UNL     1      48.478   4.140  16.835  0.00  0.00    +0.000 HD
ENDBRANCH  18  28
ENDBRANCH   1  20
TORSDOF 6
ENDMDL
MODEL 7
REMARK VINA RESULT:    -6.360      4.983      9.528
REMARK INTER + INTRA:          -9.198
REMARK INTER:                  -8.275
REMARK INTRA:                  -0.924
REMARK UNBOUND:                -0.793
REMARK  Name = 
REMARK  7 active torsions:
REMARK  status: ('A' for Active; 'I' for Inactive)
REMARK    1  A    between atoms: C_1  and  C_2
REMARK    2  A    between atoms: C_7  and  C_8
REMARK    3  A    between atoms: N_10  and  C_11
REMARK    4  A    between atoms: C_11  and  C_12
REMARK    5  A    between atoms: C_15  and  C_16
REMARK    6  A    between atoms: C_16  and  N_17
REMARK    7  A    between atoms: C_20  and  N_21
REMARK                            x       y       z     vdW  Elec       q    Type
REMARK                         _______ _______ _______ _____ _____    ______ ____
ROOT
ATOM      1  C   UNL     1      47.610   8.587  13.663  0.00  0.00    +0.000 C 
ENDROOT
BRANCH   1   2
ATOM      2  C   UNL     1      48.420   8.052  14.798  0.00  0.00    +0.000 A 
ATOM      3  C   UNL     1      49.203   6.923  14.684  0.00  0.00    +0.000 A 
ATOM      4  N   UNL     1      49.860   6.352  15.714  0.00  0.00    +0.000 NA
ATOM      5  C   UNL     1      49.736   6.949  16.920  0.00  0.00    +0.000 A 
ATOM      6  N   UNL     1      49.033   8.084  17.127  0.00  0.00    +0.000 NA
ATOM      7  C   UNL     1      48.383   8.601  16.062  0.00  0.00    +0.000 A 
BRANCH   5   8
ATOM      8  C   UNL     1      50.237   6.188  18.145  0.00  0.00    +0.000 C 
BRANCH   8   9
ATOM      9  N   UNL     1      49.443   5.110  18.768  0.00  0.00    +0.000 NA
ATOM     10  C   UNL     1      49.753   3.751  18.344  0.00  0.00    +0.000 C 
ATOM     11  C   UNL     1      49.023   3.294  17.082  0.00  0.00    +0.000 C 
ATOM     12  C   UNL     1      47.517   3.599  17.094  0.00  0.00    +0.000 C 
ATOM     13  C   UNL     1      47.226   5.013  17.605  0.00  0.00    +0.000 C 
ATOM     14  C   UNL     1      48.010   5.364  18.865  0.00  0.00    +0.000 C 
BRANCH  12  15
ATOM     15  N   UNL     1      46.766   2.615  17.882  0.00  0.00    +0.000 NA
ATOM     16  H   UNL     1      47.406   2.004  18.386  0.00  0.00    +0.000 HD
ATOM     17  H   UNL     1      46.229   2.015  17.256  0.00  0.00    +0.000 HD
ENDBRANCH  12  15
ENDBRANCH   8   9
ENDBRANCH   5   8
ENDBRANCH   1   2
BRANCH   1  20
ATOM     18  C   UNL     1      45.442   7.797  12.754  0.00  0.00    +0.000 C 
ATOM     19  O   UNL     1      44.926   8.900  12.897  0.00  0.00    +0.000 OA
ATOM     20  N   UNL     1      46.747   7.574  13.112  0.00  0.00    +0.000 N 
ATOM     21  H   UNL     1      47.115   6.625  13.091  0.00  0.00    +0.000 HD
BRANCH  18  28
ATOM     22  C   UNL     1      44.897   3.231   7.672  0.00  0.00    +0.000 C 
ATOM     23  C   UNL     1      44.837   4.122   8.878  0.00  0.00    +0.000 A 
ATOM     24  N   UNL     1      43.870   4.039   9.734  0.00  0.00    +0.000 NA
ATOM     25  C   UNL     1      43.951   4.917  10.772  0.00  0.00    +0.000 A 
ATOM     26  S   UNL     1      42.749   4.956  11.976  0.00  0.00    +0.000 S 
ATOM     27  C   UNL     1      43.527   6.233  12.792  0.00  0.00    +0.000 A 
ATOM     28  C   UNL     1      44.701   6.663  12.180  0.00  0.00    +0.000 A 
ATOM     29  C   UNL     1      44.946   5.851  11.003  0.00  0.00    +0.000 A 
ATOM     30  C   UNL     1      46.032   5.870  10.042  0.00  0.00    +0.000 A 
ATOM     31  O   UNL     1      47.034   6.574  10.140  0.00  0.00    +0.000 OA
ATOM     32  N   UNL     1      45.882   5.009   8.984  0.00  0.00    +0.000 N 
ATOM     33  H   UNL     1      46.631   5.009   8.306  0.00  0.00    +0.000 HD
ENDBRANCH  18  28
ENDBRANCH   1  20
TORSDOF 6
ENDMDL
MODEL 8
REMARK VINA RESULT:    -5.958      3.660      9.845
REMARK INTER + INTRA:          -8.667
REMARK INTER:                  -7.831
REMARK INTRA:                  -0.836
REMARK UNBOUND:                -0.793
REMARK  Name = 
REMARK  7 active torsions:
REMARK  status: ('A' for Active; 'I' for Inactive)
REMARK    1  A    between atoms: C_1  and  C_2
REMARK    2  A    between atoms: C_7  and  C_8
REMARK    3  A    between atoms: N_10  and  C_11
REMARK    4  A    between atoms: C_11  and  C_12
REMARK    5  A    between atoms: C_15  and  C_16
REMARK    6  A    between atoms: C_16  and  N_17
REMARK    7  A    between atoms: C_20  and  N_21
REMARK                            x       y       z     vdW  Elec       q    Type
REMARK                         _______ _______ _______ _____ _____    ______ ____
ROOT
ATOM      1  C   UNL     1      47.446   3.643  16.459  0.00  0.00    +0.000 C 
ENDROOT
BRANCH   1   2
ATOM      2  C   UNL     1      48.241   4.515  17.374  0.00  0.00    +0.000 A 
ATOM      3  C   UNL     1      48.657   5.781  17.018  0.00  0.00    +0.000 A 
ATOM      4  N   UNL     1      49.464   6.551  17.775  0.00  0.00    +0.000 NA
ATOM      5  C   UNL     1      49.868   6.033  18.955  0.00  0.00    +0.000 A 
ATOM      6  N   UNL     1      49.479   4.824  19.417  0.00  0.00    +0.000 NA
ATOM      7  C   UNL     1      48.684   4.090  18.609  0.00  0.00    +0.000 A 
BRANCH   5   8
ATOM      8  C   UNL     1      50.986   6.755  19.704  0.00  0.00    +0.000 C 
BRANCH   8   9
ATOM      9  N   UNL     1      52.409   6.433  19.475  0.00  0.00    +0.000 NA
ATOM     10  C   UNL     1      52.775   6.056  18.116  0.00  0.00    +0.000 C 
ATOM     11  C   UNL     1      52.589   4.574  17.792  0.00  0.00    +0.000 C 
ATOM     12  C   UNL     1      53.160   3.630  18.861  0.00  0.00    +0.000 C 
ATOM     13  C   UNL     1      52.808   4.093  20.278  0.00  0.00    +0.000 C 
ATOM     14  C   UNL     1      53.029   5.587  20.489  0.00  0.00    +0.000 C 
BRANCH  12  15
ATOM     15  N   UNL     1      54.613   3.473  18.730  0.00  0.00    +0.000 NA
ATOM     16  H   UNL     1      55.032   3.290  19.640  0.00  0.00    +0.000 HD
ATOM     17  H   UNL     1      55.023   4.344  18.395  0.00  0.00    +0.000 HD
ENDBRANCH  12  15
ENDBRANCH   8   9
ENDBRANCH   5   8
ENDBRANCH   1   2
BRANCH   1  20
ATOM     18  C   UNL     1      46.765   4.178  14.135  0.00  0.00    +0.000 C 
ATOM     19  O   UNL     1      47.438   3.262  13.676  0.00  0.00    +0.000 OA
ATOM     20  N   UNL     1      46.728   4.423  15.484  0.00  0.00    +0.000 N 
ATOM     21  H   UNL     1      46.257   5.257  15.827  0.00  0.00    +0.000 HD
BRANCH  18  28
ATOM     22  C   UNL     1      45.631  10.498  11.740  0.00  0.00    +0.000 C 
ATOM     23  C   UNL     1      45.709   9.050  12.124  0.00  0.00    +0.000 A 
ATOM     24  N   UNL     1      44.834   8.191  11.709  0.00  0.00    +0.000 NA
ATOM     25  C   UNL     1      45.035   6.917  12.146  0.00  0.00    +0.000 A 
ATOM     26  S   UNL     1      43.966   5.668  11.711  0.00  0.00    +0.000 S 
ATOM     27  C   UNL     1      44.843   4.523  12.619  0.00  0.00    +0.000 A 
ATOM     28  C   UNL     1      45.953   5.050  13.273  0.00  0.00    +0.000 A 
ATOM     29  C   UNL     1      46.062   6.461  12.955  0.00  0.00    +0.000 A 
ATOM     30  C   UNL     1      47.043   7.454  13.352  0.00  0.00    +0.000 A 
ATOM     31  O   UNL     1      48.061   7.207  13.995  0.00  0.00    +0.000 OA
ATOM     32  N   UNL     1      46.772   8.733  12.936  0.00  0.00    +0.000 N 
ATOM     33  H   UNL     1      47.446   9.436  13.202  0.00  0.00    +0.000 HD
ENDBRANCH  18  28
ENDBRANCH   1  20
TORSDOF 6
ENDMDL
MODEL 9
REMARK VINA RESULT:    -5.894      3.668      9.274
REMARK INTER + INTRA:          -8.582
REMARK INTER:                  -7.584
REMARK INTRA:                  -0.998
REMARK UNBOUND:                -0.793
REMARK  Name = 
REMARK  7 active torsions:
REMARK  status: ('A' for Active; 'I' for Inactive)
REMARK    1  A    between atoms: C_1  and  C_2
REMARK    2  A    between atoms: C_7  and  C_8
REMARK    3  A    between atoms: N_10  and  C_11
REMARK    4  A    between atoms: C_11  and  C_12
REMARK    5  A    between atoms: C_15  and  C_16
REMARK    6  A    between atoms: C_16  and  N_17
REMARK    7  A    between atoms: C_20  and  N_21
REMARK                            x       y       z     vdW  Elec       q    Type
REMARK                         _______ _______ _______ _____ _____    ______ ____
ROOT
ATOM      1  C   UNL     1      47.484   3.739  17.355  0.00  0.00    +0.000 C 
ENDROOT
BRANCH   1   2
ATOM      2  C   UNL     1      48.933   3.877  17.689  0.00  0.00    +0.000 A 
ATOM      3  C   UNL     1      49.880   2.964  17.276  0.00  0.00    +0.000 A 
ATOM      4  N   UNL     1      51.176   3.000  17.648  0.00  0.00    +0.000 NA
ATOM      5  C   UNL     1      51.547   4.008  18.467  0.00  0.00    +0.000 A 
ATOM      6  N   UNL     1      50.707   4.980  18.888  0.00  0.00    +0.000 NA
ATOM      7  C   UNL     1      49.418   4.883  18.498  0.00  0.00    +0.000 A 
BRANCH   5   8
ATOM      8  C   UNL     1      52.925   3.926  19.118  0.00  0.00    +0.000 C 
BRANCH   8   9
ATOM      9  N   UNL     1      54.056   4.752  18.651  0.00  0.00    +0.000 NA
ATOM     10  C   UNL     1      54.309   5.980  19.394  0.00  0.00    +0.000 C 
ATOM     11  C   UNL     1      53.491   7.185  18.933  0.00  0.00    +0.000 C 
ATOM     12  C   UNL     1      53.488   7.385  17.410  0.00  0.00    +0.000 C 
ATOM     13  C   UNL     1      53.283   6.065  16.661  0.00  0.00    +0.000 C 
ATOM     14  C   UNL     1      54.146   4.931  17.206  0.00  0.00    +0.000 C 
BRANCH  12  15
ATOM     15  N   UNL     1      54.714   8.043  16.943  0.00  0.00    +0.000 NA
ATOM     16  H   UNL     1      54.794   7.963  15.931  0.00  0.00    +0.000 HD
ATOM     17  H   UNL     1      55.527   7.567  17.335  0.00  0.00    +0.000 HD
ENDBRANCH  12  15
ENDBRANCH   8   9
ENDBRANCH   5   8
ENDBRANCH   1   2
BRANCH   1  20
ATOM     18  C   UNL     1      47.136   4.097  14.926  0.00  0.00    +0.000 C 
ATOM     19  O   UNL     1      47.465   2.947  14.660  0.00  0.00    +0.000 OA
ATOM     20  N   UNL     1      47.128   4.551  16.220  0.00  0.00    +0.000 N 
ATOM     21  H   UNL     1      46.964   5.539  16.402  0.00  0.00    +0.000 HD
BRANCH  18  28
ATOM     22  C   UNL     1      48.247  10.081  11.774  0.00  0.00    +0.000 C 
ATOM     23  C   UNL     1      47.836   8.741  12.310  0.00  0.00    +0.000 A 
ATOM     24  N   UNL     1      46.781   8.131  11.874  0.00  0.00    +0.000 NA
ATOM     25  C   UNL     1      46.535   6.927  12.461  0.00  0.00    +0.000 A 
ATOM     26  S   UNL     1      45.176   6.004  12.019  0.00  0.00    +0.000 S 
ATOM     27  C   UNL     1      45.566   4.786  13.145  0.00  0.00    +0.000 A 
ATOM     28  C   UNL     1      46.719   5.045  13.881  0.00  0.00    +0.000 A 
ATOM     29  C   UNL     1      47.289   6.303  13.439  0.00  0.00    +0.000 A 
ATOM     30  C   UNL     1      48.488   7.005  13.858  0.00  0.00    +0.000 A 
ATOM     31  O   UNL     1      49.314   6.557  14.651  0.00  0.00    +0.000 OA
ATOM     32  N   UNL     1      48.667   8.237  13.282  0.00  0.00    +0.000 N 
ATOM     33  H   UNL     1      49.498   8.738  13.562  0.00  0.00    +0.000 HD
ENDBRANCH  18  28
ENDBRANCH   1  20
TORSDOF 6
ENDMDL
