MODEL 1
REMARK VINA RESULT:    -8.017      0.000      0.000
REMARK INTER + INTRA:         -12.088
REMARK INTER:                 -11.298
REMARK INTRA:                  -0.790
REMARK UNBOUND:                -0.790
REMARK  Name = 
REMARK  7 active torsions:
REMARK  status: ('A' for Active; 'I' for Inactive)
REMARK    1  A    between atoms: C_2  and  C_20
REMARK    2  A    between atoms: N_3  and  C_4
REMARK    3  A    between atoms: C_4  and  C_5
REMARK    4  A    between atoms: C_8  and  C_9
REMARK    5  A    between atoms: C_9  and  O_10
REMARK    6  A    between atoms: O_10  and  C_11
REMARK    7  A    between atoms: C_11  and  C_12
REMARK                            x       y       z     vdW  Elec       q    Type
REMARK                         _______ _______ _______ _____ _____    ______ ____
ROOT
ATOM      1  C   UNL     1      47.796   6.657  13.900  0.00  0.00    +0.000 C 
ENDROOT
BRANCH   1   2
ATOM      2  C   UNL     1      46.711   6.131  12.985  0.00  0.00    +0.000 A 
ATOM      3  C   UNL     1      46.641   6.547  11.656  0.00  0.00    +0.000 A 
ATOM      4  C   UNL     1      45.624   6.051  10.838  0.00  0.00    +0.000 A 
ATOM      5  C   UNL     1      44.691   5.153  11.357  0.00  0.00    +0.000 A 
ATOM      6  C   UNL     1      44.841   4.790  12.691  0.00  0.00    +0.000 A 
ATOM      7  N   UNL     1      45.818   5.252  13.509  0.00  0.00    +0.000 NA
BRANCH   5   8
ATOM      8  C   UNL     1      43.570   4.595  10.526  0.00  0.00    +0.000 C 
BRANCH   8   9
ATOM      9  O   UNL     1      44.127   4.072   9.325  0.00  0.00    +0.000 OA
BRANCH   9  10
ATOM     10  C   UNL     1      44.514   2.702   9.450  0.00  0.00    +0.000 C 
BRANCH  10  11
ATOM     11  C   UNL     1      45.616   2.380   8.470  0.00  0.00    +0.000 A 
ATOM     12  C   UNL     1      46.201   3.381   7.698  0.00  0.00    +0.000 A 
ATOM     13  N   UNL     1      47.207   3.150   6.821  0.00  0.00    +0.000 NA
ATOM     14  C   UNL     1      47.616   1.866   6.742  0.00  0.00    +0.000 A 
ATOM     15  C   UNL     1      47.055   0.863   7.513  0.00  0.00    +0.000 A 
ATOM     16  N   UNL     1      46.055   1.093   8.396  0.00  0.00    +0.000 NA
ENDBRANCH  10  11
ENDBRANCH   9  10
ENDBRANCH   8   9
ENDBRANCH   5   8
ENDBRANCH   1   2
BRANCH   1  19
ATOM     17  O   UNL     1      50.016   6.595  15.644  0.00  0.00    +0.000 OA
ATOM     18  C   UNL     1      49.000   5.977  15.952  0.00  0.00    +0.000 C 
ATOM     19  N   UNL     1      47.884   5.937  15.155  0.00  0.00    +0.000 N 
ATOM     20  H   UNL     1      47.061   5.467  15.521  0.00  0.00    +0.000 HD
BRANCH  18  21
ATOM     21  C   UNL     1      48.854   5.196  17.240  0.00  0.00    +0.000 A 
ATOM     22  N   UNL     1      49.151   3.818  17.215  0.00  0.00    +0.000 NA
ATOM     23  C   UNL     1      48.990   3.177  18.338  0.00  0.00    +0.000 A 
ATOM     24  N   UNL     1      48.567   3.736  19.506  0.00  0.00    +0.000 N 
ATOM     25  C   UNL     1      48.280   5.060  19.567  0.00  0.00    +0.000 A 
ATOM     26  N   UNL     1      47.861   5.786  20.566  0.00  0.00    +0.000 NA
ATOM     27  C   UNL     1      47.735   7.062  20.032  0.00  0.00    +0.000 A 
ATOM     28  C   UNL     1      48.058   7.174  18.730  0.00  0.00    +0.000 A 
ATOM     29  C   UNL     1      48.439   5.858  18.331  0.00  0.00    +0.000 A 
ATOM     30  H   UNL     1      48.436   3.188  20.344  0.00  0.00    +0.000 HD
ENDBRANCH  18  21
ENDBRANCH   1  19
TORSDOF 7
ENDMDL
MODEL 2
REMARK VINA RESULT:    -7.659      1.584      2.384
REMARK INTER + INTRA:         -11.583
REMARK INTER:                 -10.810
REMARK INTRA:                  -0.773
REMARK UNBOUND:                -0.790
REMARK  Name = 
REMARK  7 active torsions:
REMARK  status: ('A' for Active; 'I' for Inactive)
REMARK    1  A    between atoms: C_2  and  C_20
REMARK    2  A    between atoms: N_3  and  C_4
REMARK    3  A    between atoms: C_4  and  C_5
REMARK    4  A    between atoms: C_8  and  C_9
REMARK    5  A    between atoms: C_9  and  O_10
REMARK    6  A    between atoms: O_10  and  C_11
REMARK    7  A    between atoms: C_11  and  C_12
REMARK                            x       y       z     vdW  Elec       q    Type
REMARK                         _______ _______ _______ _____ _____    ______ ____
ROOT
ATOM      1  C   UNL     1      47.295   4.012  14.856  0.00  0.00    +0.000 C 
ENDROOT
BRANCH   1   2
ATOM      2  C   UNL     1      46.358   4.252  13.690  0.00  0.00    +0.000 A 
ATOM      3  C   UNL     1      46.034   5.549  13.297  0.00  0.00    +0.000 A 
ATOM      4  C   UNL     1      45.161   5.738  12.224  0.00  0.00    +0.000 A 
ATOM      5  C   UNL     1      44.622   4.633  11.563  0.00  0.00    +0.000 A 
ATOM      6  C   UNL     1      45.006   3.378  12.021  0.00  0.00    +0.000 A 
ATOM      7  N   UNL     1      45.852   3.162  13.058  0.00  0.00    +0.000 NA
BRANCH   5   8
ATOM      8  C   UNL     1      43.671   4.778  10.410  0.00  0.00    +0.000 C 
BRANCH   8   9
ATOM      9  O   UNL     1      44.027   3.820   9.418  0.00  0.00    +0.000 OA
BRANCH   9  10
ATOM     10  C   UNL     1      45.039   4.298   8.531  0.00  0.00    +0.000 C 
BRANCH  10  11
ATOM     11  C   UNL     1      45.903   3.154   8.060  0.00  0.00    +0.000 A 
ATOM     12  C   UNL     1      45.678   1.855   8.511  0.00  0.00    +0.000 A 
ATOM     13  N   UNL     1      46.409   0.790   8.103  0.00  0.00    +0.000 NA
ATOM     14  C   UNL     1      47.386   1.071   7.216  0.00  0.00    +0.000 A 
ATOM     15  C   UNL     1      47.614   2.353   6.748  0.00  0.00    +0.000 A 
ATOM     16  N   UNL     1      46.879   3.418   7.148  0.00  0.00    +0.000 NA
ENDBRANCH  10  11
ENDBRANCH   9  10
ENDBRANCH   8   9
ENDBRANCH   5   8
ENDBRANCH   1   2
BRANCH   1  19
ATOM     17  O   UNL     1      49.359   4.436  16.735  0.00  0.00    +0.000 OA
ATOM     18  C   UNL     1      48.506   5.307  16.583  0.00  0.00    +0.000 C 
ATOM     19  N   UNL     1      47.458   5.174  15.706  0.00  0.00    +0.000 N 
ATOM     20  H   UNL     1      46.843   5.973  15.586  0.00  0.00    +0.000 HD
BRANCH  18  21
ATOM     21  C   UNL     1      48.509   6.622  17.331  0.00  0.00    +0.000 A 
ATOM     22  N   UNL     1      48.926   7.776  16.636  0.00  0.00    +0.000 NA
ATOM     23  C   UNL     1      48.937   8.884  17.321  0.00  0.00    +0.000 A 
ATOM     24  N   UNL     1      48.577   9.000  18.630  0.00  0.00    +0.000 N 
ATOM     25  C   UNL     1      48.164   7.912  19.325  0.00  0.00    +0.000 A 
ATOM     26  N   UNL     1      47.787   7.800  20.569  0.00  0.00    +0.000 NA
ATOM     27  C   UNL     1      47.490   6.451  20.715  0.00  0.00    +0.000 A 
ATOM     28  C   UNL     1      47.664   5.701  19.612  0.00  0.00    +0.000 A 
ATOM     29  C   UNL     1      48.123   6.614  18.616  0.00  0.00    +0.000 A 
ATOM     30  H   UNL     1      48.627   9.881  19.121  0.00  0.00    +0.000 HD
ENDBRANCH  18  21
ENDBRANCH   1  19
TORSDOF 7
ENDMDL
MODEL 3
REMARK VINA RESULT:    -7.538      1.129      1.971
REMARK INTER + INTRA:         -11.413
REMARK INTER:                 -10.720
REMARK INTRA:                  -0.693
REMARK UNBOUND:                -0.790
REMARK  Name = 
REMARK  7 active torsions:
REMARK  status: ('A' for Active; 'I' for Inactive)
REMARK    1  A    between atoms: C_2  and  C_20
REMARK    2  A    between atoms: N_3  and  C_4
REMARK    3  A    between atoms: C_4  and  C_5
REMARK    4  A    between atoms: C_8  and  C_9
REMARK    5  A    between atoms: C_9  and  O_10
REMARK    6  A    between atoms: O_10  and  C_11
REMARK    7  A    between atoms: C_11  and  C_12
REMARK                            x       y       z     vdW  Elec       q    Type
REMARK                         _______ _______ _______ _____ _____    ______ ____
ROOT
ATOM      1  C   UNL     1      47.627   7.045  13.545  0.00  0.00    +0.000 C 
ENDROOT
BRANCH   1   2
ATOM      2  C   UNL     1      46.592   6.240  12.786  0.00  0.00    +0.000 A 
ATOM      3  C   UNL     1      46.385   6.457  11.425  0.00  0.00    +0.000 A 
ATOM      4  C   UNL     1      45.419   5.705  10.754  0.00  0.00    +0.000 A 
ATOM      5  C   UNL     1      44.672   4.754  11.450  0.00  0.00    +0.000 A 
ATOM      6  C   UNL     1      44.950   4.602  12.804  0.00  0.00    +0.000 A 
ATOM      7  N   UNL     1      45.883   5.314  13.482  0.00  0.00    +0.000 NA
BRANCH   5   8
ATOM      8  C   UNL     1      43.613   3.924  10.782  0.00  0.00    +0.000 C 
BRANCH   8   9
ATOM      9  O   UNL     1      44.085   3.559   9.489  0.00  0.00    +0.000 OA
BRANCH   9  10
ATOM     10  C   UNL     1      44.766   2.303   9.488  0.00  0.00    +0.000 C 
BRANCH  10  11
ATOM     11  C   UNL     1      45.742   2.240   8.339  0.00  0.00    +0.000 A 
ATOM     12  C   UNL     1      46.407   1.056   8.029  0.00  0.00    +0.000 A 
ATOM     13  N   UNL     1      47.275   0.940   6.996  0.00  0.00    +0.000 NA
ATOM     14  C   UNL     1      47.459   2.064   6.272  0.00  0.00    +0.000 A 
ATOM     15  C   UNL     1      46.796   3.245   6.558  0.00  0.00    +0.000 A 
ATOM     16  N   UNL     1      45.921   3.360   7.585  0.00  0.00    +0.000 NA
ENDBRANCH  10  11
ENDBRANCH   9  10
ENDBRANCH   8   9
ENDBRANCH   5   8
ENDBRANCH   1   2
BRANCH   1  19
ATOM     17  O   UNL     1      50.069   6.884  14.953  0.00  0.00    +0.000 OA
ATOM     18  C   UNL     1      49.030   6.574  15.529  0.00  0.00    +0.000 C 
ATOM     19  N   UNL     1      47.803   6.603  14.914  0.00  0.00    +0.000 N 
ATOM     20  H   UNL     1      46.986   6.406  15.485  0.00  0.00    +0.000 HD
BRANCH  18  21
ATOM     21  C   UNL     1      48.973   6.131  16.975  0.00  0.00    +0.000 A 
ATOM     22  N   UNL     1      49.369   7.055  17.965  0.00  0.00    +0.000 NA
ATOM     23  C   UNL     1      49.328   6.628  19.194  0.00  0.00    +0.000 A 
ATOM     24  N   UNL     1      48.935   5.381  19.580  0.00  0.00    +0.000 N 
ATOM     25  C   UNL     1      48.542   4.471  18.655  0.00  0.00    +0.000 A 
ATOM     26  N   UNL     1      48.140   3.239  18.802  0.00  0.00    +0.000 NA
ATOM     27  C   UNL     1      47.882   2.807  17.507  0.00  0.00    +0.000 A 
ATOM     28  C   UNL     1      48.106   3.718  16.542  0.00  0.00    +0.000 A 
ATOM     29  C   UNL     1      48.558   4.881  17.233  0.00  0.00    +0.000 A 
ATOM     30  H   UNL     1      48.945   5.093  20.547  0.00  0.00    +0.000 HD
ENDBRANCH  18  21
ENDBRANCH   1  19
TORSDOF 7
ENDMDL
MODEL 4
REMARK VINA RESULT:    -7.134      2.050      8.695
REMARK INTER + INTRA:         -10.843
REMARK INTER:                  -9.811
REMARK INTRA:                  -1.033
REMARK UNBOUND:                -0.790
REMARK  Name = 
REMARK  7 active torsions:
REMARK  status: ('A' for Active; 'I' for Inactive)
REMARK    1  A    between atoms: C_2  and  C_20
REMARK    2  A    between atoms: N_3  and  C_4
REMARK    3  A    between atoms: C_4  and  C_5
REMARK    4  A    between atoms: C_8  and  C_9
REMARK    5  A    between atoms: C_9  and  O_10
REMARK    6  A    between atoms: O_10  and  C_11
REMARK    7  A    between atoms: C_11  and  C_12
REMARK                            x       y       z     vdW  Elec       q    Type
REMARK                         _______ _______ _______ _____ _____    ______ ____
ROOT
ATOM      1  C   UNL     1      47.569   7.470  11.882  0.00  0.00    +0.000 C 
ENDROOT
BRANCH   1   2
ATOM      2  C   UNL     1      48.095   7.672  13.287  0.00  0.00    +0.000 A 
ATOM      3  C   UNL     1      47.628   8.723  14.074  0.00  0.00    +0.000 A 
ATOM      4  C   UNL     1      48.138   8.888  15.363  0.00  0.00    +0.000 A 
ATOM      5  C   UNL     1      49.107   8.007  15.846  0.00  0.00    +0.000 A 
ATOM      6  C   UNL     1      49.508   6.985  14.993  0.00  0.00    +0.000 A 
ATOM      7  N   UNL     1      49.031   6.797  13.738  0.00  0.00    +0.000 NA
BRANCH   5   8
ATOM      8  C   UNL     1      49.697   8.143  17.221  0.00  0.00    +0.000 C 
BRANCH   8   9
ATOM      9  O   UNL     1      48.848   7.461  18.138  0.00  0.00    +0.000 OA
BRANCH   9  10
ATOM     10  C   UNL     1      49.474   6.316  18.719  0.00  0.00    +0.000 C 
BRANCH  10  11
ATOM     11  C   UNL     1      48.869   5.051  18.160  0.00  0.00    +0.000 A 
ATOM     12  C   UNL     1      47.492   4.933  17.989  0.00  0.00    +0.000 A 
ATOM     13  N   UNL     1      46.900   3.829  17.472  0.00  0.00    +0.000 NA
ATOM     14  C   UNL     1      47.744   2.835  17.125  0.00  0.00    +0.000 A 
ATOM     15  C   UNL     1      49.116   2.942  17.275  0.00  0.00    +0.000 A 
ATOM     16  N   UNL     1      49.710   4.048  17.784  0.00  0.00    +0.000 NA
ENDBRANCH  10  11
ENDBRANCH   9  10
ENDBRANCH   8   9
ENDBRANCH   5   8
ENDBRANCH   1   2
BRANCH   1  19
ATOM     17  O   UNL     1      44.792   7.310  11.396  0.00  0.00    +0.000 OA
ATOM     18  C   UNL     1      45.442   6.271  11.477  0.00  0.00    +0.000 C 
ATOM     19  N   UNL     1      46.791   6.257  11.731  0.00  0.00    +0.000 N 
ATOM     20  H   UNL     1      47.264   5.359  11.705  0.00  0.00    +0.000 HD
BRANCH  18  21
ATOM     21  C   UNL     1      44.843   4.893  11.303  0.00  0.00    +0.000 A 
ATOM     22  N   UNL     1      44.216   4.299  12.418  0.00  0.00    +0.000 NA
ATOM     23  C   UNL     1      43.734   3.103  12.234  0.00  0.00    +0.000 A 
ATOM     24  N   UNL     1      43.790   2.406  11.064  0.00  0.00    +0.000 N 
ATOM     25  C   UNL     1      44.379   2.950   9.971  0.00  0.00    +0.000 A 
ATOM     26  N   UNL     1      44.546   2.462   8.773  0.00  0.00    +0.000 NA
ATOM     27  C   UNL     1      45.219   3.465   8.086  0.00  0.00    +0.000 A 
ATOM     28  C   UNL     1      45.486   4.573   8.803  0.00  0.00    +0.000 A 
ATOM     29  C   UNL     1      44.951   4.309  10.099  0.00  0.00    +0.000 A 
ATOM     30  H   UNL     1      43.421   1.470  10.982  0.00  0.00    +0.000 HD
ENDBRANCH  18  21
ENDBRANCH   1  19
TORSDOF 7
ENDMDL
MODEL 5
REMARK VINA RESULT:    -7.097      2.128      3.122
REMARK INTER + INTRA:         -10.791
REMARK INTER:                  -9.942
REMARK INTRA:                  -0.850
REMARK UNBOUND:                -0.790
REMARK  Name = 
REMARK  7 active torsions:
REMARK  status: ('A' for Active; 'I' for Inactive)
REMARK    1  A    between atoms: C_2  and  C_20
REMARK    2  A    between atoms: N_3  and  C_4
REMARK    3  A    between atoms: C_4  and  C_5
REMARK    4  A    between atoms: C_8  and  C_9
REMARK    5  A    between atoms: C_9  and  O_10
REMARK    6  A    between atoms: O_10  and  C_11
REMARK    7  A    between atoms: C_11  and  C_12
REMARK                            x       y       z     vdW  Elec       q    Type
REMARK                         _______ _______ _______ _____ _____    ______ ____
ROOT
ATOM      1  C   UNL     1      47.231   4.333  15.662  0.00  0.00    +0.000 C 
ENDROOT
BRANCH   1   2
ATOM      2  C   UNL     1      46.726   4.643  14.269  0.00  0.00    +0.000 A 
ATOM      3  C   UNL     1      47.036   5.855  13.656  0.00  0.00    +0.000 A 
ATOM      4  C   UNL     1      46.549   6.116  12.373  0.00  0.00    +0.000 A 
ATOM      5  C   UNL     1      45.758   5.166  11.724  0.00  0.00    +0.000 A 
ATOM      6  C   UNL     1      45.505   3.983  12.410  0.00  0.00    +0.000 A 
ATOM      7  N   UNL     1      45.965   3.701  13.653  0.00  0.00    +0.000 NA
BRANCH   5   8
ATOM      8  C   UNL     1      45.200   5.396  10.349  0.00  0.00    +0.000 C 
BRANCH   8   9
ATOM      9  O   UNL     1      44.569   4.194   9.919  0.00  0.00    +0.000 OA
BRANCH   9  10
ATOM     10  C   UNL     1      44.505   4.086   8.496  0.00  0.00    +0.000 C 
BRANCH  10  11
ATOM     11  C   UNL     1      45.582   3.155   7.995  0.00  0.00    +0.000 A 
ATOM     12  C   UNL     1      45.683   1.853   8.479  0.00  0.00    +0.000 A 
ATOM     13  N   UNL     1      46.616   0.970   8.048  0.00  0.00    +0.000 NA
ATOM     14  C   UNL     1      47.455   1.439   7.101  0.00  0.00    +0.000 A 
ATOM     15  C   UNL     1      47.359   2.726   6.599  0.00  0.00    +0.000 A 
ATOM     16  N   UNL     1      46.422   3.607   7.023  0.00  0.00    +0.000 NA
ENDBRANCH  10  11
ENDBRANCH   9  10
ENDBRANCH   8   9
ENDBRANCH   5   8
ENDBRANCH   1   2
BRANCH   1  19
ATOM     17  O   UNL     1      49.766   4.394  16.903  0.00  0.00    +0.000 OA
ATOM     18  C   UNL     1      49.092   5.420  16.880  0.00  0.00    +0.000 C 
ATOM     19  N   UNL     1      47.842   5.474  16.315  0.00  0.00    +0.000 N 
ATOM     20  H   UNL     1      47.385   6.380  16.270  0.00  0.00    +0.000 HD
BRANCH  18  21
ATOM     21  C   UNL     1      49.554   6.740  17.458  0.00  0.00    +0.000 A 
ATOM     22  N   UNL     1      49.395   6.946  18.844  0.00  0.00    +0.000 NA
ATOM     23  C   UNL     1      49.783   8.103  19.299  0.00  0.00    +0.000 A 
ATOM     24  N   UNL     1      50.322   9.101  18.545  0.00  0.00    +0.000 N 
ATOM     25  C   UNL     1      50.495   8.934  17.210  0.00  0.00    +0.000 A 
ATOM     26  N   UNL     1      50.978   9.749  16.314  0.00  0.00    +0.000 NA
ATOM     27  C   UNL     1      50.900   9.036  15.125  0.00  0.00    +0.000 A 
ATOM     28  C   UNL     1      50.384   7.797  15.232  0.00  0.00    +0.000 A 
ATOM     29  C   UNL     1      50.079   7.643  16.617  0.00  0.00    +0.000 A 
ATOM     30  H   UNL     1      50.584   9.991  18.944  0.00  0.00    +0.000 HD
ENDBRANCH  18  21
ENDBRANCH   1  19
TORSDOF 7
ENDMDL
MODEL 6
REMARK VINA RESULT:    -7.070      2.941      4.413
REMARK INTER + INTRA:         -10.754
REMARK INTER:                 -10.231
REMARK INTRA:                  -0.523
REMARK UNBOUND:                -0.790
REMARK  Name = 
REMARK  7 active torsions:
REMARK  status: ('A' for Active; 'I' for Inactive)
REMARK    1  A    between atoms: C_2  and  C_20
REMARK    2  A    between atoms: N_3  and  C_4
REMARK    3  A    between atoms: C_4  and  C_5
REMARK    4  A    between atoms: C_8  and  C_9
REMARK    5  A    between atoms: C_9  and  O_10
REMARK    6  A    between atoms: O_10  and  C_11
REMARK    7  A    between atoms: C_11  and  C_12
REMARK                            x       y       z     vdW  Elec       q    Type
REMARK                         _______ _______ _______ _____ _____    ______ ____
ROOT
ATOM      1  C   UNL     1      47.684   3.340  17.453  0.00  0.00    +0.000 C 
ENDROOT
BRANCH   1   2
ATOM      2  C   UNL     1      47.582   4.189  16.204  0.00  0.00    +0.000 A 
ATOM      3  C   UNL     1      48.253   5.408  16.119  0.00  0.00    +0.000 A 
ATOM      4  C   UNL     1      48.132   6.173  14.958  0.00  0.00    +0.000 A 
ATOM      5  C   UNL     1      47.343   5.715  13.902  0.00  0.00    +0.000 A 
ATOM      6  C   UNL     1      46.715   4.485  14.073  0.00  0.00    +0.000 A 
ATOM      7  N   UNL     1      46.814   3.719  15.187  0.00  0.00    +0.000 NA
BRANCH   5   8
ATOM      8  C   UNL     1      47.169   6.500  12.634  0.00  0.00    +0.000 C 
BRANCH   8   9
ATOM      9  O   UNL     1      45.909   6.157  12.067  0.00  0.00    +0.000 OA
BRANCH   9  10
ATOM     10  C   UNL     1      45.888   6.300  10.646  0.00  0.00    +0.000 C 
BRANCH  10  11
ATOM     11  C   UNL     1      45.444   5.011   9.999  0.00  0.00    +0.000 A 
ATOM     12  C   UNL     1      44.804   4.021  10.742  0.00  0.00    +0.000 A 
ATOM     13  N   UNL     1      44.366   2.857  10.205  0.00  0.00    +0.000 NA
ATOM     14  C   UNL     1      44.590   2.714   8.883  0.00  0.00    +0.000 A 
ATOM     15  C   UNL     1      45.212   3.694   8.128  0.00  0.00    +0.000 A 
ATOM     16  N   UNL     1      45.643   4.862   8.660  0.00  0.00    +0.000 NA
ENDBRANCH  10  11
ENDBRANCH   9  10
ENDBRANCH   8   9
ENDBRANCH   5   8
ENDBRANCH   1   2
BRANCH   1  19
ATOM     17  O   UNL     1      49.416   1.734  15.906  0.00  0.00    +0.000 OA
ATOM     18  C   UNL     1      49.827   2.202  16.964  0.00  0.00    +0.000 C 
ATOM     19  N   UNL     1      49.047   2.975  17.787  0.00  0.00    +0.000 N 
ATOM     20  H   UNL     1      49.489   3.385  18.604  0.00  0.00    +0.000 HD
BRANCH  18  21
ATOM     21  C   UNL     1      51.233   1.991  17.484  0.00  0.00    +0.000 A 
ATOM     22  N   UNL     1      51.680   0.665  17.660  0.00  0.00    +0.000 NA
ATOM     23  C   UNL     1      52.886   0.526  18.131  0.00  0.00    +0.000 A 
ATOM     24  N   UNL     1      53.725   1.550  18.453  0.00  0.00    +0.000 N 
ATOM     25  C   UNL     1      53.330   2.836  18.290  0.00  0.00    +0.000 A 
ATOM     26  N   UNL     1      53.961   3.950  18.537  0.00  0.00    +0.000 NA
ATOM     27  C   UNL     1      53.056   4.942  18.182  0.00  0.00    +0.000 A 
ATOM     28  C   UNL     1      51.873   4.501  17.717  0.00  0.00    +0.000 A 
ATOM     29  C   UNL     1      51.970   3.078  17.757  0.00  0.00    +0.000 A 
ATOM     30  H   UNL     1      54.644   1.386  18.838  0.00  0.00    +0.000 HD
ENDBRANCH  18  21
ENDBRANCH   1  19
TORSDOF 7
ENDMDL
MODEL 7
REMARK VINA RESULT:    -6.812      1.730      2.458
REMARK INTER + INTRA:         -10.390
REMARK INTER:                  -9.606
REMARK INTRA:                  -0.784
REMARK UNBOUND:                -0.790
REMARK  Name = 
REMARK  7 active torsions:
REMARK  status: ('A' for Active; 'I' for Inactive)
REMARK    1  A    between atoms: C_2  and  C_20
REMARK    2  A    between atoms: N_3  and  C_4
REMARK    3  A    between atoms: C_4  and  C_5
REMARK    4  A    between atoms: C_8  and  C_9
REMARK    5  A    between atoms: C_9  and  O_10
REMARK    6  A    between atoms: O_10  and  C_11
REMARK    7  A    between atoms: C_11  and  C_12
REMARK                            x       y       z     vdW  Elec       q    Type
REMARK                         _______ _______ _______ _____ _____    ______ ____
ROOT
ATOM      1  C   UNL     1      47.964   7.273  13.564  0.00  0.00    +0.000 C 
ENDROOT
BRANCH   1   2
ATOM      2  C   UNL     1      46.852   6.278  13.307  0.00  0.00    +0.000 A 
ATOM      3  C   UNL     1      47.088   4.909  13.414  0.00  0.00    +0.000 A 
ATOM      4  C   UNL     1      46.045   4.015  13.163  0.00  0.00    +0.000 A 
ATOM      5  C   UNL     1      44.786   4.500  12.806  0.00  0.00    +0.000 A 
ATOM      6  C   UNL     1      44.642   5.881  12.729  0.00  0.00    +0.000 A 
ATOM      7  N   UNL     1      45.634   6.773  12.968  0.00  0.00    +0.000 NA
BRANCH   5   8
ATOM      8  C   UNL     1      43.631   3.585  12.515  0.00  0.00    +0.000 C 
BRANCH   8   9
ATOM      9  O   UNL     1      43.912   2.885  11.307  0.00  0.00    +0.000 OA
BRANCH   9  10
ATOM     10  C   UNL     1      43.822   3.723  10.153  0.00  0.00    +0.000 C 
BRANCH  10  11
ATOM     11  C   UNL     1      44.859   3.319   9.133  0.00  0.00    +0.000 A 
ATOM     12  C   UNL     1      45.429   4.262   8.282  0.00  0.00    +0.000 A 
ATOM     13  N   UNL     1      46.379   3.956   7.365  0.00  0.00    +0.000 NA
ATOM     14  C   UNL     1      46.745   2.658   7.329  0.00  0.00    +0.000 A 
ATOM     15  C   UNL     1      46.198   1.711   8.178  0.00  0.00    +0.000 A 
ATOM     16  N   UNL     1      45.255   2.016   9.100  0.00  0.00    +0.000 NA
ENDBRANCH  10  11
ENDBRANCH   9  10
ENDBRANCH   8   9
ENDBRANCH   5   8
ENDBRANCH   1   2
BRANCH   1  19
ATOM     17  O   UNL     1      49.683   6.253  15.559  0.00  0.00    +0.000 OA
ATOM     18  C   UNL     1      48.916   7.168  15.847  0.00  0.00    +0.000 C 
ATOM     19  N   UNL     1      48.034   7.709  14.945  0.00  0.00    +0.000 N 
ATOM     20  H   UNL     1      47.491   8.514  15.244  0.00  0.00    +0.000 HD
BRANCH  18  21
ATOM     21  C   UNL     1      48.854   7.810  17.216  0.00  0.00    +0.000 A 
ATOM     22  N   UNL     1      49.365   9.117  17.356  0.00  0.00    +0.000 NA
ATOM     23  C   UNL     1      49.314   9.624  18.555  0.00  0.00    +0.000 A 
ATOM     24  N   UNL     1      48.810   8.995  19.653  0.00  0.00    +0.000 N 
ATOM     25  C   UNL     1      48.304   7.741  19.551  0.00  0.00    +0.000 A 
ATOM     26  N   UNL     1      47.787   6.965  20.463  0.00  0.00    +0.000 NA
ATOM     27  C   UNL     1      47.454   5.805  19.774  0.00  0.00    +0.000 A 
ATOM     28  C   UNL     1      47.741   5.815  18.460  0.00  0.00    +0.000 A 
ATOM     29  C   UNL     1      48.324   7.095  18.220  0.00  0.00    +0.000 A 
ATOM     30  H   UNL     1      48.817   9.426  20.566  0.00  0.00    +0.000 HD
ENDBRANCH  18  21
ENDBRANCH   1  19
TORSDOF 7
ENDMDL
MODEL 8
REMARK VINA RESULT:    -6.478      2.386      3.056
REMARK INTER + INTRA:          -9.919
REMARK INTER:                  -9.515
REMARK INTRA:                  -0.404
REMARK UNBOUND:                -0.790
REMARK  Name = 
REMARK  7 active torsions:
REMARK  status: ('A' for Active; 'I' for Inactive)
REMARK    1  A    between atoms: C_2  and  C_20
REMARK    2  A    between atoms: N_3  and  C_4
REMARK    3  A    between atoms: C_4  and  C_5
REMARK    4  A    between atoms: C_8  and  C_9
REMARK    5  A    between atoms: C_9  and  O_10
REMARK    6  A    between atoms: O_10  and  C_11
REMARK    7  A    between atoms: C_11  and  C_12
REMARK                            x       y       z     vdW  Elec       q    Type
REMARK                         _______ _______ _______ _____ _____    ______ ____
ROOT
ATOM      1  C   UNL     1      46.048   8.123  12.939  0.00  0.00    +0.000 C 
ENDROOT
BRANCH   1   2
ATOM      2  C   UNL     1      45.516   6.806  12.414  0.00  0.00    +0.000 A 
ATOM      3  C   UNL     1      45.845   6.370  11.131  0.00  0.00    +0.000 A 
ATOM      4  C   UNL     1      45.332   5.155  10.672  0.00  0.00    +0.000 A 
ATOM      5  C   UNL     1      44.498   4.397  11.495  0.00  0.00    +0.000 A 
ATOM      6  C   UNL     1      44.230   4.907  12.760  0.00  0.00    +0.000 A 
ATOM      7  N   UNL     1      44.713   6.081  13.235  0.00  0.00    +0.000 NA
BRANCH   5   8
ATOM      8  C   UNL     1      43.911   3.088  11.050  0.00  0.00    +0.000 C 
BRANCH   8   9
ATOM      9  O   UNL     1      44.812   2.490  10.123  0.00  0.00    +0.000 OA
BRANCH   9  10
ATOM     10  C   UNL     1      44.486   2.795   8.766  0.00  0.00    +0.000 C 
BRANCH  10  11
ATOM     11  C   UNL     1      45.688   2.576   7.879  0.00  0.00    +0.000 A 
ATOM     12  C   UNL     1      46.422   1.395   7.950  0.00  0.00    +0.000 A 
ATOM     13  N   UNL     1      47.494   1.138   7.162  0.00  0.00    +0.000 NA
ATOM     14  C   UNL     1      47.811   2.116   6.288  0.00  0.00    +0.000 A 
ATOM     15  C   UNL     1      47.083   3.290   6.195  0.00  0.00    +0.000 A 
ATOM     16  N   UNL     1      46.006   3.544   6.976  0.00  0.00    +0.000 NA
ENDBRANCH  10  11
ENDBRANCH   9  10
ENDBRANCH   8   9
ENDBRANCH   5   8
ENDBRANCH   1   2
BRANCH   1  19
ATOM     17  O   UNL     1      48.803   7.593  12.624  0.00  0.00    +0.000 OA
ATOM     18  C   UNL     1      48.349   7.725  13.757  0.00  0.00    +0.000 C 
ATOM     19  N   UNL     1      47.020   7.964  14.001  0.00  0.00    +0.000 N 
ATOM     20  H   UNL     1      46.743   8.138  14.963  0.00  0.00    +0.000 HD
BRANCH  18  21
ATOM     21  C   UNL     1      49.192   7.648  15.012  0.00  0.00    +0.000 A 
ATOM     22  N   UNL     1      49.518   6.370  15.511  0.00  0.00    +0.000 NA
ATOM     23  C   UNL     1      50.225   6.346  16.605  0.00  0.00    +0.000 A 
ATOM     24  N   UNL     1      50.663   7.446  17.280  0.00  0.00    +0.000 N 
ATOM     25  C   UNL     1      50.374   8.690  16.823  0.00  0.00    +0.000 A 
ATOM     26  N   UNL     1      50.683   9.859  17.310  0.00  0.00    +0.000 NA
ATOM     27  C   UNL     1      50.110  10.761  16.422  0.00  0.00    +0.000 A 
ATOM     28  C   UNL     1      49.448  10.208  15.389  0.00  0.00    +0.000 A 
ATOM     29  C   UNL     1      49.574   8.801  15.582  0.00  0.00    +0.000 A 
ATOM     30  H   UNL     1      51.189   7.372  18.139  0.00  0.00    +0.000 HD
ENDBRANCH  18  21
ENDBRANCH   1  19
TORSDOF 7
ENDMDL
MODEL 9
REMARK VINA RESULT:    -6.317      3.626      9.565
REMARK INTER + INTRA:          -9.693
REMARK INTER:                  -8.955
REMARK INTRA:                  -0.738
REMARK UNBOUND:                -0.790
REMARK  Name = 
REMARK  7 active torsions:
REMARK  status: ('A' for Active; 'I' for Inactive)
REMARK    1  A    between atoms: C_2  and  C_20
REMARK    2  A    between atoms: N_3  and  C_4
REMARK    3  A    between atoms: C_4  and  C_5
REMARK    4  A    between atoms: C_8  and  C_9
REMARK    5  A    between atoms: C_9  and  O_10
REMARK    6  A    between atoms: O_10  and  C_11
REMARK    7  A    between atoms: C_11  and  C_12
REMARK                            x       y       z     vdW  Elec       q    Type
REMARK                         _______ _______ _______ _____ _____    ______ ____
ROOT
ATOM      1  C   UNL     1      47.083   4.097  16.530  0.00  0.00    +0.000 C 
ENDROOT
BRANCH   1   2
ATOM      2  C   UNL     1      48.510   4.433  16.910  0.00  0.00    +0.000 A 
ATOM      3  C   UNL     1      49.025   5.706  16.672  0.00  0.00    +0.000 A 
ATOM      4  C   UNL     1      50.347   5.984  17.026  0.00  0.00    +0.000 A 
ATOM      5  C   UNL     1      51.135   4.989  17.607  0.00  0.00    +0.000 A 
ATOM      6  C   UNL     1      50.535   3.751  17.812  0.00  0.00    +0.000 A 
ATOM      7  N   UNL     1      49.255   3.452  17.482  0.00  0.00    +0.000 NA
BRANCH   5   8
ATOM      8  C   UNL     1      52.565   5.228  17.999  0.00  0.00    +0.000 C 
BRANCH   8   9
ATOM      9  O   UNL     1      53.342   4.129  17.535  0.00  0.00    +0.000 OA
BRANCH   9  10
ATOM     10  C   UNL     1      54.301   3.689  18.499  0.00  0.00    +0.000 C 
BRANCH  10  11
ATOM     11  C   UNL     1      54.320   2.182  18.566  0.00  0.00    +0.000 A 
ATOM     12  C   UNL     1      53.203   1.436  18.198  0.00  0.00    +0.000 A 
ATOM     13  N   UNL     1      53.174   0.081  18.219  0.00  0.00    +0.000 NA
ATOM     14  C   UNL     1      54.317  -0.510  18.624  0.00  0.00    +0.000 A 
ATOM     15  C   UNL     1      55.440   0.216  18.980  0.00  0.00    +0.000 A 
ATOM     16  N   UNL     1      55.473   1.570  18.952  0.00  0.00    +0.000 NA
ENDBRANCH  10  11
ENDBRANCH   9  10
ENDBRANCH   8   9
ENDBRANCH   5   8
ENDBRANCH   1   2
BRANCH   1  19
ATOM     17  O   UNL     1      47.313   2.934  13.967  0.00  0.00    +0.000 OA
ATOM     18  C   UNL     1      46.803   4.047  14.072  0.00  0.00    +0.000 C 
ATOM     19  N   UNL     1      46.671   4.693  15.275  0.00  0.00    +0.000 N 
ATOM     20  H   UNL     1      46.168   5.576  15.281  0.00  0.00    +0.000 HD
BRANCH  18  21
ATOM     21  C   UNL     1      46.258   4.831  12.898  0.00  0.00    +0.000 A 
ATOM     22  N   UNL     1      46.911   6.031  12.545  0.00  0.00    +0.000 NA
ATOM     23  C   UNL     1      46.397   6.688  11.545  0.00  0.00    +0.000 A 
ATOM     24  N   UNL     1      45.301   6.303  10.833  0.00  0.00    +0.000 N 
ATOM     25  C   UNL     1      44.654   5.152  11.141  0.00  0.00    +0.000 A 
ATOM     26  N   UNL     1      43.599   4.608  10.602  0.00  0.00    +0.000 NA
ATOM     27  C   UNL     1      43.398   3.448  11.339  0.00  0.00    +0.000 A 
ATOM     28  C   UNL     1      44.287   3.234  12.327  0.00  0.00    +0.000 A 
ATOM     29  C   UNL     1      45.178   4.346  12.266  0.00  0.00    +0.000 A 
ATOM     30  H   UNL     1      44.929   6.864  10.080  0.00  0.00    +0.000 HD
ENDBRANCH  18  21
ENDBRANCH   1  19
TORSDOF 7
ENDMDL
