MODEL 1
REMARK VINA RESULT:    -7.847      0.000      0.000
REMARK INTER + INTRA:         -12.135
REMARK INTER:                 -11.287
REMARK INTRA:                  -0.848
REMARK UNBOUND:                -0.848
REMARK  Name = 
REMARK  9 active torsions:
REMARK  status: ('A' for Active; 'I' for Inactive)
REMARK    1  A    between atoms: C_1  and  C_2
REMARK    2  A    between atoms: C_2  and  N_3
REMARK    3  A    between atoms: C_2  and  C_19
REMARK    4  A    between atoms: N_3  and  C_4
REMARK    5  A    between atoms: C_4  and  C_5
REMARK    6  A    between atoms: C_8  and  C_9
REMARK    7  A    between atoms: C_9  and  O_10
REMARK    8  A    between atoms: C_9  and  C_11
REMARK    9  A    between atoms: C_11  and  N_12
REMARK                            x       y       z     vdW  Elec       q    Type
REMARK                         _______ _______ _______ _____ _____    ______ ____
ROOT
ATOM      1  C   UNL     1      47.784   5.697  14.845  0.00  0.00    +0.000 C 
ENDROOT
BRANCH   1   2
ATOM      2  C   UNL     1      46.823   5.109  13.846  0.00  0.00    +0.000 A 
ATOM      3  C   UNL     1      46.647   3.731  13.769  0.00  0.00    +0.000 A 
ATOM      4  N   UNL     1      45.815   3.141  12.876  0.00  0.00    +0.000 NA
ATOM      5  C   UNL     1      45.148   3.987  12.043  0.00  0.00    +0.000 A 
ATOM      6  C   UNL     1      45.340   5.361  12.112  0.00  0.00    +0.000 A 
ATOM      7  N   UNL     1      46.175   5.947  12.997  0.00  0.00    +0.000 NA
BRANCH   5   8
ATOM      8  C   UNL     1      44.197   3.400  11.007  0.00  0.00    +0.000 C 
BRANCH   8   9
ATOM      9  O   UNL     1      42.862   3.450  11.524  0.00  0.00    +0.000 OA
ATOM     10  H   UNL     1      42.834   4.217  12.123  0.00  0.00    +0.000 HD
ENDBRANCH   8   9
BRANCH   8  11
ATOM     11  C   UNL     1      44.320   4.147   9.643  0.00  0.00    +0.000 C 
BRANCH  11  12
ATOM     12  N   UNL     1      44.482   3.304   8.438  0.00  0.00    +0.000 NA
ATOM     13  C   UNL     1      44.620   1.868   8.697  0.00  0.00    +0.000 C 
ATOM     14  C   UNL     1      46.075   1.516   8.442  0.00  0.00    +0.000 C 
ATOM     15  C   UNL     1      46.488   2.490   7.362  0.00  0.00    +0.000 C 
ATOM     16  C   UNL     1      45.626   3.721   7.610  0.00  0.00    +0.000 C 
ENDBRANCH  11  12
ENDBRANCH   8  11
ENDBRANCH   5   8
ENDBRANCH   1   2
BRANCH   1  17
ATOM     17  N   UNL     1      48.469   4.677  15.652  0.00  0.00    +0.000 NA
ATOM     18  H   UNL     1      49.454   4.650  15.411  0.00  0.00    +0.000 HD
BRANCH  17  20
ATOM     19  C   UNL     1      47.120   4.019  17.584  0.00  0.00    +0.000 C 
ATOM     20  C   UNL     1      48.309   4.875  17.099  0.00  0.00    +0.000 C 
BRANCH  20  21
ATOM     21  C   UNL     1      49.633   4.477  17.759  0.00  0.00    +0.000 A 
ATOM     22  C   UNL     1      50.270   5.286  18.688  0.00  0.00    +0.000 A 
ATOM     23  S   UNL     1      51.770   4.687  19.218  0.00  0.00    +0.000 S 
ATOM     24  C   UNL     1      51.620   3.299  18.270  0.00  0.00    +0.000 A 
ATOM     25  N   UNL     1      52.612   2.358  18.253  0.00  0.00    +0.000 NA
ATOM     26  C   UNL     1      52.384   1.344  17.499  0.00  0.00    +0.000 A 
ATOM     27  N   UNL     1      51.228   1.158  16.773  0.00  0.00    +0.000 N 
ATOM     28  C   UNL     1      50.170   2.035  16.810  0.00  0.00    +0.000 A 
ATOM     29  O   UNL     1      49.101   1.775  16.262  0.00  0.00    +0.000 OA
ATOM     30  C   UNL     1      50.413   3.258  17.579  0.00  0.00    +0.000 A 
ATOM     31  H   UNL     1      51.102   0.309  16.243  0.00  0.00    +0.000 HD
ENDBRANCH  20  21
ENDBRANCH  17  20
ENDBRANCH   1  17
TORSDOF 8
ENDMDL
MODEL 2
REMARK VINA RESULT:    -7.408      2.135      3.135
REMARK INTER + INTRA:         -11.504
REMARK INTER:                 -10.553
REMARK INTRA:                  -0.950
REMARK UNBOUND:                -0.848
REMARK  Name = 
REMARK  9 active torsions:
REMARK  status: ('A' for Active; 'I' for Inactive)
REMARK    1  A    between atoms: C_1  and  C_2
REMARK    2  A    between atoms: C_2  and  N_3
REMARK    3  A    between atoms: C_2  and  C_19
REMARK    4  A    between atoms: N_3  and  C_4
REMARK    5  A    between atoms: C_4  and  C_5
REMARK    6  A    between atoms: C_8  and  C_9
REMARK    7  A    between atoms: C_9  and  O_10
REMARK    8  A    between atoms: C_9  and  C_11
REMARK    9  A    between atoms: C_11  and  N_12
REMARK                            x       y       z     vdW  Elec       q    Type
REMARK                         _______ _______ _______ _____ _____    ______ ____
ROOT
ATOM      1  C   UNL     1      47.570   4.666  15.359  0.00  0.00    +0.000 C 
ENDROOT
BRANCH   1   2
ATOM      2  C   UNL     1      46.767   4.624  14.086  0.00  0.00    +0.000 A 
ATOM      3  C   UNL     1      46.403   5.804  13.446  0.00  0.00    +0.000 A 
ATOM      4  N   UNL     1      45.661   5.832  12.312  0.00  0.00    +0.000 NA
ATOM      5  C   UNL     1      45.286   4.617  11.823  0.00  0.00    +0.000 A 
ATOM      6  C   UNL     1      45.638   3.442  12.474  0.00  0.00    +0.000 A 
ATOM      7  N   UNL     1      46.370   3.417  13.609  0.00  0.00    +0.000 NA
BRANCH   5   8
ATOM      8  C   UNL     1      44.446   4.566  10.553  0.00  0.00    +0.000 C 
BRANCH   8   9
ATOM      9  O   UNL     1      43.417   5.559  10.637  0.00  0.00    +0.000 OA
ATOM     10  H   UNL     1      43.245   5.844   9.722  0.00  0.00    +0.000 HD
ENDBRANCH   8   9
BRANCH   8  11
ATOM     11  C   UNL     1      45.334   4.755   9.284  0.00  0.00    +0.000 C 
BRANCH  11  12
ATOM     12  N   UNL     1      45.141   3.779   8.189  0.00  0.00    +0.000 NA
ATOM     13  C   UNL     1      44.797   2.421   8.618  0.00  0.00    +0.000 C 
ATOM     14  C   UNL     1      46.031   1.566   8.398  0.00  0.00    +0.000 C 
ATOM     15  C   UNL     1      46.698   2.212   7.205  0.00  0.00    +0.000 C 
ATOM     16  C   UNL     1      46.318   3.683   7.308  0.00  0.00    +0.000 C 
ENDBRANCH  11  12
ENDBRANCH   8  11
ENDBRANCH   5   8
ENDBRANCH   1   2
BRANCH   1  17
ATOM     17  N   UNL     1      46.935   3.929  16.462  0.00  0.00    +0.000 NA
ATOM     18  H   UNL     1      46.186   3.347  16.102  0.00  0.00    +0.000 HD
BRANCH  17  20
ATOM     19  C   UNL     1      48.557   2.106  16.283  0.00  0.00    +0.000 C 
ATOM     20  C   UNL     1      47.879   3.112  17.237  0.00  0.00    +0.000 C 
BRANCH  20  21
ATOM     21  C   UNL     1      48.877   4.072  17.891  0.00  0.00    +0.000 A 
ATOM     22  C   UNL     1      50.245   3.978  17.677  0.00  0.00    +0.000 A 
ATOM     23  S   UNL     1      51.166   5.089  18.576  0.00  0.00    +0.000 S 
ATOM     24  C   UNL     1      49.785   5.778  19.257  0.00  0.00    +0.000 A 
ATOM     25  N   UNL     1      49.890   6.798  20.160  0.00  0.00    +0.000 NA
ATOM     26  C   UNL     1      48.772   7.244  20.607  0.00  0.00    +0.000 A 
ATOM     27  N   UNL     1      47.536   6.786  20.207  0.00  0.00    +0.000 N 
ATOM     28  C   UNL     1      47.370   5.813  19.249  0.00  0.00    +0.000 A 
ATOM     29  O   UNL     1      46.258   5.523  18.814  0.00  0.00    +0.000 OA
ATOM     30  C   UNL     1      48.613   5.201  18.776  0.00  0.00    +0.000 A 
ATOM     31  H   UNL     1      46.701   7.223  20.566  0.00  0.00    +0.000 HD
ENDBRANCH  20  21
ENDBRANCH  17  20
ENDBRANCH   1  17
TORSDOF 8
ENDMDL
MODEL 3
REMARK VINA RESULT:    -7.365      1.129      1.436
REMARK INTER + INTRA:         -11.442
REMARK INTER:                 -10.611
REMARK INTRA:                  -0.830
REMARK UNBOUND:                -0.848
REMARK  Name = 
REMARK  9 active torsions:
REMARK  status: ('A' for Active; 'I' for Inactive)
REMARK    1  A    between atoms: C_1  and  C_2
REMARK    2  A    between atoms: C_2  and  N_3
REMARK    3  A    between atoms: C_2  and  C_19
REMARK    4  A    between atoms: N_3  and  C_4
REMARK    5  A    between atoms: C_4  and  C_5
REMARK    6  A    between atoms: C_8  and  C_9
REMARK    7  A    between atoms: C_9  and  O_10
REMARK    8  A    between atoms: C_9  and  C_11
REMARK    9  A    between atoms: C_11  and  N_12
REMARK                            x       y       z     vdW  Elec       q    Type
REMARK                         _______ _______ _______ _____ _____    ______ ____
ROOT
ATOM      1  C   UNL     1      48.339   6.263  14.802  0.00  0.00    +0.000 C 
ENDROOT
BRANCH   1   2
ATOM      2  C   UNL     1      47.058   5.921  14.089  0.00  0.00    +0.000 A 
ATOM      3  C   UNL     1      46.501   4.653  14.212  0.00  0.00    +0.000 A 
ATOM      4  N   UNL     1      45.364   4.278  13.576  0.00  0.00    +0.000 NA
ATOM      5  C   UNL     1      44.784   5.232  12.795  0.00  0.00    +0.000 A 
ATOM      6  C   UNL     1      45.352   6.492  12.662  0.00  0.00    +0.000 A 
ATOM      7  N   UNL     1      46.490   6.860  13.290  0.00  0.00    +0.000 NA
BRANCH   5   8
ATOM      8  C   UNL     1      43.505   4.886  12.044  0.00  0.00    +0.000 C 
BRANCH   8   9
ATOM      9  O   UNL     1      42.499   5.852  12.373  0.00  0.00    +0.000 OA
ATOM     10  H   UNL     1      42.958   6.560  12.860  0.00  0.00    +0.000 HD
ENDBRANCH   8   9
BRANCH   8  11
ATOM     11  C   UNL     1      43.759   4.813  10.506  0.00  0.00    +0.000 C 
BRANCH  11  12
ATOM     12  N   UNL     1      45.004   4.143  10.071  0.00  0.00    +0.000 NA
ATOM     13  C   UNL     1      45.498   4.542   8.750  0.00  0.00    +0.000 C 
ATOM     14  C   UNL     1      45.220   3.382   7.811  0.00  0.00    +0.000 C 
ATOM     15  C   UNL     1      45.321   2.170   8.710  0.00  0.00    +0.000 C 
ATOM     16  C   UNL     1      44.886   2.675  10.079  0.00  0.00    +0.000 C 
ENDBRANCH  11  12
ENDBRANCH   8  11
ENDBRANCH   5   8
ENDBRANCH   1   2
BRANCH   1  17
ATOM     17  N   UNL     1      48.737   5.244  15.785  0.00  0.00    +0.000 NA
ATOM     18  H   UNL     1      49.555   4.745  15.452  0.00  0.00    +0.000 HD
BRANCH  17  20
ATOM     19  C   UNL     1      47.743   5.553  17.999  0.00  0.00    +0.000 C 
ATOM     20  C   UNL     1      48.992   5.793  17.123  0.00  0.00    +0.000 C 
BRANCH  20  21
ATOM     21  C   UNL     1      50.241   5.095  17.669  0.00  0.00    +0.000 A 
ATOM     22  C   UNL     1      51.203   5.769  18.406  0.00  0.00    +0.000 A 
ATOM     23  S   UNL     1      52.547   4.816  18.829  0.00  0.00    +0.000 S 
ATOM     24  C   UNL     1      51.888   3.450  18.090  0.00  0.00    +0.000 A 
ATOM     25  N   UNL     1      52.574   2.267  18.077  0.00  0.00    +0.000 NA
ATOM     26  C   UNL     1      51.972   1.297  17.491  0.00  0.00    +0.000 A 
ATOM     27  N   UNL     1      50.714   1.385  16.935  0.00  0.00    +0.000 N 
ATOM     28  C   UNL     1      49.950   2.527  16.983  0.00  0.00    +0.000 A 
ATOM     29  O   UNL     1      48.782   2.535  16.601  0.00  0.00    +0.000 OA
ATOM     30  C   UNL     1      50.627   3.693  17.556  0.00  0.00    +0.000 A 
ATOM     31  H   UNL     1      50.286   0.563  16.535  0.00  0.00    +0.000 HD
ENDBRANCH  20  21
ENDBRANCH  17  20
ENDBRANCH   1  17
TORSDOF 8
ENDMDL
MODEL 4
REMARK VINA RESULT:    -7.175      2.501      3.443
REMARK INTER + INTRA:         -11.169
REMARK INTER:                 -10.055
REMARK INTRA:                  -1.114
REMARK UNBOUND:                -0.848
REMARK  Name = 
REMARK  9 active torsions:
REMARK  status: ('A' for Active; 'I' for Inactive)
REMARK    1  A    between atoms: C_1  and  C_2
REMARK    2  A    between atoms: C_2  and  N_3
REMARK    3  A    between atoms: C_2  and  C_19
REMARK    4  A    between atoms: N_3  and  C_4
REMARK    5  A    between atoms: C_4  and  C_5
REMARK    6  A    between atoms: C_8  and  C_9
REMARK    7  A    between atoms: C_9  and  O_10
REMARK    8  A    between atoms: C_9  and  C_11
REMARK    9  A    between atoms: C_11  and  N_12
REMARK                            x       y       z     vdW  Elec       q    Type
REMARK                         _______ _______ _______ _____ _____    ______ ____
ROOT
ATOM      1  C   UNL     1      49.024   7.140  13.786  0.00  0.00    +0.000 C 
ENDROOT
BRANCH   1   2
ATOM      2  C   UNL     1      47.676   6.519  13.535  0.00  0.00    +0.000 A 
ATOM      3  C   UNL     1      46.647   7.273  12.980  0.00  0.00    +0.000 A 
ATOM      4  N   UNL     1      45.406   6.778  12.753  0.00  0.00    +0.000 NA
ATOM      5  C   UNL     1      45.218   5.475  13.104  0.00  0.00    +0.000 A 
ATOM      6  C   UNL     1      46.243   4.731  13.673  0.00  0.00    +0.000 A 
ATOM      7  N   UNL     1      47.477   5.229  13.906  0.00  0.00    +0.000 NA
BRANCH   5   8
ATOM      8  C   UNL     1      43.848   4.846  12.884  0.00  0.00    +0.000 C 
BRANCH   8   9
ATOM      9  O   UNL     1      42.846   5.726  13.408  0.00  0.00    +0.000 OA
ATOM     10  H   UNL     1      42.652   5.405  14.308  0.00  0.00    +0.000 HD
ENDBRANCH   8   9
BRANCH   8  11
ATOM     11  C   UNL     1      43.610   4.530  11.375  0.00  0.00    +0.000 C 
BRANCH  11  12
ATOM     12  N   UNL     1      44.733   3.901  10.645  0.00  0.00    +0.000 NA
ATOM     13  C   UNL     1      45.231   4.659   9.493  0.00  0.00    +0.000 C 
ATOM     14  C   UNL     1      44.759   3.927   8.251  0.00  0.00    +0.000 C 
ATOM     15  C   UNL     1      44.721   2.480   8.688  0.00  0.00    +0.000 C 
ATOM     16  C   UNL     1      44.409   2.542  10.177  0.00  0.00    +0.000 C 
ENDBRANCH  11  12
ENDBRANCH   8  11
ENDBRANCH   5   8
ENDBRANCH   1   2
BRANCH   1  17
ATOM     17  N   UNL     1      49.753   6.502  14.892  0.00  0.00    +0.000 NA
ATOM     18  H   UNL     1      50.527   5.957  14.527  0.00  0.00    +0.000 HD
BRANCH  17  20
ATOM     19  C   UNL     1      50.172   8.877  15.300  0.00  0.00    +0.000 C 
ATOM     20  C   UNL     1      50.239   7.456  15.898  0.00  0.00    +0.000 C 
BRANCH  20  21
ATOM     21  C   UNL     1      49.356   7.294  17.139  0.00  0.00    +0.000 A 
ATOM     22  C   UNL     1      48.500   8.294  17.574  0.00  0.00    +0.000 A 
ATOM     23  S   UNL     1      47.687   7.931  19.023  0.00  0.00    +0.000 S 
ATOM     24  C   UNL     1      48.402   6.405  19.113  0.00  0.00    +0.000 A 
ATOM     25  N   UNL     1      48.134   5.573  20.164  0.00  0.00    +0.000 NA
ATOM     26  C   UNL     1      48.732   4.438  20.123  0.00  0.00    +0.000 A 
ATOM     27  N   UNL     1      49.561   4.032  19.100  0.00  0.00    +0.000 N 
ATOM     28  C   UNL     1      49.809   4.798  17.985  0.00  0.00    +0.000 A 
ATOM     29  O   UNL     1      50.440   4.355  17.029  0.00  0.00    +0.000 OA
ATOM     30  C   UNL     1      49.228   6.142  18.025  0.00  0.00    +0.000 A 
ATOM     31  H   UNL     1      49.955   3.103  19.114  0.00  0.00    +0.000 HD
ENDBRANCH  20  21
ENDBRANCH  17  20
ENDBRANCH   1  17
TORSDOF 8
ENDMDL
MODEL 5
REMARK VINA RESULT:    -6.959      1.392      1.864
REMARK INTER + INTRA:         -10.858
REMARK INTER:                 -10.069
REMARK INTRA:                  -0.789
REMARK UNBOUND:                -0.848
REMARK  Name = 
REMARK  9 active torsions:
REMARK  status: ('A' for Active; 'I' for Inactive)
REMARK    1  A    between atoms: C_1  and  C_2
REMARK    2  A    between atoms: C_2  and  N_3
REMARK    3  A    between atoms: C_2  and  C_19
REMARK    4  A    between atoms: N_3  and  C_4
REMARK    5  A    between atoms: C_4  and  C_5
REMARK    6  A    between atoms: C_8  and  C_9
REMARK    7  A    between atoms: C_9  and  O_10
REMARK    8  A    between atoms: C_9  and  C_11
REMARK    9  A    between atoms: C_11  and  N_12
REMARK                            x       y       z     vdW  Elec       q    Type
REMARK                         _______ _______ _______ _____ _____    ______ ____
ROOT
ATOM      1  C   UNL     1      48.887   6.677  15.259  0.00  0.00    +0.000 C 
ENDROOT
BRANCH   1   2
ATOM      2  C   UNL     1      47.915   6.453  14.131  0.00  0.00    +0.000 A 
ATOM      3  C   UNL     1      47.373   7.536  13.446  0.00  0.00    +0.000 A 
ATOM      4  N   UNL     1      46.475   7.400  12.438  0.00  0.00    +0.000 NA
ATOM      5  C   UNL     1      46.129   6.120  12.127  0.00  0.00    +0.000 A 
ATOM      6  C   UNL     1      46.660   5.043  12.824  0.00  0.00    +0.000 A 
ATOM      7  N   UNL     1      47.547   5.181  13.833  0.00  0.00    +0.000 NA
BRANCH   5   8
ATOM      8  C   UNL     1      45.121   5.885  11.008  0.00  0.00    +0.000 C 
BRANCH   8   9
ATOM      9  O   UNL     1      44.290   7.045  10.882  0.00  0.00    +0.000 OA
ATOM     10  H   UNL     1      44.378   7.338   9.957  0.00  0.00    +0.000 HD
ENDBRANCH   8   9
BRANCH   8  11
ATOM     11  C   UNL     1      45.840   5.537   9.668  0.00  0.00    +0.000 C 
BRANCH  11  12
ATOM     12  N   UNL     1      45.151   4.580   8.775  0.00  0.00    +0.000 NA
ATOM     13  C   UNL     1      44.364   3.548   9.456  0.00  0.00    +0.000 C 
ATOM     14  C   UNL     1      45.133   2.248   9.318  0.00  0.00    +0.000 C 
ATOM     15  C   UNL     1      45.845   2.400   7.993  0.00  0.00    +0.000 C 
ATOM     16  C   UNL     1      46.080   3.898   7.857  0.00  0.00    +0.000 C 
ENDBRANCH  11  12
ENDBRANCH   8  11
ENDBRANCH   5   8
ENDBRANCH   1   2
BRANCH   1  17
ATOM     17  N   UNL     1      49.108   5.472  16.072  0.00  0.00    +0.000 NA
ATOM     18  H   UNL     1      49.922   4.971  15.732  0.00  0.00    +0.000 HD
BRANCH  17  20
ATOM     19  C   UNL     1      47.948   5.347  18.222  0.00  0.00    +0.000 C 
ATOM     20  C   UNL     1      49.253   5.755  17.506  0.00  0.00    +0.000 C 
BRANCH  20  21
ATOM     21  C   UNL     1      50.471   4.970  18.002  0.00  0.00    +0.000 A 
ATOM     22  C   UNL     1      51.436   5.539  18.819  0.00  0.00    +0.000 A 
ATOM     23  S   UNL     1      52.743   4.510  19.170  0.00  0.00    +0.000 S 
ATOM     24  C   UNL     1      52.062   3.243  18.287  0.00  0.00    +0.000 A 
ATOM     25  N   UNL     1      52.716   2.049  18.170  0.00  0.00    +0.000 NA
ATOM     26  C   UNL     1      52.099   1.159  17.479  0.00  0.00    +0.000 A 
ATOM     27  N   UNL     1      50.857   1.338  16.912  0.00  0.00    +0.000 N 
ATOM     28  C   UNL     1      50.123   2.492  17.059  0.00  0.00    +0.000 A 
ATOM     29  O   UNL     1      48.964   2.572  16.660  0.00  0.00    +0.000 OA
ATOM     30  C   UNL     1      50.820   3.575  17.757  0.00  0.00    +0.000 A 
ATOM     31  H   UNL     1      50.414   0.573  16.426  0.00  0.00    +0.000 HD
ENDBRANCH  20  21
ENDBRANCH  17  20
ENDBRANCH   1  17
TORSDOF 8
ENDMDL
MODEL 6
REMARK VINA RESULT:    -6.725      2.926      4.150
REMARK INTER + INTRA:         -10.521
REMARK INTER:                  -9.681
REMARK INTRA:                  -0.840
REMARK UNBOUND:                -0.848
REMARK  Name = 
REMARK  9 active torsions:
REMARK  status: ('A' for Active; 'I' for Inactive)
REMARK    1  A    between atoms: C_1  and  C_2
REMARK    2  A    between atoms: C_2  and  N_3
REMARK    3  A    between atoms: C_2  and  C_19
REMARK    4  A    between atoms: N_3  and  C_4
REMARK    5  A    between atoms: C_4  and  C_5
REMARK    6  A    between atoms: C_8  and  C_9
REMARK    7  A    between atoms: C_9  and  O_10
REMARK    8  A    between atoms: C_9  and  C_11
REMARK    9  A    between atoms: C_11  and  N_12
REMARK                            x       y       z     vdW  Elec       q    Type
REMARK                         _______ _______ _______ _____ _____    ______ ____
ROOT
ATOM      1  C   UNL     1      45.837   7.537  12.905  0.00  0.00    +0.000 C 
ENDROOT
BRANCH   1   2
ATOM      2  C   UNL     1      45.581   6.216  12.231  0.00  0.00    +0.000 A 
ATOM      3  C   UNL     1      45.489   6.141  10.845  0.00  0.00    +0.000 A 
ATOM      4  N   UNL     1      45.236   4.986  10.181  0.00  0.00    +0.000 NA
ATOM      5  C   UNL     1      45.076   3.881  10.962  0.00  0.00    +0.000 A 
ATOM      6  C   UNL     1      45.152   3.964  12.346  0.00  0.00    +0.000 A 
ATOM      7  N   UNL     1      45.396   5.117  13.005  0.00  0.00    +0.000 NA
BRANCH   5   8
ATOM      8  C   UNL     1      44.784   2.545  10.291  0.00  0.00    +0.000 C 
BRANCH   8   9
ATOM      9  O   UNL     1      43.463   2.124  10.652  0.00  0.00    +0.000 OA
ATOM     10  H   UNL     1      42.934   2.171   9.836  0.00  0.00    +0.000 HD
ENDBRANCH   8   9
BRANCH   8  11
ATOM     11  C   UNL     1      44.959   2.643   8.743  0.00  0.00    +0.000 C 
BRANCH  11  12
ATOM     12  N   UNL     1      46.347   2.636   8.232  0.00  0.00    +0.000 NA
ATOM     13  C   UNL     1      46.633   3.630   7.194  0.00  0.00    +0.000 C 
ATOM     14  C   UNL     1      46.750   2.874   5.884  0.00  0.00    +0.000 C 
ATOM     15  C   UNL     1      47.293   1.526   6.303  0.00  0.00    +0.000 C 
ATOM     16  C   UNL     1      46.747   1.318   7.709  0.00  0.00    +0.000 C 
ENDBRANCH  11  12
ENDBRANCH   8  11
ENDBRANCH   5   8
ENDBRANCH   1   2
BRANCH   1  17
ATOM     17  N   UNL     1      47.054   8.204  12.417  0.00  0.00    +0.000 NA
ATOM     18  H   UNL     1      47.060   9.173  12.716  0.00  0.00    +0.000 HD
BRANCH  17  20
ATOM     19  C   UNL     1      49.397   7.851  11.807  0.00  0.00    +0.000 C 
ATOM     20  C   UNL     1      48.293   7.538  12.840  0.00  0.00    +0.000 C 
BRANCH  20  21
ATOM     21  C   UNL     1      48.630   8.056  14.241  0.00  0.00    +0.000 A 
ATOM     22  C   UNL     1      48.857   9.400  14.499  0.00  0.00    +0.000 A 
ATOM     23  S   UNL     1      49.304   9.732  16.105  0.00  0.00    +0.000 S 
ATOM     24  C   UNL     1      49.171   8.108  16.544  0.00  0.00    +0.000 A 
ATOM     25  N   UNL     1      49.451   7.707  17.820  0.00  0.00    +0.000 NA
ATOM     26  C   UNL     1      49.311   6.450  18.036  0.00  0.00    +0.000 A 
ATOM     27  N   UNL     1      48.877   5.542  17.095  0.00  0.00    +0.000 N 
ATOM     28  C   UNL     1      48.512   5.901  15.819  0.00  0.00    +0.000 A 
ATOM     29  O   UNL     1      48.001   5.094  15.047  0.00  0.00    +0.000 OA
ATOM     30  C   UNL     1      48.745   7.309  15.488  0.00  0.00    +0.000 A 
ATOM     31  H   UNL     1      48.743   4.577  17.356  0.00  0.00    +0.000 HD
ENDBRANCH  20  21
ENDBRANCH  17  20
ENDBRANCH   1  17
TORSDOF 8
ENDMDL
MODEL 7
REMARK VINA RESULT:    -6.417      3.069      8.335
REMARK INTER + INTRA:         -10.078
REMARK INTER:                  -9.554
REMARK INTRA:                  -0.525
REMARK UNBOUND:                -0.848
REMARK  Name = 
REMARK  9 active torsions:
REMARK  status: ('A' for Active; 'I' for Inactive)
REMARK    1  A    between atoms: C_1  and  C_2
REMARK    2  A    between atoms: C_2  and  N_3
REMARK    3  A    between atoms: C_2  and  C_19
REMARK    4  A    between atoms: N_3  and  C_4
REMARK    5  A    between atoms: C_4  and  C_5
REMARK    6  A    between atoms: C_8  and  C_9
REMARK    7  A    between atoms: C_9  and  O_10
REMARK    8  A    between atoms: C_9  and  C_11
REMARK    9  A    between atoms: C_11  and  N_12
REMARK                            x       y       z     vdW  Elec       q    Type
REMARK                         _______ _______ _______ _____ _____    ______ ____
ROOT
ATOM      1  C   UNL     1      48.041   6.256  12.578  0.00  0.00    +0.000 C 
ENDROOT
BRANCH   1   2
ATOM      2  C   UNL     1      48.079   5.883  14.036  0.00  0.00    +0.000 A 
ATOM      3  C   UNL     1      47.357   4.788  14.500  0.00  0.00    +0.000 A 
ATOM      4  N   UNL     1      47.332   4.416  15.804  0.00  0.00    +0.000 NA
ATOM      5  C   UNL     1      48.068   5.189  16.651  0.00  0.00    +0.000 A 
ATOM      6  C   UNL     1      48.774   6.291  16.186  0.00  0.00    +0.000 A 
ATOM      7  N   UNL     1      48.791   6.664  14.888  0.00  0.00    +0.000 NA
BRANCH   5   8
ATOM      8  C   UNL     1      48.088   4.839  18.134  0.00  0.00    +0.000 C 
BRANCH   8   9
ATOM      9  O   UNL     1      46.744   4.603  18.571  0.00  0.00    +0.000 OA
ATOM     10  H   UNL     1      46.296   5.467  18.538  0.00  0.00    +0.000 HD
ENDBRANCH   8   9
BRANCH   8  11
ATOM     11  C   UNL     1      49.012   3.613  18.410  0.00  0.00    +0.000 C 
BRANCH  11  12
ATOM     12  N   UNL     1      50.084   3.356  17.424  0.00  0.00    +0.000 NA
ATOM     13  C   UNL     1      50.137   1.987  16.903  0.00  0.00    +0.000 C 
ATOM     14  C   UNL     1      51.345   1.323  17.539  0.00  0.00    +0.000 C 
ATOM     15  C   UNL     1      52.312   2.469  17.737  0.00  0.00    +0.000 C 
ATOM     16  C   UNL     1      51.421   3.686  17.948  0.00  0.00    +0.000 C 
ENDBRANCH  11  12
ENDBRANCH   8  11
ENDBRANCH   5   8
ENDBRANCH   1   2
BRANCH   1  17
ATOM     17  N   UNL     1      47.226   7.451  12.313  0.00  0.00    +0.000 NA
ATOM     18  H   UNL     1      47.476   7.846  11.413  0.00  0.00    +0.000 HD
BRANCH  17  20
ATOM     19  C   UNL     1      45.035   8.492  11.991  0.00  0.00    +0.000 C 
ATOM     20  C   UNL     1      45.780   7.193  12.366  0.00  0.00    +0.000 C 
BRANCH  20  21
ATOM     21  C   UNL     1      45.489   6.043  11.397  0.00  0.00    +0.000 A 
ATOM     22  C   UNL     1      45.932   6.053  10.083  0.00  0.00    +0.000 A 
ATOM     23  S   UNL     1      45.415   4.717   9.166  0.00  0.00    +0.000 S 
ATOM     24  C   UNL     1      44.615   4.041  10.490  0.00  0.00    +0.000 A 
ATOM     25  N   UNL     1      43.928   2.866  10.360  0.00  0.00    +0.000 NA
ATOM     26  C   UNL     1      43.364   2.447  11.435  0.00  0.00    +0.000 A 
ATOM     27  N   UNL     1      43.449   3.080  12.656  0.00  0.00    +0.000 N 
ATOM     28  C   UNL     1      44.185   4.223  12.859  0.00  0.00    +0.000 A 
ATOM     29  O   UNL     1      44.354   4.687  13.984  0.00  0.00    +0.000 OA
ATOM     30  C   UNL     1      44.771   4.799  11.646  0.00  0.00    +0.000 A 
ATOM     31  H   UNL     1      43.020   2.661  13.467  0.00  0.00    +0.000 HD
ENDBRANCH  20  21
ENDBRANCH  17  20
ENDBRANCH   1  17
TORSDOF 8
ENDMDL
MODEL 8
REMARK VINA RESULT:    -6.374      2.424      3.139
REMARK INTER + INTRA:         -10.016
REMARK INTER:                  -8.929
REMARK INTRA:                  -1.087
REMARK UNBOUND:                -0.848
REMARK  Name = 
REMARK  9 active torsions:
REMARK  status: ('A' for Active; 'I' for Inactive)
REMARK    1  A    between atoms: C_1  and  C_2
REMARK    2  A    between atoms: C_2  and  N_3
REMARK    3  A    between atoms: C_2  and  C_19
REMARK    4  A    between atoms: N_3  and  C_4
REMARK    5  A    between atoms: C_4  and  C_5
REMARK    6  A    between atoms: C_8  and  C_9
REMARK    7  A    between atoms: C_9  and  O_10
REMARK    8  A    between atoms: C_9  and  C_11
REMARK    9  A    between atoms: C_11  and  N_12
REMARK                            x       y       z     vdW  Elec       q    Type
REMARK                         _______ _______ _______ _____ _____    ______ ____
ROOT
ATOM      1  C   UNL     1      48.474   8.698  14.122  0.00  0.00    +0.000 C 
ENDROOT
BRANCH   1   2
ATOM      2  C   UNL     1      47.586   7.894  13.211  0.00  0.00    +0.000 A 
ATOM      3  C   UNL     1      46.204   8.040  13.269  0.00  0.00    +0.000 A 
ATOM      4  N   UNL     1      45.350   7.328  12.492  0.00  0.00    +0.000 NA
ATOM      5  C   UNL     1      45.933   6.445  11.633  0.00  0.00    +0.000 A 
ATOM      6  C   UNL     1      47.312   6.291  11.590  0.00  0.00    +0.000 A 
ATOM      7  N   UNL     1      48.160   6.995  12.371  0.00  0.00    +0.000 NA
BRANCH   5   8
ATOM      8  C   UNL     1      45.041   5.604  10.729  0.00  0.00    +0.000 C 
BRANCH   8   9
ATOM      9  O   UNL     1      43.765   6.245  10.612  0.00  0.00    +0.000 OA
ATOM     10  H   UNL     1      43.524   6.529  11.512  0.00  0.00    +0.000 HD
ENDBRANCH   8   9
BRANCH   8  11
ATOM     11  C   UNL     1      45.707   5.376   9.337  0.00  0.00    +0.000 C 
BRANCH  11  12
ATOM     12  N   UNL     1      45.131   4.305   8.495  0.00  0.00    +0.000 NA
ATOM     13  C   UNL     1      44.562   3.171   9.230  0.00  0.00    +0.000 C 
ATOM     14  C   UNL     1      45.524   2.010   9.055  0.00  0.00    +0.000 C 
ATOM     15  C   UNL     1      46.123   2.252   7.688  0.00  0.00    +0.000 C 
ATOM     16  C   UNL     1      46.103   3.766   7.527  0.00  0.00    +0.000 C 
ENDBRANCH  11  12
ENDBRANCH   8  11
ENDBRANCH   5   8
ENDBRANCH   1   2
BRANCH   1  17
ATOM     17  N   UNL     1      48.670   8.066  15.436  0.00  0.00    +0.000 NA
ATOM     18  H   UNL     1      47.826   7.577  15.713  0.00  0.00    +0.000 HD
BRANCH  17  20
ATOM     19  C   UNL     1      51.113   7.990  15.540  0.00  0.00    +0.000 C 
ATOM     20  C   UNL     1      49.819   7.152  15.477  0.00  0.00    +0.000 C 
BRANCH  20  21
ATOM     21  C   UNL     1      49.637   6.252  16.703  0.00  0.00    +0.000 A 
ATOM     22  C   UNL     1      50.353   6.443  17.875  0.00  0.00    +0.000 A 
ATOM     23  S   UNL     1      50.055   5.270  19.070  0.00  0.00    +0.000 S 
ATOM     24  C   UNL     1      48.924   4.479  18.099  0.00  0.00    +0.000 A 
ATOM     25  N   UNL     1      48.298   3.348  18.542  0.00  0.00    +0.000 NA
ATOM     26  C   UNL     1      47.455   2.837  17.719  0.00  0.00    +0.000 A 
ATOM     27  N   UNL     1      47.146   3.374  16.488  0.00  0.00    +0.000 N 
ATOM     28  C   UNL     1      47.691   4.548  16.023  0.00  0.00    +0.000 A 
ATOM     29  O   UNL     1      47.296   5.073  14.985  0.00  0.00    +0.000 OA
ATOM     30  C   UNL     1      48.731   5.122  16.880  0.00  0.00    +0.000 A 
ATOM     31  H   UNL     1      46.435   2.942  15.919  0.00  0.00    +0.000 HD
ENDBRANCH  20  21
ENDBRANCH  17  20
ENDBRANCH   1  17
TORSDOF 8
ENDMDL
MODEL 9
REMARK VINA RESULT:    -6.357      3.000      9.181
REMARK INTER + INTRA:          -9.991
REMARK INTER:                  -9.087
REMARK INTRA:                  -0.904
REMARK UNBOUND:                -0.848
REMARK  Name = 
REMARK  9 active torsions:
REMARK  status: ('A' for Active; 'I' for Inactive)
REMARK    1  A    between atoms: C_1  and  C_2
REMARK    2  A    between atoms: C_2  and  N_3
REMARK    3  A    between atoms: C_2  and  C_19
REMARK    4  A    between atoms: N_3  and  C_4
REMARK    5  A    between atoms: C_4  and  C_5
REMARK    6  A    between atoms: C_8  and  C_9
REMARK    7  A    between atoms: C_9  and  O_10
REMARK    8  A    between atoms: C_9  and  C_11
REMARK    9  A    between atoms: C_11  and  N_12
REMARK                            x       y       z     vdW  Elec       q    Type
REMARK                         _______ _______ _______ _____ _____    ______ ____
ROOT
ATOM      1  C   UNL     1      46.644   4.755  13.506  0.00  0.00    +0.000 C 
ENDROOT
BRANCH   1   2
ATOM      2  C   UNL     1      47.359   4.447  14.794  0.00  0.00    +0.000 A 
ATOM      3  C   UNL     1      47.891   5.475  15.566  0.00  0.00    +0.000 A 
ATOM      4  N   UNL     1      48.566   5.259  16.722  0.00  0.00    +0.000 NA
ATOM      5  C   UNL     1      48.696   3.955  17.094  0.00  0.00    +0.000 A 
ATOM      6  C   UNL     1      48.178   2.931  16.312  0.00  0.00    +0.000 A 
ATOM      7  N   UNL     1      47.513   3.148  15.156  0.00  0.00    +0.000 NA
BRANCH   5   8
ATOM      8  C   UNL     1      49.446   3.630  18.380  0.00  0.00    +0.000 C 
BRANCH   8   9
ATOM      9  O   UNL     1      50.264   2.475  18.159  0.00  0.00    +0.000 OA
ATOM     10  H   UNL     1      51.183   2.798  18.135  0.00  0.00    +0.000 HD
ENDBRANCH   8   9
BRANCH   8  11
ATOM     11  C   UNL     1      50.286   4.852  18.865  0.00  0.00    +0.000 C 
BRANCH  11  12
ATOM     12  N   UNL     1      49.796   5.556  20.070  0.00  0.00    +0.000 NA
ATOM     13  C   UNL     1      48.597   4.979  20.685  0.00  0.00    +0.000 C 
ATOM     14  C   UNL     1      47.447   5.917  20.365  0.00  0.00    +0.000 C 
ATOM     15  C   UNL     1      48.110   7.274  20.296  0.00  0.00    +0.000 C 
ATOM     16  C   UNL     1      49.525   6.982  19.818  0.00  0.00    +0.000 C 
ENDBRANCH  11  12
ENDBRANCH   8  11
ENDBRANCH   5   8
ENDBRANCH   1   2
BRANCH   1  17
ATOM     17  N   UNL     1      45.252   5.182  13.711  0.00  0.00    +0.000 NA
ATOM     18  H   UNL     1      45.159   5.636  14.613  0.00  0.00    +0.000 HD
BRANCH  17  20
ATOM     19  C   UNL     1      45.403   7.452  12.811  0.00  0.00    +0.000 C 
ATOM     20  C   UNL     1      44.749   6.063  12.648  0.00  0.00    +0.000 C 
BRANCH  20  21
ATOM     21  C   UNL     1      45.093   5.401  11.311  0.00  0.00    +0.000 A 
ATOM     22  C   UNL     1      45.860   6.035  10.345  0.00  0.00    +0.000 A 
ATOM     23  S   UNL     1      46.036   5.149   8.905  0.00  0.00    +0.000 S 
ATOM     24  C   UNL     1      45.137   3.859   9.517  0.00  0.00    +0.000 A 
ATOM     25  N   UNL     1      44.891   2.756   8.748  0.00  0.00    +0.000 NA
ATOM     26  C   UNL     1      44.201   1.838   9.321  0.00  0.00    +0.000 A 
ATOM     27  N   UNL     1      43.751   1.900  10.622  0.00  0.00    +0.000 N 
ATOM     28  C   UNL     1      44.031   2.951  11.463  0.00  0.00    +0.000 A 
ATOM     29  O   UNL     1      43.735   2.916  12.655  0.00  0.00    +0.000 OA
ATOM     30  C   UNL     1      44.734   4.071  10.831  0.00  0.00    +0.000 A 
ATOM     31  H   UNL     1      43.257   1.115  11.018  0.00  0.00    +0.000 HD
ENDBRANCH  20  21
ENDBRANCH  17  20
ENDBRANCH   1  17
TORSDOF 8
ENDMDL
