MODEL 1
REMARK VINA RESULT:    -9.123      0.000      0.000
REMARK INTER + INTRA:         -13.854
REMARK INTER:                 -12.856
REMARK INTRA:                  -0.998
REMARK UNBOUND:                -0.998
REMARK  Name = 
REMARK  8 active torsions:
REMARK  status: ('A' for Active; 'I' for Inactive)
REMARK    1  A    between atoms: C_1  and  C_2
REMARK    2  A    between atoms: C_5  and  O_6
REMARK    3  A    between atoms: O_6  and  C_7
REMARK    4  A    between atoms: C_9  and  C_10
REMARK    5  A    between atoms: C_10  and  C_13
REMARK    6  A    between atoms: C_13  and  N_14
REMARK    7  A    between atoms: N_14  and  C_15
REMARK    8  A    between atoms: C_18  and  C_19
REMARK                            x       y       z     vdW  Elec       q    Type
REMARK                         _______ _______ _______ _____ _____    ______ ____
ROOT
ATOM      1  C   UNL     1      44.792   5.349  12.381  0.00  0.00    +0.000 C 
ATOM      2  F   UNL     1      44.666   3.992  12.456  0.00  0.00    +0.000 F 
ATOM      3  F   UNL     1      43.801   5.851  13.182  0.00  0.00    +0.000 F 
ENDROOT
BRANCH   1   6
ATOM      4  C   UNL     1      47.912   5.881  14.521  0.00  0.00    +0.000 A 
ATOM      5  C   UNL     1      46.673   5.421  14.075  0.00  0.00    +0.000 A 
ATOM      6  C   UNL     1      46.166   5.823  12.825  0.00  0.00    +0.000 A 
ATOM      7  C   UNL     1      46.930   6.684  12.021  0.00  0.00    +0.000 A 
ATOM      8  C   UNL     1      48.181   7.124  12.455  0.00  0.00    +0.000 A 
ATOM      9  C   UNL     1      48.665   6.718  13.697  0.00  0.00    +0.000 A 
ATOM     10  F   UNL     1      49.867   7.160  14.095  0.00  0.00    +0.000 F 
BRANCH   4  11
ATOM     11  O   UNL     1      48.461   5.536  15.734  0.00  0.00    +0.000 OA
BRANCH  11  16
ATOM     12  C   UNL     1      49.070   2.135  16.676  0.00  0.00    +0.000 C 
ATOM     13  C   UNL     1      48.854   3.528  17.237  0.00  0.00    +0.000 C 
ATOM     14  N   UNL     1      47.910   3.514  18.379  0.00  0.00    +0.000 NA
ATOM     15  C   UNL     1      47.299   4.757  17.877  0.00  0.00    +0.000 C 
ATOM     16  C   UNL     1      47.860   4.443  16.469  0.00  0.00    +0.000 C 
ATOM     17  H   UNL     1      48.356   3.599  19.293  0.00  0.00    +0.000 HD
ENDBRANCH  11  16
ENDBRANCH   4  11
ENDBRANCH   1   6
BRANCH   1  18
ATOM     18  C   UNL     1      44.514   5.812  10.931  0.00  0.00    +0.000 C 
BRANCH  18  19
ATOM     19  N   UNL     1      43.742   4.835  10.133  0.00  0.00    +0.000 N 
ATOM     20  H   UNL     1      43.000   5.264   9.584  0.00  0.00    +0.000 HD
BRANCH  19  21
ATOM     21  C   UNL     1      44.545   4.022   9.315  0.00  0.00    +0.000 A 
ATOM     22  N   UNL     1      45.328   4.606   8.375  0.00  0.00    +0.000 NA
ATOM     23  C   UNL     1      46.124   3.813   7.619  0.00  0.00    +0.000 A 
ATOM     24  C   UNL     1      46.202   2.436   7.749  0.00  0.00    +0.000 A 
ATOM     25  C   UNL     1      45.406   1.841   8.735  0.00  0.00    +0.000 A 
ATOM     26  C   UNL     1      44.574   2.639   9.513  0.00  0.00    +0.000 A 
ATOM     27  F   UNL     1      43.803   2.061  10.447  0.00  0.00    +0.000 F 
BRANCH  24  28
ATOM     28  C   UNL     1      47.106   1.638   6.863  0.00  0.00    +0.000 C 
ATOM     29  F   UNL     1      46.822   0.306   6.863  0.00  0.00    +0.000 F 
ATOM     30  F   UNL     1      47.047   2.033   5.564  0.00  0.00    +0.000 F 
ATOM     31  F   UNL     1      48.411   1.739   7.232  0.00  0.00    +0.000 F 
ENDBRANCH  24  28
ENDBRANCH  19  21
ENDBRANCH  18  19
ENDBRANCH   1  18
TORSDOF 7
ENDMDL
MODEL 2
REMARK VINA RESULT:    -7.875      2.165      2.890
REMARK INTER + INTRA:         -12.096
REMARK INTER:                 -11.333
REMARK INTRA:                  -0.764
REMARK UNBOUND:                -0.998
REMARK  Name = 
REMARK  8 active torsions:
REMARK  status: ('A' for Active; 'I' for Inactive)
REMARK    1  A    between atoms: C_1  and  C_2
REMARK    2  A    between atoms: C_5  and  O_6
REMARK    3  A    between atoms: O_6  and  C_7
REMARK    4  A    between atoms: C_9  and  C_10
REMARK    5  A    between atoms: C_10  and  C_13
REMARK    6  A    between atoms: C_13  and  N_14
REMARK    7  A    between atoms: N_14  and  C_15
REMARK    8  A    between atoms: C_18  and  C_19
REMARK                            x       y       z     vdW  Elec       q    Type
REMARK                         _______ _______ _______ _____ _____    ______ ____
ROOT
ATOM      1  C   UNL     1      45.834   6.240  11.843  0.00  0.00    +0.000 C 
ATOM      2  F   UNL     1      45.255   7.475  11.873  0.00  0.00    +0.000 F 
ATOM      3  F   UNL     1      46.685   6.263  10.770  0.00  0.00    +0.000 F 
ENDROOT
BRANCH   1   6
ATOM      4  C   UNL     1      48.267   6.505  14.777  0.00  0.00    +0.000 A 
ATOM      5  C   UNL     1      47.550   6.803  13.618  0.00  0.00    +0.000 A 
ATOM      6  C   UNL     1      46.568   5.918  13.134  0.00  0.00    +0.000 A 
ATOM      7  C   UNL     1      46.306   4.733  13.841  0.00  0.00    +0.000 A 
ATOM      8  C   UNL     1      47.005   4.447  15.014  0.00  0.00    +0.000 A 
ATOM      9  C   UNL     1      47.975   5.333  15.476  0.00  0.00    +0.000 A 
ATOM     10  F   UNL     1      48.639   5.032  16.602  0.00  0.00    +0.000 F 
BRANCH   4  11
ATOM     11  O   UNL     1      49.244   7.320  15.299  0.00  0.00    +0.000 OA
BRANCH  11  16
ATOM     12  C   UNL     1      47.956   7.919  18.586  0.00  0.00    +0.000 C 
ATOM     13  C   UNL     1      49.144   8.189  17.682  0.00  0.00    +0.000 C 
ATOM     14  N   UNL     1      49.576   9.605  17.760  0.00  0.00    +0.000 NA
ATOM     15  C   UNL     1      49.799   9.608  16.303  0.00  0.00    +0.000 C 
ATOM     16  C   UNL     1      48.838   8.400  16.173  0.00  0.00    +0.000 C 
ATOM     17  H   UNL     1      50.416   9.757  18.318  0.00  0.00    +0.000 HD
ENDBRANCH  11  16
ENDBRANCH   4  11
ENDBRANCH   1   6
BRANCH   1  18
ATOM     18  C   UNL     1      44.749   5.170  11.570  0.00  0.00    +0.000 C 
BRANCH  18  19
ATOM     19  N   UNL     1      44.260   5.165  10.175  0.00  0.00    +0.000 N 
ATOM     20  H   UNL     1      44.271   6.087   9.742  0.00  0.00    +0.000 HD
BRANCH  19  21
ATOM     21  C   UNL     1      44.920   4.235   9.353  0.00  0.00    +0.000 A 
ATOM     22  N   UNL     1      45.759   4.690   8.391  0.00  0.00    +0.000 NA
ATOM     23  C   UNL     1      46.418   3.782   7.632  0.00  0.00    +0.000 A 
ATOM     24  C   UNL     1      46.300   2.410   7.781  0.00  0.00    +0.000 A 
ATOM     25  C   UNL     1      45.448   1.946   8.790  0.00  0.00    +0.000 A 
ATOM     26  C   UNL     1      44.754   2.865   9.571  0.00  0.00    +0.000 A 
ATOM     27  F   UNL     1      43.928   2.415  10.527  0.00  0.00    +0.000 F 
BRANCH  24  28
ATOM     28  C   UNL     1      47.062   1.480   6.890  0.00  0.00    +0.000 C 
ATOM     29  F   UNL     1      46.841   1.701   5.564  0.00  0.00    +0.000 F 
ATOM     30  F   UNL     1      48.407   1.571   7.065  0.00  0.00    +0.000 F 
ATOM     31  F   UNL     1      46.740   0.176   7.107  0.00  0.00    +0.000 F 
ENDBRANCH  24  28
ENDBRANCH  19  21
ENDBRANCH  18  19
ENDBRANCH   1  18
TORSDOF 7
ENDMDL
MODEL 3
REMARK VINA RESULT:    -7.420      3.198      4.083
REMARK INTER + INTRA:         -11.454
REMARK INTER:                 -10.468
REMARK INTRA:                  -0.986
REMARK UNBOUND:                -0.998
REMARK  Name = 
REMARK  8 active torsions:
REMARK  status: ('A' for Active; 'I' for Inactive)
REMARK    1  A    between atoms: C_1  and  C_2
REMARK    2  A    between atoms: C_5  and  O_6
REMARK    3  A    between atoms: O_6  and  C_7
REMARK    4  A    between atoms: C_9  and  C_10
REMARK    5  A    between atoms: C_10  and  C_13
REMARK    6  A    between atoms: C_13  and  N_14
REMARK    7  A    between atoms: N_14  and  C_15
REMARK    8  A    between atoms: C_18  and  C_19
REMARK                            x       y       z     vdW  Elec       q    Type
REMARK                         _______ _______ _______ _____ _____    ______ ____
ROOT
ATOM      1  C   UNL     1      45.785   6.237  12.145  0.00  0.00    +0.000 C 
ATOM      2  F   UNL     1      46.327   4.993  12.287  0.00  0.00    +0.000 F 
ATOM      3  F   UNL     1      44.701   6.259  12.983  0.00  0.00    +0.000 F 
ENDROOT
BRANCH   1   6
ATOM      4  C   UNL     1      48.837   8.530  11.967  0.00  0.00    +0.000 A 
ATOM      5  C   UNL     1      47.891   7.554  11.651  0.00  0.00    +0.000 A 
ATOM      6  C   UNL     1      46.777   7.338  12.484  0.00  0.00    +0.000 A 
ATOM      7  C   UNL     1      46.619   8.127  13.635  0.00  0.00    +0.000 A 
ATOM      8  C   UNL     1      47.551   9.120  13.938  0.00  0.00    +0.000 A 
ATOM      9  C   UNL     1      48.649   9.317  13.104  0.00  0.00    +0.000 A 
ATOM     10  F   UNL     1      49.535  10.273  13.420  0.00  0.00    +0.000 F 
BRANCH   4  11
ATOM     11  O   UNL     1      49.950   8.786  11.202  0.00  0.00    +0.000 OA
BRANCH  11  16
ATOM     12  C   UNL     1      52.456   6.967   9.403  0.00  0.00    +0.000 C 
ATOM     13  C   UNL     1      52.252   8.130  10.356  0.00  0.00    +0.000 C 
ATOM     14  N   UNL     1      53.248   8.116  11.453  0.00  0.00    +0.000 NA
ATOM     15  C   UNL     1      52.194   8.514  12.403  0.00  0.00    +0.000 C 
ATOM     16  C   UNL     1      51.129   7.974  11.418  0.00  0.00    +0.000 C 
ATOM     17  H   UNL     1      54.001   8.795  11.346  0.00  0.00    +0.000 HD
ENDBRANCH  11  16
ENDBRANCH   4  11
ENDBRANCH   1   6
BRANCH   1  18
ATOM     18  C   UNL     1      45.272   6.413  10.696  0.00  0.00    +0.000 C 
BRANCH  18  19
ATOM     19  N   UNL     1      44.347   5.345  10.260  0.00  0.00    +0.000 N 
ATOM     20  H   UNL     1      43.508   5.703   9.805  0.00  0.00    +0.000 HD
BRANCH  19  21
ATOM     21  C   UNL     1      44.958   4.369   9.455  0.00  0.00    +0.000 A 
ATOM     22  N   UNL     1      45.764   4.765   8.440  0.00  0.00    +0.000 NA
ATOM     23  C   UNL     1      46.376   3.813   7.697  0.00  0.00    +0.000 A 
ATOM     24  C   UNL     1      46.242   2.451   7.911  0.00  0.00    +0.000 A 
ATOM     25  C   UNL     1      45.424   2.048   8.974  0.00  0.00    +0.000 A 
ATOM     26  C   UNL     1      44.779   3.012   9.741  0.00  0.00    +0.000 A 
ATOM     27  F   UNL     1      43.985   2.620  10.748  0.00  0.00    +0.000 F 
BRANCH  24  28
ATOM     28  C   UNL     1      46.952   1.469   7.033  0.00  0.00    +0.000 C 
ATOM     29  F   UNL     1      46.583   0.178   7.261  0.00  0.00    +0.000 F 
ATOM     30  F   UNL     1      46.729   1.694   5.711  0.00  0.00    +0.000 F 
ATOM     31  F   UNL     1      48.301   1.506   7.202  0.00  0.00    +0.000 F 
ENDBRANCH  24  28
ENDBRANCH  19  21
ENDBRANCH  18  19
ENDBRANCH   1  18
TORSDOF 7
ENDMDL
MODEL 4
REMARK VINA RESULT:    -7.150      3.640      7.386
REMARK INTER + INTRA:         -11.074
REMARK INTER:                  -9.764
REMARK INTRA:                  -1.310
REMARK UNBOUND:                -0.998
REMARK  Name = 
REMARK  8 active torsions:
REMARK  status: ('A' for Active; 'I' for Inactive)
REMARK    1  A    between atoms: C_1  and  C_2
REMARK    2  A    between atoms: C_5  and  O_6
REMARK    3  A    between atoms: O_6  and  C_7
REMARK    4  A    between atoms: C_9  and  C_10
REMARK    5  A    between atoms: C_10  and  C_13
REMARK    6  A    between atoms: C_13  and  N_14
REMARK    7  A    between atoms: N_14  and  C_15
REMARK    8  A    between atoms: C_18  and  C_19
REMARK                            x       y       z     vdW  Elec       q    Type
REMARK                         _______ _______ _______ _____ _____    ______ ____
ROOT
ATOM      1  C   UNL     1      48.782   8.035  11.984  0.00  0.00    +0.000 C 
ATOM      2  F   UNL     1      49.541   7.427  11.026  0.00  0.00    +0.000 F 
ATOM      3  F   UNL     1      49.073   9.370  11.885  0.00  0.00    +0.000 F 
ENDROOT
BRANCH   1   6
ATOM      4  C   UNL     1      45.520   6.347  10.931  0.00  0.00    +0.000 A 
ATOM      5  C   UNL     1      46.876   6.590  11.154  0.00  0.00    +0.000 A 
ATOM      6  C   UNL     1      47.298   7.769  11.795  0.00  0.00    +0.000 A 
ATOM      7  C   UNL     1      46.336   8.698  12.224  0.00  0.00    +0.000 A 
ATOM      8  C   UNL     1      44.978   8.444  12.024  0.00  0.00    +0.000 A 
ATOM      9  C   UNL     1      44.580   7.273  11.385  0.00  0.00    +0.000 A 
ATOM     10  F   UNL     1      43.269   7.054  11.198  0.00  0.00    +0.000 F 
BRANCH   4  11
ATOM     11  O   UNL     1      45.042   5.221  10.303  0.00  0.00    +0.000 OA
BRANCH  11  16
ATOM     12  C   UNL     1      43.268   4.091  13.202  0.00  0.00    +0.000 C 
ATOM     13  C   UNL     1      43.400   3.886  11.705  0.00  0.00    +0.000 C 
ATOM     14  N   UNL     1      43.435   2.446  11.355  0.00  0.00    +0.000 NA
ATOM     15  C   UNL     1      44.478   2.725  10.351  0.00  0.00    +0.000 C 
ATOM     16  C   UNL     1      44.824   4.034  11.102  0.00  0.00    +0.000 C 
ATOM     17  H   UNL     1      42.562   2.085  10.971  0.00  0.00    +0.000 HD
ENDBRANCH  11  16
ENDBRANCH   4  11
ENDBRANCH   1   6
BRANCH   1  18
ATOM     18  C   UNL     1      49.234   7.551  13.383  0.00  0.00    +0.000 C 
BRANCH  18  19
ATOM     19  N   UNL     1      48.134   7.469  14.366  0.00  0.00    +0.000 N 
ATOM     20  H   UNL     1      47.214   7.609  13.952  0.00  0.00    +0.000 HD
BRANCH  19  21
ATOM     21  C   UNL     1      48.149   6.285  15.125  0.00  0.00    +0.000 A 
ATOM     22  N   UNL     1      49.087   6.138  16.093  0.00  0.00    +0.000 NA
ATOM     23  C   UNL     1      49.066   5.010  16.841  0.00  0.00    +0.000 A 
ATOM     24  C   UNL     1      48.138   3.992  16.691  0.00  0.00    +0.000 A 
ATOM     25  C   UNL     1      47.160   4.159  15.703  0.00  0.00    +0.000 A 
ATOM     26  C   UNL     1      47.174   5.307  14.917  0.00  0.00    +0.000 A 
ATOM     27  F   UNL     1      46.243   5.454  13.963  0.00  0.00    +0.000 F 
BRANCH  24  28
ATOM     28  C   UNL     1      48.197   2.775  17.559  0.00  0.00    +0.000 C 
ATOM     29  F   UNL     1      46.973   2.229  17.805  0.00  0.00    +0.000 F 
ATOM     30  F   UNL     1      48.948   1.781  17.016  0.00  0.00    +0.000 F 
ATOM     31  F   UNL     1      48.739   3.036  18.779  0.00  0.00    +0.000 F 
ENDBRANCH  24  28
ENDBRANCH  19  21
ENDBRANCH  18  19
ENDBRANCH   1  18
TORSDOF 7
ENDMDL
MODEL 5
REMARK VINA RESULT:    -7.115      3.595      7.634
REMARK INTER + INTRA:         -11.025
REMARK INTER:                  -9.983
REMARK INTRA:                  -1.042
REMARK UNBOUND:                -0.998
REMARK  Name = 
REMARK  8 active torsions:
REMARK  status: ('A' for Active; 'I' for Inactive)
REMARK    1  A    between atoms: C_1  and  C_2
REMARK    2  A    between atoms: C_5  and  O_6
REMARK    3  A    between atoms: O_6  and  C_7
REMARK    4  A    between atoms: C_9  and  C_10
REMARK    5  A    between atoms: C_10  and  C_13
REMARK    6  A    between atoms: C_13  and  N_14
REMARK    7  A    between atoms: N_14  and  C_15
REMARK    8  A    between atoms: C_18  and  C_19
REMARK                            x       y       z     vdW  Elec       q    Type
REMARK                         _______ _______ _______ _____ _____    ______ ____
ROOT
ATOM      1  C   UNL     1      43.442   5.794  11.625  0.00  0.00    +0.000 C 
ATOM      2  F   UNL     1      43.563   6.901  10.836  0.00  0.00    +0.000 F 
ATOM      3  F   UNL     1      42.141   5.794  12.055  0.00  0.00    +0.000 F 
ENDROOT
BRANCH   1   6
ATOM      4  C   UNL     1      44.566   3.427   8.844  0.00  0.00    +0.000 A 
ATOM      5  C   UNL     1      44.286   4.589   9.564  0.00  0.00    +0.000 A 
ATOM      6  C   UNL     1      43.786   4.516  10.878  0.00  0.00    +0.000 A 
ATOM      7  C   UNL     1      43.584   3.257  11.466  0.00  0.00    +0.000 A 
ATOM      8  C   UNL     1      43.887   2.095  10.755  0.00  0.00    +0.000 A 
ATOM      9  C   UNL     1      44.378   2.186   9.455  0.00  0.00    +0.000 A 
ATOM     10  F   UNL     1      44.657   1.055   8.791  0.00  0.00    +0.000 F 
BRANCH   4  11
ATOM     11  O   UNL     1      45.047   3.427   7.556  0.00  0.00    +0.000 OA
BRANCH  11  16
ATOM     12  C   UNL     1      47.469   0.796   7.367  0.00  0.00    +0.000 C 
ATOM     13  C   UNL     1      46.838   1.922   6.570  0.00  0.00    +0.000 C 
ATOM     14  N   UNL     1      47.858   2.706   5.834  0.00  0.00    +0.000 NA
ATOM     15  C   UNL     1      47.136   3.946   6.172  0.00  0.00    +0.000 C 
ATOM     16  C   UNL     1      46.464   3.209   7.356  0.00  0.00    +0.000 C 
ATOM     17  H   UNL     1      47.905   2.501   4.836  0.00  0.00    +0.000 HD
ENDBRANCH  11  16
ENDBRANCH   4  11
ENDBRANCH   1   6
BRANCH   1  18
ATOM     18  C   UNL     1      44.354   5.945  12.866  0.00  0.00    +0.000 C 
BRANCH  18  19
ATOM     19  N   UNL     1      44.782   7.336  13.123  0.00  0.00    +0.000 N 
ATOM     20  H   UNL     1      44.596   7.644  14.076  0.00  0.00    +0.000 HD
BRANCH  19  21
ATOM     21  C   UNL     1      46.126   7.579  12.789  0.00  0.00    +0.000 A 
ATOM     22  N   UNL     1      47.017   6.562  12.874  0.00  0.00    +0.000 NA
ATOM     23  C   UNL     1      48.301   6.800  12.512  0.00  0.00    +0.000 A 
ATOM     24  C   UNL     1      48.765   8.020  12.048  0.00  0.00    +0.000 A 
ATOM     25  C   UNL     1      47.835   9.061  11.944  0.00  0.00    +0.000 A 
ATOM     26  C   UNL     1      46.516   8.837  12.321  0.00  0.00    +0.000 A 
ATOM     27  F   UNL     1      45.632   9.842  12.232  0.00  0.00    +0.000 F 
BRANCH  24  28
ATOM     28  C   UNL     1      50.204   8.195  11.678  0.00  0.00    +0.000 C 
ATOM     29  F   UNL     1      51.054   8.037  12.731  0.00  0.00    +0.000 F 
ATOM     30  F   UNL     1      50.613   7.309  10.731  0.00  0.00    +0.000 F 
ATOM     31  F   UNL     1      50.462   9.432  11.175  0.00  0.00    +0.000 F 
ENDBRANCH  24  28
ENDBRANCH  19  21
ENDBRANCH  18  19
ENDBRANCH   1  18
TORSDOF 7
ENDMDL
MODEL 6
REMARK VINA RESULT:    -7.061      1.960      2.500
REMARK INTER + INTRA:         -10.949
REMARK INTER:                 -10.434
REMARK INTRA:                  -0.515
REMARK UNBOUND:                -0.998
REMARK  Name = 
REMARK  8 active torsions:
REMARK  status: ('A' for Active; 'I' for Inactive)
REMARK    1  A    between atoms: C_1  and  C_2
REMARK    2  A    between atoms: C_5  and  O_6
REMARK    3  A    between atoms: O_6  and  C_7
REMARK    4  A    between atoms: C_9  and  C_10
REMARK    5  A    between atoms: C_10  and  C_13
REMARK    6  A    between atoms: C_13  and  N_14
REMARK    7  A    between atoms: N_14  and  C_15
REMARK    8  A    between atoms: C_18  and  C_19
REMARK                            x       y       z     vdW  Elec       q    Type
REMARK                         _______ _______ _______ _____ _____    ______ ____
ROOT
ATOM      1  C   UNL     1      45.589   4.930  12.665  0.00  0.00    +0.000 C 
ATOM      2  F   UNL     1      46.034   3.653  12.486  0.00  0.00    +0.000 F 
ATOM      3  F   UNL     1      44.831   4.895  13.805  0.00  0.00    +0.000 F 
ENDROOT
BRANCH   1   6
ATOM      4  C   UNL     1      48.337   7.113  14.178  0.00  0.00    +0.000 A 
ATOM      5  C   UNL     1      47.316   6.171  14.040  0.00  0.00    +0.000 A 
ATOM      6  C   UNL     1      46.733   5.925  12.783  0.00  0.00    +0.000 A 
ATOM      7  C   UNL     1      47.199   6.629  11.661  0.00  0.00    +0.000 A 
ATOM      8  C   UNL     1      48.237   7.552  11.794  0.00  0.00    +0.000 A 
ATOM      9  C   UNL     1      48.800   7.785  13.046  0.00  0.00    +0.000 A 
ATOM     10  F   UNL     1      49.792   8.682  13.149  0.00  0.00    +0.000 F 
BRANCH   4  11
ATOM     11  O   UNL     1      48.943   7.408  15.376  0.00  0.00    +0.000 OA
BRANCH  11  16
ATOM     12  C   UNL     1      52.521   7.511  15.483  0.00  0.00    +0.000 C 
ATOM     13  C   UNL     1      51.285   7.412  16.356  0.00  0.00    +0.000 C 
ATOM     14  N   UNL     1      51.437   6.369  17.398  0.00  0.00    +0.000 NA
ATOM     15  C   UNL     1      50.037   5.962  17.183  0.00  0.00    +0.000 C 
ATOM     16  C   UNL     1      50.084   6.613  15.778  0.00  0.00    +0.000 C 
ATOM     17  H   UNL     1      51.634   6.732  18.331  0.00  0.00    +0.000 HD
ENDBRANCH  11  16
ENDBRANCH   4  11
ENDBRANCH   1   6
BRANCH   1  18
ATOM     18  C   UNL     1      44.664   5.323  11.488  0.00  0.00    +0.000 C 
BRANCH  18  19
ATOM     19  N   UNL     1      44.047   4.165  10.806  0.00  0.00    +0.000 N 
ATOM     20  H   UNL     1      43.100   4.351  10.480  0.00  0.00    +0.000 HD
BRANCH  19  21
ATOM     21  C   UNL     1      44.830   3.649   9.760  0.00  0.00    +0.000 A 
ATOM     22  N   UNL     1      44.854   2.309   9.557  0.00  0.00    +0.000 NA
ATOM     23  C   UNL     1      45.583   1.829   8.522  0.00  0.00    +0.000 A 
ATOM     24  C   UNL     1      46.303   2.621   7.642  0.00  0.00    +0.000 A 
ATOM     25  C   UNL     1      46.258   4.006   7.844  0.00  0.00    +0.000 A 
ATOM     26  C   UNL     1      45.523   4.515   8.910  0.00  0.00    +0.000 A 
ATOM     27  F   UNL     1      45.495   5.842   9.107  0.00  0.00    +0.000 F 
BRANCH  24  28
ATOM     28  C   UNL     1      47.087   2.002   6.529  0.00  0.00    +0.000 C 
ATOM     29  F   UNL     1      46.730   2.460   5.297  0.00  0.00    +0.000 F 
ATOM     30  F   UNL     1      48.423   2.230   6.639  0.00  0.00    +0.000 F 
ATOM     31  F   UNL     1      46.938   0.651   6.480  0.00  0.00    +0.000 F 
ENDBRANCH  24  28
ENDBRANCH  19  21
ENDBRANCH  18  19
ENDBRANCH   1  18
TORSDOF 7
ENDMDL
MODEL 7
REMARK VINA RESULT:    -7.016      2.270      3.286
REMARK INTER + INTRA:         -10.885
REMARK INTER:                  -9.970
REMARK INTRA:                  -0.915
REMARK UNBOUND:                -0.998
REMARK  Name = 
REMARK  8 active torsions:
REMARK  status: ('A' for Active; 'I' for Inactive)
REMARK    1  A    between atoms: C_1  and  C_2
REMARK    2  A    between atoms: C_5  and  O_6
REMARK    3  A    between atoms: O_6  and  C_7
REMARK    4  A    between atoms: C_9  and  C_10
REMARK    5  A    between atoms: C_10  and  C_13
REMARK    6  A    between atoms: C_13  and  N_14
REMARK    7  A    between atoms: N_14  and  C_15
REMARK    8  A    between atoms: C_18  and  C_19
REMARK                            x       y       z     vdW  Elec       q    Type
REMARK                         _______ _______ _______ _____ _____    ______ ____
ROOT
ATOM      1  C   UNL     1      47.887   6.515  13.444  0.00  0.00    +0.000 C 
ATOM      2  F   UNL     1      48.891   6.554  12.520  0.00  0.00    +0.000 F 
ATOM      3  F   UNL     1      47.547   5.192  13.555  0.00  0.00    +0.000 F 
ENDROOT
BRANCH   1   6
ATOM      4  C   UNL     1      49.081   6.752  17.066  0.00  0.00    +0.000 A 
ATOM      5  C   UNL     1      48.728   6.240  15.817  0.00  0.00    +0.000 A 
ATOM      6  C   UNL     1      48.314   7.098  14.780  0.00  0.00    +0.000 A 
ATOM      7  C   UNL     1      48.274   8.483  15.012  0.00  0.00    +0.000 A 
ATOM      8  C   UNL     1      48.652   8.997  16.253  0.00  0.00    +0.000 A 
ATOM      9  C   UNL     1      49.055   8.132  17.268  0.00  0.00    +0.000 A 
ATOM     10  F   UNL     1      49.408   8.651  18.454  0.00  0.00    +0.000 F 
BRANCH   4  11
ATOM     11  O   UNL     1      49.485   5.970  18.122  0.00  0.00    +0.000 OA
BRANCH  11  16
ATOM     12  C   UNL     1      47.566   3.012  17.497  0.00  0.00    +0.000 C 
ATOM     13  C   UNL     1      48.630   3.597  18.406  0.00  0.00    +0.000 C 
ATOM     14  N   UNL     1      48.361   3.285  19.829  0.00  0.00    +0.000 NA
ATOM     15  C   UNL     1      48.784   4.647  20.199  0.00  0.00    +0.000 C 
ATOM     16  C   UNL     1      48.504   5.107  18.747  0.00  0.00    +0.000 C 
ATOM     17  H   UNL     1      48.943   2.541  20.214  0.00  0.00    +0.000 HD
ENDBRANCH  11  16
ENDBRANCH   4  11
ENDBRANCH   1   6
BRANCH   1  18
ATOM     18  C   UNL     1      46.656   7.280  12.900  0.00  0.00    +0.000 C 
BRANCH  18  19
ATOM     19  N   UNL     1      45.401   6.502  12.958  0.00  0.00    +0.000 N 
ATOM     20  H   UNL     1      44.570   7.087  13.036  0.00  0.00    +0.000 HD
BRANCH  19  21
ATOM     21  C   UNL     1      45.256   5.592  11.897  0.00  0.00    +0.000 A 
ATOM     22  N   UNL     1      45.704   5.942  10.667  0.00  0.00    +0.000 NA
ATOM     23  C   UNL     1      45.593   5.041   9.662  0.00  0.00    +0.000 A 
ATOM     24  C   UNL     1      45.058   3.772   9.810  0.00  0.00    +0.000 A 
ATOM     25  C   UNL     1      44.615   3.409  11.087  0.00  0.00    +0.000 A 
ATOM     26  C   UNL     1      44.712   4.326  12.128  0.00  0.00    +0.000 A 
ATOM     27  F   UNL     1      44.273   3.977  13.347  0.00  0.00    +0.000 F 
BRANCH  24  28
ATOM     28  C   UNL     1      44.967   2.844   8.640  0.00  0.00    +0.000 C 
ATOM     29  F   UNL     1      44.465   3.435   7.520  0.00  0.00    +0.000 F 
ATOM     30  F   UNL     1      46.175   2.332   8.283  0.00  0.00    +0.000 F 
ATOM     31  F   UNL     1      44.162   1.776   8.888  0.00  0.00    +0.000 F 
ENDBRANCH  24  28
ENDBRANCH  19  21
ENDBRANCH  18  19
ENDBRANCH   1  18
TORSDOF 7
ENDMDL
MODEL 8
REMARK VINA RESULT:    -6.904      2.665      4.958
REMARK INTER + INTRA:         -10.727
REMARK INTER:                  -9.593
REMARK INTRA:                  -1.134
REMARK UNBOUND:                -0.998
REMARK  Name = 
REMARK  8 active torsions:
REMARK  status: ('A' for Active; 'I' for Inactive)
REMARK    1  A    between atoms: C_1  and  C_2
REMARK    2  A    between atoms: C_5  and  O_6
REMARK    3  A    between atoms: O_6  and  C_7
REMARK    4  A    between atoms: C_9  and  C_10
REMARK    5  A    between atoms: C_10  and  C_13
REMARK    6  A    between atoms: C_13  and  N_14
REMARK    7  A    between atoms: N_14  and  C_15
REMARK    8  A    between atoms: C_18  and  C_19
REMARK                            x       y       z     vdW  Elec       q    Type
REMARK                         _______ _______ _______ _____ _____    ______ ____
ROOT
ATOM      1  C   UNL     1      49.561   7.779  14.792  0.00  0.00    +0.000 C 
ATOM      2  F   UNL     1      49.186   9.090  14.738  0.00  0.00    +0.000 F 
ATOM      3  F   UNL     1      50.874   7.760  14.402  0.00  0.00    +0.000 F 
ENDROOT
BRANCH   1   6
ATOM      4  C   UNL     1      49.868   5.415  17.779  0.00  0.00    +0.000 A 
ATOM      5  C   UNL     1      50.054   6.000  16.526  0.00  0.00    +0.000 A 
ATOM      6  C   UNL     1      49.381   7.187  16.180  0.00  0.00    +0.000 A 
ATOM      7  C   UNL     1      48.527   7.788  17.119  0.00  0.00    +0.000 A 
ATOM      8  C   UNL     1      48.360   7.218  18.382  0.00  0.00    +0.000 A 
ATOM      9  C   UNL     1      49.032   6.041  18.704  0.00  0.00    +0.000 A 
ATOM     10  F   UNL     1      48.850   5.509  19.922  0.00  0.00    +0.000 F 
BRANCH   4  11
ATOM     11  O   UNL     1      50.487   4.254  18.176  0.00  0.00    +0.000 OA
BRANCH  11  16
ATOM     12  C   UNL     1      47.252   2.896  17.455  0.00  0.00    +0.000 C 
ATOM     13  C   UNL     1      48.646   3.076  16.884  0.00  0.00    +0.000 C 
ATOM     14  N   UNL     1      49.140   1.829  16.253  0.00  0.00    +0.000 NA
ATOM     15  C   UNL     1      50.476   2.082  16.822  0.00  0.00    +0.000 C 
ATOM     16  C   UNL     1      49.828   2.997  17.890  0.00  0.00    +0.000 C 
ATOM     17  H   UNL     1      49.106   1.832  15.234  0.00  0.00    +0.000 HD
ENDBRANCH  11  16
ENDBRANCH   4  11
ENDBRANCH   1   6
BRANCH   1  18
ATOM     18  C   UNL     1      48.744   6.967  13.759  0.00  0.00    +0.000 C 
BRANCH  18  19
ATOM     19  N   UNL     1      47.284   7.169  13.866  0.00  0.00    +0.000 N 
ATOM     20  H   UNL     1      46.998   8.131  13.691  0.00  0.00    +0.000 HD
BRANCH  19  21
ATOM     21  C   UNL     1      46.536   6.288  13.066  0.00  0.00    +0.000 A 
ATOM     22  N   UNL     1      46.260   6.637  11.786  0.00  0.00    +0.000 NA
ATOM     23  C   UNL     1      45.572   5.761  11.015  0.00  0.00    +0.000 A 
ATOM     24  C   UNL     1      45.136   4.519  11.447  0.00  0.00    +0.000 A 
ATOM     25  C   UNL     1      45.441   4.156  12.764  0.00  0.00    +0.000 A 
ATOM     26  C   UNL     1      46.138   5.048  13.573  0.00  0.00    +0.000 A 
ATOM     27  F   UNL     1      46.415   4.700  14.838  0.00  0.00    +0.000 F 
BRANCH  24  28
ATOM     28  C   UNL     1      44.374   3.619  10.526  0.00  0.00    +0.000 C 
ATOM     29  F   UNL     1      43.808   4.276   9.476  0.00  0.00    +0.000 F 
ATOM     30  F   UNL     1      45.152   2.645   9.984  0.00  0.00    +0.000 F 
ATOM     31  F   UNL     1      43.353   2.980  11.157  0.00  0.00    +0.000 F 
ENDBRANCH  24  28
ENDBRANCH  19  21
ENDBRANCH  18  19
ENDBRANCH   1  18
TORSDOF 7
ENDMDL
MODEL 9
REMARK VINA RESULT:    -6.811      3.738      8.415
REMARK INTER + INTRA:         -10.596
REMARK INTER:                  -9.861
REMARK INTRA:                  -0.734
REMARK UNBOUND:                -0.998
REMARK  Name = 
REMARK  8 active torsions:
REMARK  status: ('A' for Active; 'I' for Inactive)
REMARK    1  A    between atoms: C_1  and  C_2
REMARK    2  A    between atoms: C_5  and  O_6
REMARK    3  A    between atoms: O_6  and  C_7
REMARK    4  A    between atoms: C_9  and  C_10
REMARK    5  A    between atoms: C_10  and  C_13
REMARK    6  A    between atoms: C_13  and  N_14
REMARK    7  A    between atoms: N_14  and  C_15
REMARK    8  A    between atoms: C_18  and  C_19
REMARK                            x       y       z     vdW  Elec       q    Type
REMARK                         _______ _______ _______ _____ _____    ______ ____
ROOT
ATOM      1  C   UNL     1      47.200   4.307  15.231  0.00  0.00    +0.000 C 
ATOM      2  F   UNL     1      46.220   4.127  16.164  0.00  0.00    +0.000 F 
ATOM      3  F   UNL     1      47.601   3.047  14.877  0.00  0.00    +0.000 F 
ENDROOT
BRANCH   1   6
ATOM      4  C   UNL     1      44.940   5.591  12.429  0.00  0.00    +0.000 A 
ATOM      5  C   UNL     1      45.396   4.909  13.557  0.00  0.00    +0.000 A 
ATOM      6  C   UNL     1      46.709   5.098  14.029  0.00  0.00    +0.000 A 
ATOM      7  C   UNL     1      47.556   5.995  13.358  0.00  0.00    +0.000 A 
ATOM      8  C   UNL     1      47.092   6.697  12.244  0.00  0.00    +0.000 A 
ATOM      9  C   UNL     1      45.791   6.494  11.790  0.00  0.00    +0.000 A 
ATOM     10  F   UNL     1      45.371   7.175  10.714  0.00  0.00    +0.000 F 
BRANCH   4  11
ATOM     11  O   UNL     1      43.675   5.446  11.911  0.00  0.00    +0.000 OA
BRANCH  11  16
ATOM     12  C   UNL     1      44.675   4.106   8.744  0.00  0.00    +0.000 C 
ATOM     13  C   UNL     1      44.654   3.813  10.232  0.00  0.00    +0.000 C 
ATOM     14  N   UNL     1      44.214   2.425  10.507  0.00  0.00    +0.000 NA
ATOM     15  C   UNL     1      43.429   2.911  11.656  0.00  0.00    +0.000 C 
ATOM     16  C   UNL     1      43.423   4.327  11.028  0.00  0.00    +0.000 C 
ATOM     17  H   UNL     1      44.969   1.784  10.751  0.00  0.00    +0.000 HD
ENDBRANCH  11  16
ENDBRANCH   4  11
ENDBRANCH   1   6
BRANCH   1  18
ATOM     18  C   UNL     1      48.405   5.027  15.883  0.00  0.00    +0.000 C 
BRANCH  18  19
ATOM     19  N   UNL     1      48.681   4.588  17.267  0.00  0.00    +0.000 N 
ATOM     20  H   UNL     1      47.910   4.069  17.684  0.00  0.00    +0.000 HD
BRANCH  19  21
ATOM     21  C   UNL     1      49.879   3.866  17.397  0.00  0.00    +0.000 A 
ATOM     22  N   UNL     1      51.008   4.526  17.756  0.00  0.00    +0.000 NA
ATOM     23  C   UNL     1      52.147   3.812  17.914  0.00  0.00    +0.000 A 
ATOM     24  C   UNL     1      52.237   2.440  17.744  0.00  0.00    +0.000 A 
ATOM     25  C   UNL     1      51.064   1.761  17.393  0.00  0.00    +0.000 A 
ATOM     26  C   UNL     1      49.887   2.481  17.215  0.00  0.00    +0.000 A 
ATOM     27  F   UNL     1      48.769   1.826  16.865  0.00  0.00    +0.000 F 
BRANCH  24  28
ATOM     28  C   UNL     1      53.542   1.734  17.933  0.00  0.00    +0.000 C 
ATOM     29  F   UNL     1      53.474   0.398  17.676  0.00  0.00    +0.000 F 
ATOM     30  F   UNL     1      54.522   2.220  17.126  0.00  0.00    +0.000 F 
ATOM     31  F   UNL     1      54.010   1.844  19.205  0.00  0.00    +0.000 F 
ENDBRANCH  24  28
ENDBRANCH  19  21
ENDBRANCH  18  19
ENDBRANCH   1  18
TORSDOF 7
ENDMDL
