MODEL 1
REMARK VINA RESULT:    -5.771      0.000      0.000
REMARK INTER + INTRA:          -6.305
REMARK INTER:                  -6.277
REMARK INTRA:                  -0.028
REMARK UNBOUND:                -0.028
REMARK  Name = 
REMARK  2 active torsions:
REMARK  status: ('A' for Active; 'I' for Inactive)
REMARK    1  A    between atoms: N_1  and  C_2
REMARK    2  A    between atoms: C_2  and  C_3
REMARK                            x       y       z     vdW  Elec       q    Type
REMARK                         _______ _______ _______ _____ _____    ______ ____
ROOT
ATOM      1  C   UNL     1      46.686   2.944   6.737  0.00  0.00    +0.000 C 
ATOM      2  C   UNL     1      46.310   1.850   7.656  0.00  0.00    +0.000 C 
ATOM      3  N   UNL     1      45.582   2.505   8.601  0.00  0.00    +0.000 N 
ATOM      4  C   UNL     1      44.877   2.237   9.730  0.00  0.00    +0.000 A 
ATOM      5  C   UNL     1      44.402   3.461  10.163  0.00  0.00    +0.000 A 
ATOM      6 BR   UNL     1      43.342   3.771  11.675  0.00  0.00    +0.000 Br
ATOM      7  C   UNL     1      44.826   4.481   9.274  0.00  0.00    +0.000 A 
ATOM      8  C   UNL     1      45.552   3.844   8.301  0.00  0.00    +0.000 A 
ATOM      9  N   UNL     1      46.229   4.118   7.140  0.00  0.00    +0.000 NA
ENDROOT
BRANCH   1  10
ATOM     10  C   UNL     1      47.433   2.716   5.455  0.00  0.00    +0.000 C 
BRANCH  10  11
ATOM     11  N   UNL     1      48.587   1.860   5.741  0.00  0.00    +0.000 NA
ATOM     12  H   UNL     1      48.807   1.925   6.734  0.00  0.00    +0.000 HD
ATOM     13  H   UNL     1      49.401   2.249   5.257  0.00  0.00    +0.000 HD
ENDBRANCH  10  11
ENDBRANCH   1  10
TORSDOF 2
ENDMDL
MODEL 2
REMARK VINA RESULT:    -5.535      3.077      5.093
REMARK INTER + INTRA:          -6.049
REMARK INTER:                  -6.013
REMARK INTRA:                  -0.035
REMARK UNBOUND:                -0.028
REMARK  Name = 
REMARK  2 active torsions:
REMARK  status: ('A' for Active; 'I' for Inactive)
REMARK    1  A    between atoms: N_1  and  C_2
REMARK    2  A    between atoms: C_2  and  C_3
REMARK                            x       y       z     vdW  Elec       q    Type
REMARK                         _______ _______ _______ _____ _____    ______ ____
ROOT
ATOM      1  C   UNL     1      43.441   4.331  10.974  0.00  0.00    +0.000 C 
ATOM      2  C   UNL     1      43.780   2.895  10.894  0.00  0.00    +0.000 C 
ATOM      3  N   UNL     1      44.581   2.849   9.794  0.00  0.00    +0.000 N 
ATOM      4  C   UNL     1      45.308   1.949   9.085  0.00  0.00    +0.000 A 
ATOM      5  C   UNL     1      45.874   2.671   8.050  0.00  0.00    +0.000 A 
ATOM      6 BR   UNL     1      47.004   2.004   6.715  0.00  0.00    +0.000 Br
ATOM      7  C   UNL     1      45.483   4.031   8.146  0.00  0.00    +0.000 A 
ATOM      8  C   UNL     1      44.684   4.108   9.257  0.00  0.00    +0.000 A 
ATOM      9  N   UNL     1      43.985   5.032   9.992  0.00  0.00    +0.000 NA
ENDROOT
BRANCH   1  10
ATOM     10  C   UNL     1      42.636   4.922  12.095  0.00  0.00    +0.000 C 
BRANCH  10  11
ATOM     11  N   UNL     1      42.170   6.247  11.679  0.00  0.00    +0.000 NA
ATOM     12  H   UNL     1      41.574   6.631  12.411  0.00  0.00    +0.000 HD
ATOM     13  H   UNL     1      41.559   6.129  10.866  0.00  0.00    +0.000 HD
ENDBRANCH  10  11
ENDBRANCH   1  10
TORSDOF 2
ENDMDL
MODEL 3
REMARK VINA RESULT:    -4.578      4.944      5.930
REMARK INTER + INTRA:          -5.007
REMARK INTER:                  -4.971
REMARK INTRA:                  -0.037
REMARK UNBOUND:                -0.028
REMARK  Name = 
REMARK  2 active torsions:
REMARK  status: ('A' for Active; 'I' for Inactive)
REMARK    1  A    between atoms: N_1  and  C_2
REMARK    2  A    between atoms: C_2  and  C_3
REMARK                            x       y       z     vdW  Elec       q    Type
REMARK                         _______ _______ _______ _____ _____    ______ ____
ROOT
ATOM      1  C   UNL     1      44.546   4.050  11.724  0.00  0.00    +0.000 C 
ATOM      2  C   UNL     1      45.183   5.280  11.210  0.00  0.00    +0.000 C 
ATOM      3  N   UNL     1      46.087   5.565  12.187  0.00  0.00    +0.000 N 
ATOM      4  C   UNL     1      47.056   6.475  12.462  0.00  0.00    +0.000 A 
ATOM      5  C   UNL     1      47.565   6.107  13.694  0.00  0.00    +0.000 A 
ATOM      6 BR   UNL     1      48.943   6.960  14.630  0.00  0.00    +0.000 Br
ATOM      7  C   UNL     1      46.891   4.950  14.163  0.00  0.00    +0.000 A 
ATOM      8  C   UNL     1      45.981   4.632  13.188  0.00  0.00    +0.000 A 
ATOM      9  N   UNL     1      45.032   3.685  12.899  0.00  0.00    +0.000 NA
ENDROOT
BRANCH   1  10
ATOM     10  C   UNL     1      43.522   3.273  10.948  0.00  0.00    +0.000 C 
BRANCH  10  11
ATOM     11  N   UNL     1      43.210   2.051  11.694  0.00  0.00    +0.000 NA
ATOM     12  H   UNL     1      43.319   2.236  12.690  0.00  0.00    +0.000 HD
ATOM     13  H   UNL     1      43.921   1.350  11.469  0.00  0.00    +0.000 HD
ENDBRANCH  10  11
ENDBRANCH   1  10
TORSDOF 2
ENDMDL
MODEL 4
REMARK VINA RESULT:    -4.381      5.089      5.836
REMARK INTER + INTRA:          -4.793
REMARK INTER:                  -4.764
REMARK INTRA:                  -0.029
REMARK UNBOUND:                -0.028
REMARK  Name = 
REMARK  2 active torsions:
REMARK  status: ('A' for Active; 'I' for Inactive)
REMARK    1  A    between atoms: N_1  and  C_2
REMARK    2  A    between atoms: C_2  and  C_3
REMARK                            x       y       z     vdW  Elec       q    Type
REMARK                         _______ _______ _______ _____ _____    ______ ____
ROOT
ATOM      1  C   UNL     1      44.342   4.511  11.712  0.00  0.00    +0.000 C 
ATOM      2  C   UNL     1      45.134   4.163  12.910  0.00  0.00    +0.000 C 
ATOM      3  N   UNL     1      46.151   5.066  12.855  0.00  0.00    +0.000 N 
ATOM      4  C   UNL     1      47.246   5.431  13.570  0.00  0.00    +0.000 A 
ATOM      5  C   UNL     1      47.817   6.470  12.858  0.00  0.00    +0.000 A 
ATOM      6 BR   UNL     1      49.360   7.423  13.323  0.00  0.00    +0.000 Br
ATOM      7  C   UNL     1      47.045   6.735  11.697  0.00  0.00    +0.000 A 
ATOM      8  C   UNL     1      46.003   5.846  11.735  0.00  0.00    +0.000 A 
ATOM      9  N   UNL     1      44.877   5.509  11.029  0.00  0.00    +0.000 NA
ENDROOT
BRANCH   1  10
ATOM     10  C   UNL     1      43.038   3.849  11.372  0.00  0.00    +0.000 C 
BRANCH  10  11
ATOM     11  N   UNL     1      43.145   2.426  11.704  0.00  0.00    +0.000 NA
ATOM     12  H   UNL     1      43.684   2.327  12.563  0.00  0.00    +0.000 HD
ATOM     13  H   UNL     1      43.706   1.971  10.978  0.00  0.00    +0.000 HD
ENDBRANCH  10  11
ENDBRANCH   1  10
TORSDOF 2
ENDMDL
MODEL 5
REMARK VINA RESULT:    -4.224     10.079     11.253
REMARK INTER + INTRA:          -4.622
REMARK INTER:                  -4.595
REMARK INTRA:                  -0.027
REMARK UNBOUND:                -0.028
REMARK  Name = 
REMARK  2 active torsions:
REMARK  status: ('A' for Active; 'I' for Inactive)
REMARK    1  A    between atoms: N_1  and  C_2
REMARK    2  A    between atoms: C_2  and  C_3
REMARK                            x       y       z     vdW  Elec       q    Type
REMARK                         _______ _______ _______ _____ _____    ______ ____
ROOT
ATOM      1  C   UNL     1      48.968   3.097  16.973  0.00  0.00    +0.000 C 
ATOM      2  C   UNL     1      49.904   3.977  17.703  0.00  0.00    +0.000 C 
ATOM      3  N   UNL     1      51.019   3.200  17.791  0.00  0.00    +0.000 N 
ATOM      4  C   UNL     1      52.289   3.269  18.265  0.00  0.00    +0.000 A 
ATOM      5  C   UNL     1      52.851   2.038  17.983  0.00  0.00    +0.000 A 
ATOM      6 BR   UNL     1      54.600   1.497  18.376  0.00  0.00    +0.000 Br
ATOM      7  C   UNL     1      51.901   1.218  17.323  0.00  0.00    +0.000 A 
ATOM      8  C   UNL     1      50.769   1.983  17.209  0.00  0.00    +0.000 A 
ATOM      9  N   UNL     1      49.500   1.919  16.692  0.00  0.00    +0.000 NA
ENDROOT
BRANCH   1  10
ATOM     10  C   UNL     1      47.601   3.539  16.536  0.00  0.00    +0.000 C 
BRANCH  10  11
ATOM     11  N   UNL     1      46.627   3.055  17.518  0.00  0.00    +0.000 NA
ATOM     12  H   UNL     1      46.142   2.247  17.132  0.00  0.00    +0.000 HD
ATOM     13  H   UNL     1      45.907   3.774  17.633  0.00  0.00    +0.000 HD
ENDBRANCH  10  11
ENDBRANCH   1  10
TORSDOF 2
ENDMDL
MODEL 6
REMARK VINA RESULT:    -3.953      5.839      6.519
REMARK INTER + INTRA:          -4.328
REMARK INTER:                  -4.300
REMARK INTRA:                  -0.028
REMARK UNBOUND:                -0.028
REMARK  Name = 
REMARK  2 active torsions:
REMARK  status: ('A' for Active; 'I' for Inactive)
REMARK    1  A    between atoms: N_1  and  C_2
REMARK    2  A    between atoms: C_2  and  C_3
REMARK                            x       y       z     vdW  Elec       q    Type
REMARK                         _______ _______ _______ _____ _____    ______ ____
ROOT
ATOM      1  C   UNL     1      44.257   4.948  12.633  0.00  0.00    +0.000 C 
ATOM      2  C   UNL     1      45.579   5.102  13.275  0.00  0.00    +0.000 C 
ATOM      3  N   UNL     1      45.910   6.382  12.949  0.00  0.00    +0.000 N 
ATOM      4  C   UNL     1      46.908   7.275  13.165  0.00  0.00    +0.000 A 
ATOM      5  C   UNL     1      46.531   8.417  12.482  0.00  0.00    +0.000 A 
ATOM      6 BR   UNL     1      47.482  10.027  12.392  0.00  0.00    +0.000 Br
ATOM      7  C   UNL     1      45.280   8.203  11.848  0.00  0.00    +0.000 A 
ATOM      8  C   UNL     1      44.916   6.922  12.173  0.00  0.00    +0.000 A 
ATOM      9  N   UNL     1      43.884   6.038  11.983  0.00  0.00    +0.000 NA
ENDROOT
BRANCH   1  10
ATOM     10  C   UNL     1      43.413   3.715  12.782  0.00  0.00    +0.000 C 
BRANCH  10  11
ATOM     11  N   UNL     1      44.240   2.550  12.457  0.00  0.00    +0.000 NA
ATOM     12  H   UNL     1      43.630   1.765  12.231  0.00  0.00    +0.000 HD
ATOM     13  H   UNL     1      44.742   2.269  13.304  0.00  0.00    +0.000 HD
ENDBRANCH  10  11
ENDBRANCH   1  10
TORSDOF 2
ENDMDL
MODEL 7
REMARK VINA RESULT:    -3.904      5.208      6.446
REMARK INTER + INTRA:          -4.274
REMARK INTER:                  -4.239
REMARK INTRA:                  -0.034
REMARK UNBOUND:                -0.028
REMARK  Name = 
REMARK  2 active torsions:
REMARK  status: ('A' for Active; 'I' for Inactive)
REMARK    1  A    between atoms: N_1  and  C_2
REMARK    2  A    between atoms: C_2  and  C_3
REMARK                            x       y       z     vdW  Elec       q    Type
REMARK                         _______ _______ _______ _____ _____    ______ ____
ROOT
ATOM      1  C   UNL     1      47.829   6.320  14.096  0.00  0.00    +0.000 C 
ATOM      2  C   UNL     1      47.043   5.079  14.254  0.00  0.00    +0.000 C 
ATOM      3  N   UNL     1      46.365   5.016  13.074  0.00  0.00    +0.000 N 
ATOM      4  C   UNL     1      45.490   4.204  12.430  0.00  0.00    +0.000 A 
ATOM      5  C   UNL     1      45.237   4.825  11.221  0.00  0.00    +0.000 A 
ATOM      6 BR   UNL     1      44.109   4.200   9.863  0.00  0.00    +0.000 Br
ATOM      7  C   UNL     1      45.979   6.031  11.138  0.00  0.00    +0.000 A 
ATOM      8  C   UNL     1      46.684   6.111  12.311  0.00  0.00    +0.000 A 
ATOM      9  N   UNL     1      47.599   6.918  12.939  0.00  0.00    +0.000 NA
ENDROOT
BRANCH   1  10
ATOM     10  C   UNL     1      48.831   6.790  15.112  0.00  0.00    +0.000 C 
BRANCH  10  11
ATOM     11  N   UNL     1      50.092   7.066  14.420  0.00  0.00    +0.000 NA
ATOM     12  H   UNL     1      50.252   8.073  14.416  0.00  0.00    +0.000 HD
ATOM     13  H   UNL     1      49.980   6.805  13.436  0.00  0.00    +0.000 HD
ENDBRANCH  10  11
ENDBRANCH   1  10
TORSDOF 2
ENDMDL
MODEL 8
REMARK VINA RESULT:    -3.645     10.028     10.637
REMARK INTER + INTRA:          -3.992
REMARK INTER:                  -3.961
REMARK INTRA:                  -0.031
REMARK UNBOUND:                -0.028
REMARK  Name = 
REMARK  2 active torsions:
REMARK  status: ('A' for Active; 'I' for Inactive)
REMARK    1  A    between atoms: N_1  and  C_2
REMARK    2  A    between atoms: C_2  and  C_3
REMARK                            x       y       z     vdW  Elec       q    Type
REMARK                         _______ _______ _______ _____ _____    ______ ____
ROOT
ATOM      1  C   UNL     1      49.758   3.442  17.597  0.00  0.00    +0.000 C 
ATOM      2  C   UNL     1      48.693   3.602  18.609  0.00  0.00    +0.000 C 
ATOM      3  N   UNL     1      48.492   4.949  18.605  0.00  0.00    +0.000 N 
ATOM      4  C   UNL     1      47.697   5.875  19.198  0.00  0.00    +0.000 A 
ATOM      5  C   UNL     1      48.095   7.090  18.671  0.00  0.00    +0.000 A 
ATOM      6 BR   UNL     1      47.376   8.770  19.079  0.00  0.00    +0.000 Br
ATOM      7  C   UNL     1      49.146   6.886  17.741  0.00  0.00    +0.000 A 
ATOM      8  C   UNL     1      49.360   5.532  17.715  0.00  0.00    +0.000 A 
ATOM      9  N   UNL     1      50.140   4.599  17.082  0.00  0.00    +0.000 NA
ENDROOT
BRANCH   1  10
ATOM     10  C   UNL     1      50.276   2.102  17.159  0.00  0.00    +0.000 C 
BRANCH  10  11
ATOM     11  N   UNL     1      49.517   1.679  15.979  0.00  0.00    +0.000 NA
ATOM     12  H   UNL     1      49.197   2.507  15.478  0.00  0.00    +0.000 HD
ATOM     13  H   UNL     1      48.665   1.211  16.300  0.00  0.00    +0.000 HD
ENDBRANCH  10  11
ENDBRANCH   1  10
TORSDOF 2
ENDMDL
MODEL 9
REMARK VINA RESULT:    -3.428      5.405      6.612
REMARK INTER + INTRA:          -3.756
REMARK INTER:                  -3.723
REMARK INTRA:                  -0.033
REMARK UNBOUND:                -0.028
REMARK  Name = 
REMARK  2 active torsions:
REMARK  status: ('A' for Active; 'I' for Inactive)
REMARK    1  A    between atoms: N_1  and  C_2
REMARK    2  A    between atoms: C_2  and  C_3
REMARK                            x       y       z     vdW  Elec       q    Type
REMARK                         _______ _______ _______ _____ _____    ______ ____
ROOT
ATOM      1  C   UNL     1      47.018   7.590  13.354  0.00  0.00    +0.000 C 
ATOM      2  C   UNL     1      45.669   7.759  12.773  0.00  0.00    +0.000 C 
ATOM      3  N   UNL     1      45.262   6.469  12.614  0.00  0.00    +0.000 N 
ATOM      4  C   UNL     1      44.175   5.776  12.190  0.00  0.00    +0.000 A 
ATOM      5  C   UNL     1      44.518   4.443  12.321  0.00  0.00    +0.000 A 
ATOM      6 BR   UNL     1      43.438   2.970  11.909  0.00  0.00    +0.000 Br
ATOM      7  C   UNL     1      45.834   4.337  12.839  0.00  0.00    +0.000 A 
ATOM      8  C   UNL     1      46.264   5.625  13.022  0.00  0.00    +0.000 A 
ATOM      9  N   UNL     1      47.352   6.318  13.490  0.00  0.00    +0.000 NA
ENDROOT
BRANCH   1  10
ATOM     10  C   UNL     1      47.864   8.746  13.806  0.00  0.00    +0.000 C 
BRANCH  10  11
ATOM     11  N   UNL     1      49.265   8.429  13.520  0.00  0.00    +0.000 NA
ATOM     12  H   UNL     1      49.707   9.243  13.094  0.00  0.00    +0.000 HD
ATOM     13  H   UNL     1      49.287   7.701  12.800  0.00  0.00    +0.000 HD
ENDBRANCH  10  11
ENDBRANCH   1  10
TORSDOF 2
ENDMDL
