MODEL 1
REMARK VINA RESULT:    -8.796      0.000      0.000
REMARK INTER + INTRA:         -11.734
REMARK INTER:                 -11.367
REMARK INTRA:                  -0.367
REMARK UNBOUND:                -0.367
REMARK  Name = 
REMARK  6 active torsions:
REMARK  status: ('A' for Active; 'I' for Inactive)
REMARK    1  A    between atoms: C_1  and  C_2
REMARK    2  A    between atoms: C_2  and  N_3
REMARK    3  A    between atoms: C_2  and  C_16
REMARK    4  A    between atoms: C_4  and  C_6
REMARK    5  A    between atoms: C_19  and  O_20
REMARK    6  A    between atoms: O_20  and  C_21
REMARK                            x       y       z     vdW  Elec       q    Type
REMARK                         _______ _______ _______ _____ _____    ______ ____
ROOT
ATOM      1  C   UNL     1      43.118   5.156  13.320  0.00  0.00    +0.000 C 
ATOM      2  C   UNL     1      44.464   4.445  13.119  0.00  0.00    +0.000 C 
ENDROOT
BRANCH   2   3
ATOM      3  C   UNL     1      44.817   4.294  11.657  0.00  0.00    +0.000 A 
ATOM      4  C   UNL     1      45.485   5.279  10.927  0.00  0.00    +0.000 A 
ATOM      5  C   UNL     1      45.592   5.158   9.546  0.00  0.00    +0.000 A 
ATOM      6  C   UNL     1      45.008   4.061   8.922  0.00  0.00    +0.000 A 
ATOM      7  N   UNL     1      44.488   3.022   9.611  0.00  0.00    +0.000 NA
ATOM      8  C   UNL     1      44.405   3.163  10.955  0.00  0.00    +0.000 A 
BRANCH   6   9
ATOM      9  O   UNL     1      44.971   3.937   7.554  0.00  0.00    +0.000 OA
BRANCH   9  10
ATOM     10  C   UNL     1      46.002   3.211   6.971  0.00  0.00    +0.000 A 
ATOM     11  N   UNL     1      46.401   2.133   7.665  0.00  0.00    +0.000 NA
ATOM     12  C   UNL     1      47.443   1.451   7.152  0.00  0.00    +0.000 A 
ATOM     13  C   UNL     1      48.093   1.804   5.994  0.00  0.00    +0.000 A 
ATOM     14  C   UNL     1      47.595   2.911   5.351  0.00  0.00    +0.000 A 
ATOM     15  N   UNL     1      46.553   3.624   5.809  0.00  0.00    +0.000 NA
ENDBRANCH   9  10
ENDBRANCH   6   9
ENDBRANCH   2   3
BRANCH   2  16
ATOM     16  N   UNL     1      45.515   5.121  13.854  0.00  0.00    +0.000 N 
ATOM     17  C   UNL     1      46.613   4.428  14.306  0.00  0.00    +0.000 C 
ATOM     18  O   UNL     1      46.843   3.271  13.965  0.00  0.00    +0.000 OA
ATOM     19  H   UNL     1      45.277   6.006  14.293  0.00  0.00    +0.000 HD
BRANCH  17  20
ATOM     20  C   UNL     1      47.524   5.142  15.203  0.00  0.00    +0.000 A 
ATOM     21  C   UNL     1      48.250   6.226  14.733  0.00  0.00    +0.000 A 
ATOM     22  S   UNL     1      49.313   6.887  15.890  0.00  0.00    +0.000 S 
ATOM     23  C   UNL     1      48.879   5.707  17.039  0.00  0.00    +0.000 A 
ATOM     24  N   UNL     1      49.496   5.647  18.247  0.00  0.00    +0.000 NA
ATOM     25  C   UNL     1      49.107   4.671  18.995  0.00  0.00    +0.000 A 
ATOM     26  N   UNL     1      48.127   3.772  18.661  0.00  0.00    +0.000 N 
ATOM     27  C   UNL     1      47.422   3.842  17.482  0.00  0.00    +0.000 A 
ATOM     28  O   UNL     1      46.465   3.106  17.258  0.00  0.00    +0.000 OA
ATOM     29  C   UNL     1      47.883   4.871  16.571  0.00  0.00    +0.000 A 
ATOM     30  H   UNL     1      47.838   3.059  19.314  0.00  0.00    +0.000 HD
ENDBRANCH  17  20
ENDBRANCH   2  16
TORSDOF 5
ENDMDL
MODEL 2
REMARK VINA RESULT:    -8.057      1.522      2.451
REMARK INTER + INTRA:         -10.779
REMARK INTER:                 -10.025
REMARK INTRA:                  -0.755
REMARK UNBOUND:                -0.367
REMARK  Name = 
REMARK  6 active torsions:
REMARK  status: ('A' for Active; 'I' for Inactive)
REMARK    1  A    between atoms: C_1  and  C_2
REMARK    2  A    between atoms: C_2  and  N_3
REMARK    3  A    between atoms: C_2  and  C_16
REMARK    4  A    between atoms: C_4  and  C_6
REMARK    5  A    between atoms: C_19  and  O_20
REMARK    6  A    between atoms: O_20  and  C_21
REMARK                            x       y       z     vdW  Elec       q    Type
REMARK                         _______ _______ _______ _____ _____    ______ ____
ROOT
ATOM      1  C   UNL     1      43.080   5.267  13.240  0.00  0.00    +0.000 C 
ATOM      2  C   UNL     1      44.385   4.477  13.063  0.00  0.00    +0.000 C 
ENDROOT
BRANCH   2   3
ATOM      3  C   UNL     1      44.718   4.241  11.608  0.00  0.00    +0.000 A 
ATOM      4  C   UNL     1      45.366   5.186  10.810  0.00  0.00    +0.000 A 
ATOM      5  C   UNL     1      45.453   4.983   9.437  0.00  0.00    +0.000 A 
ATOM      6  C   UNL     1      44.869   3.847   8.889  0.00  0.00    +0.000 A 
ATOM      7  N   UNL     1      44.367   2.847   9.647  0.00  0.00    +0.000 NA
ATOM      8  C   UNL     1      44.304   3.067  10.982  0.00  0.00    +0.000 A 
BRANCH   6   9
ATOM      9  O   UNL     1      44.812   3.641   7.532  0.00  0.00    +0.000 OA
BRANCH   9  10
ATOM     10  C   UNL     1      45.920   3.035   6.952  0.00  0.00    +0.000 A 
ATOM     11  N   UNL     1      46.411   1.982   7.627  0.00  0.00    +0.000 NA
ATOM     12  C   UNL     1      47.523   1.420   7.118  0.00  0.00    +0.000 A 
ATOM     13  C   UNL     1      48.156   1.866   5.982  0.00  0.00    +0.000 A 
ATOM     14  C   UNL     1      47.563   2.936   5.357  0.00  0.00    +0.000 A 
ATOM     15  N   UNL     1      46.448   3.531   5.812  0.00  0.00    +0.000 NA
ENDBRANCH   9  10
ENDBRANCH   6   9
ENDBRANCH   2   3
BRANCH   2  16
ATOM     16  N   UNL     1      45.476   5.130  13.761  0.00  0.00    +0.000 N 
ATOM     17  C   UNL     1      46.559   4.407  14.201  0.00  0.00    +0.000 C 
ATOM     18  O   UNL     1      46.740   3.235  13.880  0.00  0.00    +0.000 OA
ATOM     19  H   UNL     1      45.280   6.031  14.186  0.00  0.00    +0.000 HD
BRANCH  17  20
ATOM     20  C   UNL     1      47.516   5.105  15.063  0.00  0.00    +0.000 A 
ATOM     21  C   UNL     1      47.684   4.701  16.379  0.00  0.00    +0.000 A 
ATOM     22  S   UNL     1      48.780   5.671  17.254  0.00  0.00    +0.000 S 
ATOM     23  C   UNL     1      49.019   6.698  15.916  0.00  0.00    +0.000 A 
ATOM     24  N   UNL     1      49.795   7.808  16.017  0.00  0.00    +0.000 NA
ATOM     25  C   UNL     1      49.842   8.522  14.944  0.00  0.00    +0.000 A 
ATOM     26  N   UNL     1      49.217   8.206  13.765  0.00  0.00    +0.000 N 
ATOM     27  C   UNL     1      48.487   7.053  13.595  0.00  0.00    +0.000 A 
ATOM     28  O   UNL     1      48.042   6.728  12.498  0.00  0.00    +0.000 OA
ATOM     29  C   UNL     1      48.332   6.261  14.799  0.00  0.00    +0.000 A 
ATOM     30  H   UNL     1      49.335   8.786  12.948  0.00  0.00    +0.000 HD
ENDBRANCH  17  20
ENDBRANCH   2  16
TORSDOF 5
ENDMDL
MODEL 3
REMARK VINA RESULT:    -7.903      2.205      2.940
REMARK INTER + INTRA:         -10.580
REMARK INTER:                  -9.638
REMARK INTRA:                  -0.942
REMARK UNBOUND:                -0.367
REMARK  Name = 
REMARK  6 active torsions:
REMARK  status: ('A' for Active; 'I' for Inactive)
REMARK    1  A    between atoms: C_1  and  C_2
REMARK    2  A    between atoms: C_2  and  N_3
REMARK    3  A    between atoms: C_2  and  C_16
REMARK    4  A    between atoms: C_4  and  C_6
REMARK    5  A    between atoms: C_19  and  O_20
REMARK    6  A    between atoms: O_20  and  C_21
REMARK                            x       y       z     vdW  Elec       q    Type
REMARK                         _______ _______ _______ _____ _____    ______ ____
ROOT
ATOM      1  C   UNL     1      48.144   8.134  12.418  0.00  0.00    +0.000 C 
ATOM      2  C   UNL     1      47.239   7.342  13.373  0.00  0.00    +0.000 C 
ENDROOT
BRANCH   2   3
ATOM      3  C   UNL     1      46.290   6.428  12.633  0.00  0.00    +0.000 A 
ATOM      4  C   UNL     1      46.116   5.081  12.960  0.00  0.00    +0.000 A 
ATOM      5  C   UNL     1      45.386   4.256  12.111  0.00  0.00    +0.000 A 
ATOM      6  C   UNL     1      44.864   4.793  10.940  0.00  0.00    +0.000 A 
ATOM      7  N   UNL     1      44.888   6.117  10.670  0.00  0.00    +0.000 NA
ATOM      8  C   UNL     1      45.597   6.898  11.519  0.00  0.00    +0.000 A 
BRANCH   6   9
ATOM      9  O   UNL     1      44.236   4.012   9.999  0.00  0.00    +0.000 OA
BRANCH   9  10
ATOM     10  C   UNL     1      45.047   3.453   9.020  0.00  0.00    +0.000 A 
ATOM     11  N   UNL     1      45.275   2.136   9.154  0.00  0.00    +0.000 NA
ATOM     12  C   UNL     1      46.110   1.585   8.254  0.00  0.00    +0.000 A 
ATOM     13  C   UNL     1      46.721   2.290   7.244  0.00  0.00    +0.000 A 
ATOM     14  C   UNL     1      46.406   3.626   7.183  0.00  0.00    +0.000 A 
ATOM     15  N   UNL     1      45.572   4.228   8.047  0.00  0.00    +0.000 NA
ENDBRANCH   9  10
ENDBRANCH   6   9
ENDBRANCH   2   3
BRANCH   2  16
ATOM     16  N   UNL     1      48.033   6.614  14.343  0.00  0.00    +0.000 N 
ATOM     17  C   UNL     1      48.597   7.264  15.415  0.00  0.00    +0.000 C 
ATOM     18  O   UNL     1      48.319   8.426  15.698  0.00  0.00    +0.000 OA
ATOM     19  H   UNL     1      48.418   5.722  14.051  0.00  0.00    +0.000 HD
BRANCH  17  20
ATOM     20  C   UNL     1      49.540   6.497  16.233  0.00  0.00    +0.000 A 
ATOM     21  C   UNL     1      50.797   7.015  16.509  0.00  0.00    +0.000 A 
ATOM     22  S   UNL     1      51.786   5.957  17.409  0.00  0.00    +0.000 S 
ATOM     23  C   UNL     1      50.585   4.749  17.407  0.00  0.00    +0.000 A 
ATOM     24  N   UNL     1      50.823   3.526  17.948  0.00  0.00    +0.000 NA
ATOM     25  C   UNL     1      49.846   2.692  17.827  0.00  0.00    +0.000 A 
ATOM     26  N   UNL     1      48.636   2.983  17.250  0.00  0.00    +0.000 N 
ATOM     27  C   UNL     1      48.324   4.231  16.762  0.00  0.00    +0.000 A 
ATOM     28  O   UNL     1      47.195   4.504  16.365  0.00  0.00    +0.000 OA
ATOM     29  C   UNL     1      49.422   5.177  16.796  0.00  0.00    +0.000 A 
ATOM     30  H   UNL     1      47.897   2.297  17.232  0.00  0.00    +0.000 HD
ENDBRANCH  17  20
ENDBRANCH   2  16
TORSDOF 5
ENDMDL
MODEL 4
REMARK VINA RESULT:    -7.667      2.472      3.344
REMARK INTER + INTRA:         -10.275
REMARK INTER:                  -9.689
REMARK INTRA:                  -0.586
REMARK UNBOUND:                -0.367
REMARK  Name = 
REMARK  6 active torsions:
REMARK  status: ('A' for Active; 'I' for Inactive)
REMARK    1  A    between atoms: C_1  and  C_2
REMARK    2  A    between atoms: C_2  and  N_3
REMARK    3  A    between atoms: C_2  and  C_16
REMARK    4  A    between atoms: C_4  and  C_6
REMARK    5  A    between atoms: C_19  and  O_20
REMARK    6  A    between atoms: O_20  and  C_21
REMARK                            x       y       z     vdW  Elec       q    Type
REMARK                         _______ _______ _______ _____ _____    ______ ____
ROOT
ATOM      1  C   UNL     1      48.802   6.952  12.681  0.00  0.00    +0.000 C 
ATOM      2  C   UNL     1      47.527   6.615  13.468  0.00  0.00    +0.000 C 
ENDROOT
BRANCH   2   3
ATOM      3  C   UNL     1      46.515   5.875  12.625  0.00  0.00    +0.000 A 
ATOM      4  C   UNL     1      46.017   4.614  12.962  0.00  0.00    +0.000 A 
ATOM      5  C   UNL     1      45.250   3.909  12.040  0.00  0.00    +0.000 A 
ATOM      6  C   UNL     1      45.017   4.473  10.791  0.00  0.00    +0.000 A 
ATOM      7  N   UNL     1      45.357   5.745  10.490  0.00  0.00    +0.000 NA
ATOM      8  C   UNL     1      46.095   6.412  11.410  0.00  0.00    +0.000 A 
BRANCH   6   9
ATOM      9  O   UNL     1      44.371   3.784   9.792  0.00  0.00    +0.000 OA
BRANCH   9  10
ATOM     10  C   UNL     1      45.173   3.249   8.792  0.00  0.00    +0.000 A 
ATOM     11  N   UNL     1      45.512   1.961   8.963  0.00  0.00    +0.000 NA
ATOM     12  C   UNL     1      46.342   1.439   8.040  0.00  0.00    +0.000 A 
ATOM     13  C   UNL     1      46.842   2.147   6.974  0.00  0.00    +0.000 A 
ATOM     14  C   UNL     1      46.420   3.451   6.880  0.00  0.00    +0.000 A 
ATOM     15  N   UNL     1      45.585   4.022   7.764  0.00  0.00    +0.000 NA
ENDBRANCH   9  10
ENDBRANCH   6   9
ENDBRANCH   2   3
BRANCH   2  16
ATOM     16  N   UNL     1      47.850   5.885  14.677  0.00  0.00    +0.000 N 
ATOM     17  C   UNL     1      48.479   6.512  15.728  0.00  0.00    +0.000 C 
ATOM     18  O   UNL     1      48.633   7.730  15.767  0.00  0.00    +0.000 OA
ATOM     19  H   UNL     1      47.899   4.873  14.609  0.00  0.00    +0.000 HD
BRANCH  17  20
ATOM     20  C   UNL     1      48.943   5.660  16.825  0.00  0.00    +0.000 A 
ATOM     21  C   UNL     1      48.026   4.938  17.576  0.00  0.00    +0.000 A 
ATOM     22  S   UNL     1      48.735   4.063  18.856  0.00  0.00    +0.000 S 
ATOM     23  C   UNL     1      50.282   4.668  18.483  0.00  0.00    +0.000 A 
ATOM     24  N   UNL     1      51.354   4.373  19.262  0.00  0.00    +0.000 NA
ATOM     25  C   UNL     1      52.452   4.944  18.895  0.00  0.00    +0.000 A 
ATOM     26  N   UNL     1      52.583   5.752  17.795  0.00  0.00    +0.000 N 
ATOM     27  C   UNL     1      51.543   6.014  16.933  0.00  0.00    +0.000 A 
ATOM     28  O   UNL     1      51.711   6.634  15.888  0.00  0.00    +0.000 OA
ATOM     29  C   UNL     1      50.268   5.465  17.354  0.00  0.00    +0.000 A 
ATOM     30  H   UNL     1      53.483   6.128  17.537  0.00  0.00    +0.000 HD
ENDBRANCH  17  20
ENDBRANCH   2  16
TORSDOF 5
ENDMDL
MODEL 5
REMARK VINA RESULT:    -7.527      2.374      3.156
REMARK INTER + INTRA:         -10.094
REMARK INTER:                  -9.816
REMARK INTRA:                  -0.278
REMARK UNBOUND:                -0.367
REMARK  Name = 
REMARK  6 active torsions:
REMARK  status: ('A' for Active; 'I' for Inactive)
REMARK    1  A    between atoms: C_1  and  C_2
REMARK    2  A    between atoms: C_2  and  N_3
REMARK    3  A    between atoms: C_2  and  C_16
REMARK    4  A    between atoms: C_4  and  C_6
REMARK    5  A    between atoms: C_19  and  O_20
REMARK    6  A    between atoms: O_20  and  C_21
REMARK                            x       y       z     vdW  Elec       q    Type
REMARK                         _______ _______ _______ _____ _____    ______ ____
ROOT
ATOM      1  C   UNL     1      48.785   6.646  12.874  0.00  0.00    +0.000 C 
ATOM      2  C   UNL     1      47.416   6.529  13.559  0.00  0.00    +0.000 C 
ENDROOT
BRANCH   2   3
ATOM      3  C   UNL     1      46.418   5.771  12.714  0.00  0.00    +0.000 A 
ATOM      4  C   UNL     1      45.989   4.476  13.016  0.00  0.00    +0.000 A 
ATOM      5  C   UNL     1      45.233   3.769  12.088  0.00  0.00    +0.000 A 
ATOM      6  C   UNL     1      44.941   4.366  10.866  0.00  0.00    +0.000 A 
ATOM      7  N   UNL     1      45.213   5.663  10.605  0.00  0.00    +0.000 NA
ATOM      8  C   UNL     1      45.942   6.331  11.530  0.00  0.00    +0.000 A 
BRANCH   6   9
ATOM      9  O   UNL     1      44.302   3.684   9.859  0.00  0.00    +0.000 OA
BRANCH   9  10
ATOM     10  C   UNL     1      45.109   3.179   8.846  0.00  0.00    +0.000 A 
ATOM     11  N   UNL     1      45.473   1.895   8.995  0.00  0.00    +0.000 NA
ATOM     12  C   UNL     1      46.308   1.404   8.060  0.00  0.00    +0.000 A 
ATOM     13  C   UNL     1      46.788   2.138   7.002  0.00  0.00    +0.000 A 
ATOM     14  C   UNL     1      46.340   3.434   6.930  0.00  0.00    +0.000 A 
ATOM     15  N   UNL     1      45.499   3.976   7.828  0.00  0.00    +0.000 NA
ENDBRANCH   9  10
ENDBRANCH   6   9
ENDBRANCH   2   3
BRANCH   2  16
ATOM     16  N   UNL     1      47.552   5.943  14.878  0.00  0.00    +0.000 N 
ATOM     17  C   UNL     1      48.374   6.517  15.819  0.00  0.00    +0.000 C 
ATOM     18  O   UNL     1      48.881   7.624  15.658  0.00  0.00    +0.000 OA
ATOM     19  H   UNL     1      47.298   4.965  14.979  0.00  0.00    +0.000 HD
BRANCH  17  20
ATOM     20  C   UNL     1      48.605   5.757  17.049  0.00  0.00    +0.000 A 
ATOM     21  C   UNL     1      49.092   4.459  16.980  0.00  0.00    +0.000 A 
ATOM     22  S   UNL     1      49.228   3.702  18.501  0.00  0.00    +0.000 S 
ATOM     23  C   UNL     1      48.585   5.064  19.295  0.00  0.00    +0.000 A 
ATOM     24  N   UNL     1      48.350   5.047  20.633  0.00  0.00    +0.000 NA
ATOM     25  C   UNL     1      47.810   6.125  21.091  0.00  0.00    +0.000 A 
ATOM     26  N   UNL     1      47.521   7.236  20.341  0.00  0.00    +0.000 N 
ATOM     27  C   UNL     1      47.815   7.327  19.000  0.00  0.00    +0.000 A 
ATOM     28  O   UNL     1      47.665   8.373  18.376  0.00  0.00    +0.000 OA
ATOM     29  C   UNL     1      48.343   6.107  18.421  0.00  0.00    +0.000 A 
ATOM     30  H   UNL     1      47.143   8.065  20.773  0.00  0.00    +0.000 HD
ENDBRANCH  17  20
ENDBRANCH   2  16
TORSDOF 5
ENDMDL
MODEL 6
REMARK VINA RESULT:    -7.492      2.869      3.647
REMARK INTER + INTRA:         -10.048
REMARK INTER:                  -8.999
REMARK INTRA:                  -1.049
REMARK UNBOUND:                -0.367
REMARK  Name = 
REMARK  6 active torsions:
REMARK  status: ('A' for Active; 'I' for Inactive)
REMARK    1  A    between atoms: C_1  and  C_2
REMARK    2  A    between atoms: C_2  and  N_3
REMARK    3  A    between atoms: C_2  and  C_16
REMARK    4  A    between atoms: C_4  and  C_6
REMARK    5  A    between atoms: C_19  and  O_20
REMARK    6  A    between atoms: O_20  and  C_21
REMARK                            x       y       z     vdW  Elec       q    Type
REMARK                         _______ _______ _______ _____ _____    ______ ____
ROOT
ATOM      1  C   UNL     1      47.231   4.387  15.587  0.00  0.00    +0.000 C 
ATOM      2  C   UNL     1      47.559   5.316  14.409  0.00  0.00    +0.000 C 
ENDROOT
BRANCH   2   3
ATOM      3  C   UNL     1      46.573   5.167  13.274  0.00  0.00    +0.000 A 
ATOM      4  C   UNL     1      45.597   4.169  13.234  0.00  0.00    +0.000 A 
ATOM      5  C   UNL     1      44.865   3.967  12.069  0.00  0.00    +0.000 A 
ATOM      6  C   UNL     1      45.141   4.758  10.959  0.00  0.00    +0.000 A 
ATOM      7  N   UNL     1      45.969   5.824  11.011  0.00  0.00    +0.000 NA
ATOM      8  C   UNL     1      46.663   6.002  12.161  0.00  0.00    +0.000 A 
BRANCH   6   9
ATOM      9  O   UNL     1      44.542   4.537   9.742  0.00  0.00    +0.000 OA
BRANCH   9  10
ATOM     10  C   UNL     1      45.264   3.781   8.827  0.00  0.00    +0.000 A 
ATOM     11  N   UNL     1      45.282   2.460   9.068  0.00  0.00    +0.000 NA
ATOM     12  C   UNL     1      46.028   1.715   8.231  0.00  0.00    +0.000 A 
ATOM     13  C   UNL     1      46.750   2.233   7.183  0.00  0.00    +0.000 A 
ATOM     14  C   UNL     1      46.649   3.592   7.011  0.00  0.00    +0.000 A 
ATOM     15  N   UNL     1      45.912   4.384   7.808  0.00  0.00    +0.000 NA
ENDBRANCH   9  10
ENDBRANCH   6   9
ENDBRANCH   2   3
BRANCH   2  16
ATOM     16  N   UNL     1      47.655   6.692  14.855  0.00  0.00    +0.000 N 
ATOM     17  C   UNL     1      48.860   7.353  14.834  0.00  0.00    +0.000 C 
ATOM     18  O   UNL     1      49.854   6.886  14.284  0.00  0.00    +0.000 OA
ATOM     19  H   UNL     1      46.917   7.035  15.462  0.00  0.00    +0.000 HD
BRANCH  17  20
ATOM     20  C   UNL     1      48.907   8.666  15.481  0.00  0.00    +0.000 A 
ATOM     21  C   UNL     1      49.174   9.800  14.727  0.00  0.00    +0.000 A 
ATOM     22  S   UNL     1      49.265  11.228  15.655  0.00  0.00    +0.000 S 
ATOM     23  C   UNL     1      49.008  10.366  17.101  0.00  0.00    +0.000 A 
ATOM     24  N   UNL     1      49.054  10.992  18.306  0.00  0.00    +0.000 NA
ATOM     25  C   UNL     1      48.897  10.209  19.319  0.00  0.00    +0.000 A 
ATOM     26  N   UNL     1      48.660   8.861  19.236  0.00  0.00    +0.000 N 
ATOM     27  C   UNL     1      48.527   8.199  18.037  0.00  0.00    +0.000 A 
ATOM     28  O   UNL     1      48.190   7.020  17.984  0.00  0.00    +0.000 OA
ATOM     29  C   UNL     1      48.782   9.022  16.871  0.00  0.00    +0.000 A 
ATOM     30  H   UNL     1      48.499   8.314  20.068  0.00  0.00    +0.000 HD
ENDBRANCH  17  20
ENDBRANCH   2  16
TORSDOF 5
ENDMDL
MODEL 7
REMARK VINA RESULT:    -7.442      2.593      3.591
REMARK INTER + INTRA:          -9.984
REMARK INTER:                  -9.044
REMARK INTRA:                  -0.940
REMARK UNBOUND:                -0.367
REMARK  Name = 
REMARK  6 active torsions:
REMARK  status: ('A' for Active; 'I' for Inactive)
REMARK    1  A    between atoms: C_1  and  C_2
REMARK    2  A    between atoms: C_2  and  N_3
REMARK    3  A    between atoms: C_2  and  C_16
REMARK    4  A    between atoms: C_4  and  C_6
REMARK    5  A    between atoms: C_19  and  O_20
REMARK    6  A    between atoms: O_20  and  C_21
REMARK                            x       y       z     vdW  Elec       q    Type
REMARK                         _______ _______ _______ _____ _____    ______ ____
ROOT
ATOM      1  C   UNL     1      49.319   7.118  12.988  0.00  0.00    +0.000 C 
ATOM      2  C   UNL     1      47.926   7.542  13.476  0.00  0.00    +0.000 C 
ENDROOT
BRANCH   2   3
ATOM      3  C   UNL     1      46.824   6.744  12.818  0.00  0.00    +0.000 A 
ATOM      4  C   UNL     1      46.559   5.408  13.126  0.00  0.00    +0.000 A 
ATOM      5  C   UNL     1      45.671   4.683  12.339  0.00  0.00    +0.000 A 
ATOM      6  C   UNL     1      45.083   5.306  11.244  0.00  0.00    +0.000 A 
ATOM      7  N   UNL     1      45.203   6.631  11.008  0.00  0.00    +0.000 NA
ATOM      8  C   UNL     1      46.067   7.314  11.796  0.00  0.00    +0.000 A 
BRANCH   6   9
ATOM      9  O   UNL     1      44.291   4.619  10.355  0.00  0.00    +0.000 OA
BRANCH   9  10
ATOM     10  C   UNL     1      44.952   3.882   9.381  0.00  0.00    +0.000 A 
ATOM     11  N   UNL     1      44.936   2.551   9.567  0.00  0.00    +0.000 NA
ATOM     12  C   UNL     1      45.625   1.820   8.670  0.00  0.00    +0.000 A 
ATOM     13  C   UNL     1      46.322   2.360   7.616  0.00  0.00    +0.000 A 
ATOM     14  C   UNL     1      46.259   3.728   7.505  0.00  0.00    +0.000 A 
ATOM     15  N   UNL     1      45.580   4.508   8.363  0.00  0.00    +0.000 NA
ENDBRANCH   9  10
ENDBRANCH   6   9
ENDBRANCH   2   3
BRANCH   2  16
ATOM     16  N   UNL     1      47.846   7.469  14.921  0.00  0.00    +0.000 N 
ATOM     17  C   UNL     1      48.406   8.451  15.704  0.00  0.00    +0.000 C 
ATOM     18  O   UNL     1      48.833   9.502  15.233  0.00  0.00    +0.000 OA
ATOM     19  H   UNL     1      47.666   6.558  15.331  0.00  0.00    +0.000 HD
BRANCH  17  20
ATOM     20  C   UNL     1      48.452   8.202  17.147  0.00  0.00    +0.000 A 
ATOM     21  C   UNL     1      48.062   9.196  18.033  0.00  0.00    +0.000 A 
ATOM     22  S   UNL     1      48.252   8.760  19.671  0.00  0.00    +0.000 S 
ATOM     23  C   UNL     1      48.915   7.250  19.245  0.00  0.00    +0.000 A 
ATOM     24  N   UNL     1      49.381   6.399  20.196  0.00  0.00    +0.000 NA
ATOM     25  C   UNL     1      49.907   5.317  19.729  0.00  0.00    +0.000 A 
ATOM     26  N   UNL     1      49.974   4.991  18.399  0.00  0.00    +0.000 N 
ATOM     27  C   UNL     1      49.445   5.786  17.408  0.00  0.00    +0.000 A 
ATOM     28  O   UNL     1      49.403   5.417  16.238  0.00  0.00    +0.000 OA
ATOM     29  C   UNL     1      48.921   7.053  17.878  0.00  0.00    +0.000 A 
ATOM     30  H   UNL     1      50.356   4.105  18.104  0.00  0.00    +0.000 HD
ENDBRANCH  17  20
ENDBRANCH   2  16
TORSDOF 5
ENDMDL
MODEL 8
REMARK VINA RESULT:    -7.273      2.644      4.402
REMARK INTER + INTRA:          -9.766
REMARK INTER:                  -9.231
REMARK INTRA:                  -0.535
REMARK UNBOUND:                -0.367
REMARK  Name = 
REMARK  6 active torsions:
REMARK  status: ('A' for Active; 'I' for Inactive)
REMARK    1  A    between atoms: C_1  and  C_2
REMARK    2  A    between atoms: C_2  and  N_3
REMARK    3  A    between atoms: C_2  and  C_16
REMARK    4  A    between atoms: C_4  and  C_6
REMARK    5  A    between atoms: C_19  and  O_20
REMARK    6  A    between atoms: O_20  and  C_21
REMARK                            x       y       z     vdW  Elec       q    Type
REMARK                         _______ _______ _______ _____ _____    ______ ____
ROOT
ATOM      1  C   UNL     1      49.229   7.927  14.751  0.00  0.00    +0.000 C 
ATOM      2  C   UNL     1      48.475   6.718  15.325  0.00  0.00    +0.000 C 
ENDROOT
BRANCH   2   3
ATOM      3  C   UNL     1      47.624   6.029  14.284  0.00  0.00    +0.000 A 
ATOM      4  C   UNL     1      47.268   6.626  13.072  0.00  0.00    +0.000 A 
ATOM      5  C   UNL     1      46.318   6.017  12.259  0.00  0.00    +0.000 A 
ATOM      6  C   UNL     1      45.729   4.832  12.687  0.00  0.00    +0.000 A 
ATOM      7  N   UNL     1      46.157   4.157  13.776  0.00  0.00    +0.000 NA
ATOM      8  C   UNL     1      47.089   4.769  14.545  0.00  0.00    +0.000 A 
BRANCH   6   9
ATOM      9  O   UNL     1      44.702   4.239  11.994  0.00  0.00    +0.000 OA
BRANCH   9  10
ATOM     10  C   UNL     1      44.979   3.853  10.689  0.00  0.00    +0.000 A 
ATOM     11  N   UNL     1      45.286   4.857   9.851  0.00  0.00    +0.000 NA
ATOM     12  C   UNL     1      45.495   4.513   8.566  0.00  0.00    +0.000 A 
ATOM     13  C   UNL     1      45.406   3.225   8.095  0.00  0.00    +0.000 A 
ATOM     14  C   UNL     1      45.106   2.271   9.036  0.00  0.00    +0.000 A 
ATOM     15  N   UNL     1      44.896   2.553  10.333  0.00  0.00    +0.000 NA
ENDBRANCH   9  10
ENDBRANCH   6   9
ENDBRANCH   2   3
BRANCH   2  16
ATOM     16  N   UNL     1      49.396   5.794  15.958  0.00  0.00    +0.000 N 
ATOM     17  C   UNL     1      49.512   5.747  17.327  0.00  0.00    +0.000 C 
ATOM     18  O   UNL     1      48.736   6.340  18.071  0.00  0.00    +0.000 OA
ATOM     19  H   UNL     1      50.155   5.433  15.388  0.00  0.00    +0.000 HD
BRANCH  17  20
ATOM     20  C   UNL     1      50.600   4.931  17.872  0.00  0.00    +0.000 A 
ATOM     21  C   UNL     1      51.606   5.528  18.616  0.00  0.00    +0.000 A 
ATOM     22  S   UNL     1      52.826   4.442  19.106  0.00  0.00    +0.000 S 
ATOM     23  C   UNL     1      52.075   3.150  18.289  0.00  0.00    +0.000 A 
ATOM     24  N   UNL     1      52.659   1.925  18.235  0.00  0.00    +0.000 NA
ATOM     25  C   UNL     1      52.007   1.057  17.536  0.00  0.00    +0.000 A 
ATOM     26  N   UNL     1      50.805   1.291  16.920  0.00  0.00    +0.000 N 
ATOM     27  C   UNL     1      50.141   2.492  17.015  0.00  0.00    +0.000 A 
ATOM     28  O   UNL     1      49.010   2.641  16.562  0.00  0.00    +0.000 OA
ATOM     29  C   UNL     1      50.875   3.526  17.717  0.00  0.00    +0.000 A 
ATOM     30  H   UNL     1      50.326   0.552  16.429  0.00  0.00    +0.000 HD
ENDBRANCH  17  20
ENDBRANCH   2  16
TORSDOF 5
ENDMDL
MODEL 9
REMARK VINA RESULT:    -7.025      4.121      5.072
REMARK INTER + INTRA:          -9.445
REMARK INTER:                  -8.819
REMARK INTRA:                  -0.626
REMARK UNBOUND:                -0.367
REMARK  Name = 
REMARK  6 active torsions:
REMARK  status: ('A' for Active; 'I' for Inactive)
REMARK    1  A    between atoms: C_1  and  C_2
REMARK    2  A    between atoms: C_2  and  N_3
REMARK    3  A    between atoms: C_2  and  C_16
REMARK    4  A    between atoms: C_4  and  C_6
REMARK    5  A    between atoms: C_19  and  O_20
REMARK    6  A    between atoms: O_20  and  C_21
REMARK                            x       y       z     vdW  Elec       q    Type
REMARK                         _______ _______ _______ _____ _____    ______ ____
ROOT
ATOM      1  C   UNL     1      45.637   8.006  12.912  0.00  0.00    +0.000 C 
ATOM      2  C   UNL     1      46.525   6.844  12.444  0.00  0.00    +0.000 C 
ENDROOT
BRANCH   2   3
ATOM      3  C   UNL     1      45.783   5.887  11.540  0.00  0.00    +0.000 A 
ATOM      4  C   UNL     1      45.011   4.827  12.019  0.00  0.00    +0.000 A 
ATOM      5  C   UNL     1      44.529   3.871  11.131  0.00  0.00    +0.000 A 
ATOM      6  C   UNL     1      44.850   3.986   9.783  0.00  0.00    +0.000 A 
ATOM      7  N   UNL     1      45.466   5.073   9.270  0.00  0.00    +0.000 NA
ATOM      8  C   UNL     1      45.916   5.993  10.156  0.00  0.00    +0.000 A 
BRANCH   6   9
ATOM      9  O   UNL     1      44.510   3.016   8.870  0.00  0.00    +0.000 OA
BRANCH   9  10
ATOM     10  C   UNL     1      45.525   2.574   8.032  0.00  0.00    +0.000 A 
ATOM     11  N   UNL     1      46.105   1.420   8.400  0.00  0.00    +0.000 NA
ATOM     12  C   UNL     1      47.134   1.005   7.638  0.00  0.00    +0.000 A 
ATOM     13  C   UNL     1      47.602   1.692   6.543  0.00  0.00    +0.000 A 
ATOM     14  C   UNL     1      46.927   2.849   6.240  0.00  0.00    +0.000 A 
ATOM     15  N   UNL     1      45.888   3.307   6.957  0.00  0.00    +0.000 NA
ENDBRANCH   9  10
ENDBRANCH   6   9
ENDBRANCH   2   3
BRANCH   2  16
ATOM     16  N   UNL     1      47.732   7.344  11.816  0.00  0.00    +0.000 N 
ATOM     17  C   UNL     1      48.949   7.228  12.445  0.00  0.00    +0.000 C 
ATOM     18  O   UNL     1      49.101   6.555  13.461  0.00  0.00    +0.000 OA
ATOM     19  H   UNL     1      47.621   8.041  11.086  0.00  0.00    +0.000 HD
BRANCH  17  20
ATOM     20  C   UNL     1      50.081   7.930  11.834  0.00  0.00    +0.000 A 
ATOM     21  C   UNL     1      50.896   7.269  10.926  0.00  0.00    +0.000 A 
ATOM     22  S   UNL     1      52.204   8.214  10.374  0.00  0.00    +0.000 S 
ATOM     23  C   UNL     1      51.754   9.515  11.376  0.00  0.00    +0.000 A 
ATOM     24  N   UNL     1      52.519  10.635  11.453  0.00  0.00    +0.000 NA
ATOM     25  C   UNL     1      52.090  11.516  12.292  0.00  0.00    +0.000 A 
ATOM     26  N   UNL     1      50.942  11.396  13.032  0.00  0.00    +0.000 N 
ATOM     27  C   UNL     1      50.097  10.316  12.929  0.00  0.00    +0.000 A 
ATOM     28  O   UNL     1      49.014  10.287  13.505  0.00  0.00    +0.000 OA
ATOM     29  C   UNL     1      50.582   9.260  12.062  0.00  0.00    +0.000 A 
ATOM     30  H   UNL     1      50.638  12.146  13.636  0.00  0.00    +0.000 HD
ENDBRANCH  17  20
ENDBRANCH   2  16
TORSDOF 5
ENDMDL
