MODEL 1
REMARK VINA RESULT:    -8.029      0.000      0.000
REMARK INTER + INTRA:         -13.093
REMARK INTER:                 -11.783
REMARK INTRA:                  -1.310
REMARK UNBOUND:                -1.310
REMARK  Name = 
REMARK  10 active torsions:
REMARK  status: ('A' for Active; 'I' for Inactive)
REMARK    1  A    between atoms: C_1  and  O_2
REMARK    2  A    between atoms: O_2  and  C_3
REMARK    3  A    between atoms: C_10  and  C_11
REMARK    4  A    between atoms: N_13  and  C_14
REMARK    5  A    between atoms: C_14  and  C_15
REMARK    6  A    between atoms: C_18  and  C_19
REMARK    7  A    between atoms: C_19  and  N_20
REMARK    8  A    between atoms: N_20  and  C_21
REMARK    9  A    between atoms: C_21  and  C_22
REMARK   10  A    between atoms: C_24  and  C_25
REMARK                            x       y       z     vdW  Elec       q    Type
REMARK                         _______ _______ _______ _____ _____    ______ ____
ROOT
ATOM      1  C   UNL     1      47.287   6.313  12.977  0.00  0.00    +0.000 A 
ATOM      2  C   UNL     1      46.935   6.881  11.745  0.00  0.00    +0.000 A 
ATOM      3  C   UNL     1      45.683   6.625  11.176  0.00  0.00    +0.000 A 
ATOM      4  C   UNL     1      44.753   5.800  11.825  0.00  0.00    +0.000 A 
ATOM      5  C   UNL     1      45.114   5.219  13.048  0.00  0.00    +0.000 A 
ATOM      6  C   UNL     1      46.366   5.477  13.620  0.00  0.00    +0.000 A 
ENDROOT
BRANCH   1   7
ATOM      7  C   UNL     1      48.611   6.641  13.618  0.00  0.00    +0.000 C 
BRANCH   7  10
ATOM      8  C   UNL     1      49.487   7.180  15.843  0.00  0.00    +0.000 C 
ATOM      9  O   UNL     1      50.471   7.722  15.341  0.00  0.00    +0.000 OA
ATOM     10  N   UNL     1      48.521   6.610  15.059  0.00  0.00    +0.000 N 
ATOM     11  H   UNL     1      47.710   6.177  15.478  0.00  0.00    +0.000 HD
BRANCH   8  19
ATOM     12  C   UNL     1      48.944   4.632  18.107  0.00  0.00    +0.000 A 
ATOM     13  N   UNL     1      48.685   3.858  19.182  0.00  0.00    +0.000 NA
ATOM     14  C   UNL     1      48.580   4.451  20.373  0.00  0.00    +0.000 A 
ATOM     15  N   UNL     1      48.710   5.748  20.636  0.00  0.00    +0.000 NA
ATOM     16  C   UNL     1      48.953   6.484  19.537  0.00  0.00    +0.000 A 
ATOM     17  S   UNL     1      49.154   8.163  19.688  0.00  0.00    +0.000 S 
ATOM     18  C   UNL     1      49.386   8.330  18.014  0.00  0.00    +0.000 A 
ATOM     19  C   UNL     1      49.316   7.133  17.307  0.00  0.00    +0.000 A 
ATOM     20  C   UNL     1      49.074   6.026  18.228  0.00  0.00    +0.000 A 
BRANCH  12  22
ATOM     21  C   UNL     1      47.844   3.391  16.468  0.00  0.00    +0.000 C 
ATOM     22  O   UNL     1      49.058   4.018  16.878  0.00  0.00    +0.000 OA
ENDBRANCH  12  22
ENDBRANCH   8  19
ENDBRANCH   7  10
ENDBRANCH   1   7
BRANCH   4  23
ATOM     23  C   UNL     1      43.375   5.583  11.238  0.00  0.00    +0.000 C 
BRANCH  23  24
ATOM     24  N   UNL     1      43.444   4.958   9.921  0.00  0.00    +0.000 NA
ATOM     25  H   UNL     1      44.107   5.476   9.344  0.00  0.00    +0.000 HD
BRANCH  24  26
ATOM     26  C   UNL     1      43.917   3.568  10.018  0.00  0.00    +0.000 C 
BRANCH  26  27
ATOM     27  C   UNL     1      45.009   3.271   9.006  0.00  0.00    +0.000 A 
ATOM     28  C   UNL     1      45.435   1.955   8.809  0.00  0.00    +0.000 A 
ATOM     29  C   UNL     1      46.419   1.688   7.856  0.00  0.00    +0.000 A 
ATOM     30  C   UNL     1      46.884   0.288   7.596  0.00  0.00    +0.000 C 
ATOM     31  C   UNL     1      46.957   2.756   7.140  0.00  0.00    +0.000 A 
ATOM     32  C   UNL     1      46.486   4.033   7.404  0.00  0.00    +0.000 A 
ATOM     33  N   UNL     1      45.527   4.315   8.313  0.00  0.00    +0.000 NA
ENDBRANCH  26  27
ENDBRANCH  24  26
ENDBRANCH  23  24
ENDBRANCH   4  23
TORSDOF 8
ENDMDL
MODEL 2
REMARK VINA RESULT:    -7.860      1.588      1.839
REMARK INTER + INTRA:         -12.846
REMARK INTER:                 -11.678
REMARK INTRA:                  -1.168
REMARK UNBOUND:                -1.310
REMARK  Name = 
REMARK  10 active torsions:
REMARK  status: ('A' for Active; 'I' for Inactive)
REMARK    1  A    between atoms: C_1  and  O_2
REMARK    2  A    between atoms: O_2  and  C_3
REMARK    3  A    between atoms: C_10  and  C_11
REMARK    4  A    between atoms: N_13  and  C_14
REMARK    5  A    between atoms: C_14  and  C_15
REMARK    6  A    between atoms: C_18  and  C_19
REMARK    7  A    between atoms: C_19  and  N_20
REMARK    8  A    between atoms: N_20  and  C_21
REMARK    9  A    between atoms: C_21  and  C_22
REMARK   10  A    between atoms: C_24  and  C_25
REMARK                            x       y       z     vdW  Elec       q    Type
REMARK                         _______ _______ _______ _____ _____    ______ ____
ROOT
ATOM      1  C   UNL     1      46.280   6.651  13.081  0.00  0.00    +0.000 A 
ATOM      2  C   UNL     1      44.946   6.879  12.718  0.00  0.00    +0.000 A 
ATOM      3  C   UNL     1      44.093   5.808  12.433  0.00  0.00    +0.000 A 
ATOM      4  C   UNL     1      44.552   4.485  12.506  0.00  0.00    +0.000 A 
ATOM      5  C   UNL     1      45.891   4.259  12.851  0.00  0.00    +0.000 A 
ATOM      6  C   UNL     1      46.745   5.331  13.139  0.00  0.00    +0.000 A 
ENDROOT
BRANCH   1   7
ATOM      7  C   UNL     1      47.179   7.804  13.449  0.00  0.00    +0.000 C 
BRANCH   7  10
ATOM      8  C   UNL     1      49.406   7.375  14.378  0.00  0.00    +0.000 C 
ATOM      9  O   UNL     1      49.919   7.570  13.277  0.00  0.00    +0.000 OA
ATOM     10  N   UNL     1      48.051   7.462  14.547  0.00  0.00    +0.000 N 
ATOM     11  H   UNL     1      47.637   7.312  15.457  0.00  0.00    +0.000 HD
BRANCH   8  19
ATOM     12  C   UNL     1      49.012   5.250  17.068  0.00  0.00    +0.000 A 
ATOM     13  N   UNL     1      49.098   4.557  18.224  0.00  0.00    +0.000 NA
ATOM     14  C   UNL     1      50.187   4.725  18.978  0.00  0.00    +0.000 A 
ATOM     15  N   UNL     1      51.227   5.511  18.718  0.00  0.00    +0.000 NA
ATOM     16  C   UNL     1      51.095   6.192  17.566  0.00  0.00    +0.000 A 
ATOM     17  S   UNL     1      52.335   7.240  17.072  0.00  0.00    +0.000 S 
ATOM     18  C   UNL     1      51.473   7.675  15.676  0.00  0.00    +0.000 A 
ATOM     19  C   UNL     1      50.238   7.047  15.551  0.00  0.00    +0.000 A 
ATOM     20  C   UNL     1      50.023   6.144  16.679  0.00  0.00    +0.000 A 
BRANCH  12  22
ATOM     21  C   UNL     1      47.148   3.910  16.657  0.00  0.00    +0.000 C 
ATOM     22  O   UNL     1      47.890   5.071  16.287  0.00  0.00    +0.000 OA
ENDBRANCH  12  22
ENDBRANCH   8  19
ENDBRANCH   7  10
ENDBRANCH   1   7
BRANCH   4  23
ATOM     23  C   UNL     1      43.606   3.327  12.264  0.00  0.00    +0.000 C 
BRANCH  23  24
ATOM     24  N   UNL     1      43.917   2.631  11.019  0.00  0.00    +0.000 NA
ATOM     25  H   UNL     1      43.185   1.944  10.834  0.00  0.00    +0.000 HD
BRANCH  24  26
ATOM     26  C   UNL     1      43.959   3.566   9.885  0.00  0.00    +0.000 C 
BRANCH  26  27
ATOM     27  C   UNL     1      45.060   3.214   8.901  0.00  0.00    +0.000 A 
ATOM     28  C   UNL     1      45.455   1.883   8.746  0.00  0.00    +0.000 A 
ATOM     29  C   UNL     1      46.448   1.565   7.818  0.00  0.00    +0.000 A 
ATOM     30  C   UNL     1      46.880   0.148   7.602  0.00  0.00    +0.000 C 
ATOM     31  C   UNL     1      47.026   2.600   7.085  0.00  0.00    +0.000 A 
ATOM     32  C   UNL     1      46.585   3.896   7.307  0.00  0.00    +0.000 A 
ATOM     33  N   UNL     1      45.617   4.226   8.191  0.00  0.00    +0.000 NA
ENDBRANCH  26  27
ENDBRANCH  24  26
ENDBRANCH  23  24
ENDBRANCH   4  23
TORSDOF 8
ENDMDL
MODEL 3
REMARK VINA RESULT:    -7.372      1.789      3.272
REMARK INTER + INTRA:         -12.130
REMARK INTER:                 -11.102
REMARK INTRA:                  -1.028
REMARK UNBOUND:                -1.310
REMARK  Name = 
REMARK  10 active torsions:
REMARK  status: ('A' for Active; 'I' for Inactive)
REMARK    1  A    between atoms: C_1  and  O_2
REMARK    2  A    between atoms: O_2  and  C_3
REMARK    3  A    between atoms: C_10  and  C_11
REMARK    4  A    between atoms: N_13  and  C_14
REMARK    5  A    between atoms: C_14  and  C_15
REMARK    6  A    between atoms: C_18  and  C_19
REMARK    7  A    between atoms: C_19  and  N_20
REMARK    8  A    between atoms: N_20  and  C_21
REMARK    9  A    between atoms: C_21  and  C_22
REMARK   10  A    between atoms: C_24  and  C_25
REMARK                            x       y       z     vdW  Elec       q    Type
REMARK                         _______ _______ _______ _____ _____    ______ ____
ROOT
ATOM      1  C   UNL     1      46.359   4.320  13.633  0.00  0.00    +0.000 A 
ATOM      2  C   UNL     1      45.990   5.626  13.282  0.00  0.00    +0.000 A 
ATOM      3  C   UNL     1      45.078   5.854  12.246  0.00  0.00    +0.000 A 
ATOM      4  C   UNL     1      44.512   4.784  11.539  0.00  0.00    +0.000 A 
ATOM      5  C   UNL     1      44.896   3.480  11.878  0.00  0.00    +0.000 A 
ATOM      6  C   UNL     1      45.806   3.250  12.917  0.00  0.00    +0.000 A 
ENDROOT
BRANCH   1   7
ATOM      7  C   UNL     1      47.293   4.075  14.790  0.00  0.00    +0.000 C 
BRANCH   7  10
ATOM      8  C   UNL     1      48.463   5.349  16.526  0.00  0.00    +0.000 C 
ATOM      9  O   UNL     1      49.209   4.395  16.744  0.00  0.00    +0.000 OA
ATOM     10  N   UNL     1      47.478   5.270  15.579  0.00  0.00    +0.000 N 
ATOM     11  H   UNL     1      46.878   6.062  15.397  0.00  0.00    +0.000 HD
BRANCH   8  19
ATOM     12  C   UNL     1      48.925   8.641  15.599  0.00  0.00    +0.000 A 
ATOM     13  N   UNL     1      49.154   9.969  15.525  0.00  0.00    +0.000 NA
ATOM     14  C   UNL     1      49.251  10.655  16.667  0.00  0.00    +0.000 A 
ATOM     15  N   UNL     1      49.142  10.173  17.901  0.00  0.00    +0.000 NA
ATOM     16  C   UNL     1      48.929   8.846  17.930  0.00  0.00    +0.000 A 
ATOM     17  S   UNL     1      48.757   8.063  19.426  0.00  0.00    +0.000 S 
ATOM     18  C   UNL     1      48.553   6.558  18.665  0.00  0.00    +0.000 A 
ATOM     19  C   UNL     1      48.612   6.611  17.276  0.00  0.00    +0.000 A 
ATOM     20  C   UNL     1      48.820   7.988  16.839  0.00  0.00    +0.000 A 
BRANCH  12  22
ATOM     21  C   UNL     1      47.944   8.564  13.484  0.00  0.00    +0.000 C 
ATOM     22  O   UNL     1      48.819   7.935  14.419  0.00  0.00    +0.000 OA
ENDBRANCH  12  22
ENDBRANCH   8  19
ENDBRANCH   7  10
ENDBRANCH   1   7
BRANCH   4  23
ATOM     23  C   UNL     1      43.473   5.033  10.466  0.00  0.00    +0.000 C 
BRANCH  23  24
ATOM     24  N   UNL     1      43.769   4.285   9.247  0.00  0.00    +0.000 NA
ATOM     25  H   UNL     1      43.114   4.570   8.518  0.00  0.00    +0.000 HD
BRANCH  24  26
ATOM     26  C   UNL     1      45.131   4.570   8.769  0.00  0.00    +0.000 C 
BRANCH  26  27
ATOM     27  C   UNL     1      45.771   3.352   8.126  0.00  0.00    +0.000 A 
ATOM     28  C   UNL     1      46.506   3.493   6.948  0.00  0.00    +0.000 A 
ATOM     29  C   UNL     1      47.115   2.372   6.380  0.00  0.00    +0.000 A 
ATOM     30  C   UNL     1      47.935   2.486   5.132  0.00  0.00    +0.000 C 
ATOM     31  C   UNL     1      46.952   1.139   7.009  0.00  0.00    +0.000 A 
ATOM     32  C   UNL     1      46.197   1.083   8.171  0.00  0.00    +0.000 A 
ATOM     33  N   UNL     1      45.608   2.156   8.745  0.00  0.00    +0.000 NA
ENDBRANCH  26  27
ENDBRANCH  24  26
ENDBRANCH  23  24
ENDBRANCH   4  23
TORSDOF 8
ENDMDL
MODEL 4
REMARK VINA RESULT:    -7.227      2.049      2.915
REMARK INTER + INTRA:         -11.916
REMARK INTER:                 -10.968
REMARK INTRA:                  -0.948
REMARK UNBOUND:                -1.310
REMARK  Name = 
REMARK  10 active torsions:
REMARK  status: ('A' for Active; 'I' for Inactive)
REMARK    1  A    between atoms: C_1  and  O_2
REMARK    2  A    between atoms: O_2  and  C_3
REMARK    3  A    between atoms: C_10  and  C_11
REMARK    4  A    between atoms: N_13  and  C_14
REMARK    5  A    between atoms: C_14  and  C_15
REMARK    6  A    between atoms: C_18  and  C_19
REMARK    7  A    between atoms: C_19  and  N_20
REMARK    8  A    between atoms: N_20  and  C_21
REMARK    9  A    between atoms: C_21  and  C_22
REMARK   10  A    between atoms: C_24  and  C_25
REMARK                            x       y       z     vdW  Elec       q    Type
REMARK                         _______ _______ _______ _____ _____    ______ ____
ROOT
ATOM      1  C   UNL     1      46.524   4.648  13.742  0.00  0.00    +0.000 A 
ATOM      2  C   UNL     1      46.024   5.856  13.240  0.00  0.00    +0.000 A 
ATOM      3  C   UNL     1      45.058   5.862  12.228  0.00  0.00    +0.000 A 
ATOM      4  C   UNL     1      44.568   4.660  11.697  0.00  0.00    +0.000 A 
ATOM      5  C   UNL     1      45.082   3.453  12.187  0.00  0.00    +0.000 A 
ATOM      6  C   UNL     1      46.047   3.447  13.202  0.00  0.00    +0.000 A 
ENDROOT
BRANCH   1   7
ATOM      7  C   UNL     1      47.517   4.644  14.876  0.00  0.00    +0.000 C 
BRANCH   7  10
ATOM      8  C   UNL     1      48.821   6.278  16.156  0.00  0.00    +0.000 C 
ATOM      9  O   UNL     1      49.665   5.422  16.417  0.00  0.00    +0.000 OA
ATOM     10  N   UNL     1      47.718   5.973  15.404  0.00  0.00    +0.000 N 
ATOM     11  H   UNL     1      47.036   6.684  15.182  0.00  0.00    +0.000 HD
BRANCH   8  19
ATOM     12  C   UNL     1      47.652   7.989  18.916  0.00  0.00    +0.000 A 
ATOM     13  N   UNL     1      47.302   8.895  19.853  0.00  0.00    +0.000 NA
ATOM     14  C   UNL     1      47.754  10.144  19.721  0.00  0.00    +0.000 A 
ATOM     15  N   UNL     1      48.534  10.615  18.752  0.00  0.00    +0.000 NA
ATOM     16  C   UNL     1      48.847   9.685  17.833  0.00  0.00    +0.000 A 
ATOM     17  S   UNL     1      49.844  10.109  16.526  0.00  0.00    +0.000 S 
ATOM     18  C   UNL     1      49.753   8.538  15.889  0.00  0.00    +0.000 A 
ATOM     19  C   UNL     1      48.974   7.663  16.640  0.00  0.00    +0.000 A 
ATOM     20  C   UNL     1      48.447   8.351  17.815  0.00  0.00    +0.000 A 
BRANCH  12  22
ATOM     21  C   UNL     1      47.511   6.140  20.329  0.00  0.00    +0.000 C 
ATOM     22  O   UNL     1      47.190   6.698  19.057  0.00  0.00    +0.000 OA
ENDBRANCH  12  22
ENDBRANCH   8  19
ENDBRANCH   7  10
ENDBRANCH   1   7
BRANCH   4  23
ATOM     23  C   UNL     1      43.472   4.671  10.651  0.00  0.00    +0.000 C 
BRANCH  23  24
ATOM     24  N   UNL     1      43.739   3.709   9.585  0.00  0.00    +0.000 NA
ATOM     25  H   UNL     1      42.875   3.546   9.065  0.00  0.00    +0.000 HD
BRANCH  24  26
ATOM     26  C   UNL     1      44.743   4.227   8.644  0.00  0.00    +0.000 C 
BRANCH  26  27
ATOM     27  C   UNL     1      45.570   3.112   8.029  0.00  0.00    +0.000 A 
ATOM     28  C   UNL     1      46.281   3.342   6.850  0.00  0.00    +0.000 A 
ATOM     29  C   UNL     1      47.062   2.319   6.307  0.00  0.00    +0.000 A 
ATOM     30  C   UNL     1      47.861   2.535   5.059  0.00  0.00    +0.000 C 
ATOM     31  C   UNL     1      47.091   1.089   6.962  0.00  0.00    +0.000 A 
ATOM     32  C   UNL     1      46.347   0.939   8.122  0.00  0.00    +0.000 A 
ATOM     33  N   UNL     1      45.594   1.918   8.672  0.00  0.00    +0.000 NA
ENDBRANCH  26  27
ENDBRANCH  24  26
ENDBRANCH  23  24
ENDBRANCH   4  23
TORSDOF 8
ENDMDL
MODEL 5
REMARK VINA RESULT:    -7.014      3.175      4.878
REMARK INTER + INTRA:         -11.604
REMARK INTER:                 -10.078
REMARK INTRA:                  -1.526
REMARK UNBOUND:                -1.310
REMARK  Name = 
REMARK  10 active torsions:
REMARK  status: ('A' for Active; 'I' for Inactive)
REMARK    1  A    between atoms: C_1  and  O_2
REMARK    2  A    between atoms: O_2  and  C_3
REMARK    3  A    between atoms: C_10  and  C_11
REMARK    4  A    between atoms: N_13  and  C_14
REMARK    5  A    between atoms: C_14  and  C_15
REMARK    6  A    between atoms: C_18  and  C_19
REMARK    7  A    between atoms: C_19  and  N_20
REMARK    8  A    between atoms: N_20  and  C_21
REMARK    9  A    between atoms: C_21  and  C_22
REMARK   10  A    between atoms: C_24  and  C_25
REMARK                            x       y       z     vdW  Elec       q    Type
REMARK                         _______ _______ _______ _____ _____    ______ ____
ROOT
ATOM      1  C   UNL     1      47.611   4.145  15.882  0.00  0.00    +0.000 A 
ATOM      2  C   UNL     1      48.129   5.446  15.911  0.00  0.00    +0.000 A 
ATOM      3  C   UNL     1      48.007   6.286  14.799  0.00  0.00    +0.000 A 
ATOM      4  C   UNL     1      47.363   5.846  13.634  0.00  0.00    +0.000 A 
ATOM      5  C   UNL     1      46.863   4.537  13.599  0.00  0.00    +0.000 A 
ATOM      6  C   UNL     1      46.982   3.697  14.714  0.00  0.00    +0.000 A 
ENDROOT
BRANCH   1   7
ATOM      7  C   UNL     1      47.688   3.264  17.103  0.00  0.00    +0.000 C 
BRANCH   7  10
ATOM      8  C   UNL     1      49.936   2.299  16.951  0.00  0.00    +0.000 C 
ATOM      9  O   UNL     1      49.595   1.622  15.982  0.00  0.00    +0.000 OA
ATOM     10  N   UNL     1      49.047   3.133  17.573  0.00  0.00    +0.000 N 
ATOM     11  H   UNL     1      49.336   3.695  18.362  0.00  0.00    +0.000 HD
BRANCH   8  19
ATOM     12  C   UNL     1      52.161   4.663  18.122  0.00  0.00    +0.000 A 
ATOM     13  N   UNL     1      53.224   5.364  18.569  0.00  0.00    +0.000 NA
ATOM     14  C   UNL     1      54.339   4.693  18.867  0.00  0.00    +0.000 A 
ATOM     15  N   UNL     1      54.532   3.380  18.777  0.00  0.00    +0.000 NA
ATOM     16  C   UNL     1      53.454   2.723  18.314  0.00  0.00    +0.000 A 
ATOM     17  S   UNL     1      53.519   1.035  18.143  0.00  0.00    +0.000 S 
ATOM     18  C   UNL     1      51.928   0.989  17.553  0.00  0.00    +0.000 A 
ATOM     19  C   UNL     1      51.315   2.235  17.470  0.00  0.00    +0.000 A 
ATOM     20  C   UNL     1      52.229   3.271  17.945  0.00  0.00    +0.000 A 
BRANCH  12  22
ATOM     21  C   UNL     1      50.529   6.124  18.923  0.00  0.00    +0.000 C 
ATOM     22  O   UNL     1      51.008   5.356  17.820  0.00  0.00    +0.000 OA
ENDBRANCH  12  22
ENDBRANCH   8  19
ENDBRANCH   7  10
ENDBRANCH   1   7
BRANCH   4  23
ATOM     23  C   UNL     1      47.173   6.782  12.459  0.00  0.00    +0.000 C 
BRANCH  23  24
ATOM     24  N   UNL     1      45.936   7.548  12.578  0.00  0.00    +0.000 NA
ATOM     25  H   UNL     1      46.163   8.544  12.575  0.00  0.00    +0.000 HD
BRANCH  24  26
ATOM     26  C   UNL     1      45.039   7.286  11.442  0.00  0.00    +0.000 C 
BRANCH  26  27
ATOM     27  C   UNL     1      44.448   5.888  11.499  0.00  0.00    +0.000 A 
ATOM     28  C   UNL     1      44.734   4.971  10.486  0.00  0.00    +0.000 A 
ATOM     29  C   UNL     1      44.210   3.679  10.561  0.00  0.00    +0.000 A 
ATOM     30  C   UNL     1      44.516   2.657   9.509  0.00  0.00    +0.000 C 
ATOM     31  C   UNL     1      43.400   3.355  11.647  0.00  0.00    +0.000 A 
ATOM     32  C   UNL     1      43.156   4.327  12.605  0.00  0.00    +0.000 A 
ATOM     33  N   UNL     1      43.661   5.580  12.559  0.00  0.00    +0.000 NA
ENDBRANCH  26  27
ENDBRANCH  24  26
ENDBRANCH  23  24
ENDBRANCH   4  23
TORSDOF 8
ENDMDL
MODEL 6
REMARK VINA RESULT:    -6.809      4.945      9.733
REMARK INTER + INTRA:         -11.303
REMARK INTER:                 -10.360
REMARK INTRA:                  -0.943
REMARK UNBOUND:                -1.310
REMARK  Name = 
REMARK  10 active torsions:
REMARK  status: ('A' for Active; 'I' for Inactive)
REMARK    1  A    between atoms: C_1  and  O_2
REMARK    2  A    between atoms: O_2  and  C_3
REMARK    3  A    between atoms: C_10  and  C_11
REMARK    4  A    between atoms: N_13  and  C_14
REMARK    5  A    between atoms: C_14  and  C_15
REMARK    6  A    between atoms: C_18  and  C_19
REMARK    7  A    between atoms: C_19  and  N_20
REMARK    8  A    between atoms: N_20  and  C_21
REMARK    9  A    between atoms: C_21  and  C_22
REMARK   10  A    between atoms: C_24  and  C_25
REMARK                            x       y       z     vdW  Elec       q    Type
REMARK                         _______ _______ _______ _____ _____    ______ ____
ROOT
ATOM      1  C   UNL     1      48.615   3.276  17.176  0.00  0.00    +0.000 A 
ATOM      2  C   UNL     1      49.231   4.398  17.746  0.00  0.00    +0.000 A 
ATOM      3  C   UNL     1      50.594   4.379  18.060  0.00  0.00    +0.000 A 
ATOM      4  C   UNL     1      51.373   3.241  17.810  0.00  0.00    +0.000 A 
ATOM      5  C   UNL     1      50.751   2.113  17.258  0.00  0.00    +0.000 A 
ATOM      6  C   UNL     1      49.387   2.132  16.940  0.00  0.00    +0.000 A 
ENDROOT
BRANCH   1   7
ATOM      7  C   UNL     1      47.161   3.321  16.781  0.00  0.00    +0.000 C 
BRANCH   7  10
ATOM      8  C   UNL     1      46.935   4.228  14.515  0.00  0.00    +0.000 C 
ATOM      9  O   UNL     1      47.214   3.131  14.032  0.00  0.00    +0.000 OA
ATOM     10  N   UNL     1      46.897   4.411  15.871  0.00  0.00    +0.000 N 
ATOM     11  H   UNL     1      46.655   5.311  16.260  0.00  0.00    +0.000 HD
BRANCH   8  19
ATOM     12  C   UNL     1      44.161   5.178  12.695  0.00  0.00    +0.000 A 
ATOM     13  N   UNL     1      43.259   5.753  11.871  0.00  0.00    +0.000 NA
ATOM     14  C   UNL     1      43.603   6.885  11.255  0.00  0.00    +0.000 A 
ATOM     15  N   UNL     1      44.758   7.536  11.361  0.00  0.00    +0.000 NA
ATOM     16  C   UNL     1      45.631   6.923  12.179  0.00  0.00    +0.000 A 
ATOM     17  S   UNL     1      47.157   7.619  12.439  0.00  0.00    +0.000 S 
ATOM     18  C   UNL     1      47.609   6.352  13.475  0.00  0.00    +0.000 A 
ATOM     19  C   UNL     1      46.628   5.380  13.646  0.00  0.00    +0.000 A 
ATOM     20  C   UNL     1      45.437   5.736  12.880  0.00  0.00    +0.000 A 
BRANCH  12  22
ATOM     21  C   UNL     1      43.736   2.898  12.446  0.00  0.00    +0.000 C 
ATOM     22  O   UNL     1      43.802   4.011  13.336  0.00  0.00    +0.000 OA
ENDBRANCH  12  22
ENDBRANCH   8  19
ENDBRANCH   7  10
ENDBRANCH   1   7
BRANCH   4  23
ATOM     23  C   UNL     1      52.861   3.249  18.087  0.00  0.00    +0.000 C 
BRANCH  23  24
ATOM     24  N   UNL     1      53.268   2.090  18.876  0.00  0.00    +0.000 NA
ATOM     25  H   UNL     1      52.602   1.333  18.717  0.00  0.00    +0.000 HD
BRANCH  24  26
ATOM     26  C   UNL     1      54.600   1.615  18.474  0.00  0.00    +0.000 C 
BRANCH  26  27
ATOM     27  C   UNL     1      54.660   0.101  18.391  0.00  0.00    +0.000 A 
ATOM     28  C   UNL     1      54.810  -0.523  17.151  0.00  0.00    +0.000 A 
ATOM     29  C   UNL     1      54.893  -1.915  17.087  0.00  0.00    +0.000 A 
ATOM     30  C   UNL     1      55.082  -2.620  15.780  0.00  0.00    +0.000 C 
ATOM     31  C   UNL     1      54.806  -2.639  18.275  0.00  0.00    +0.000 A 
ATOM     32  C   UNL     1      54.647  -1.944  19.464  0.00  0.00    +0.000 A 
ATOM     33  N   UNL     1      54.576  -0.597  19.551  0.00  0.00    +0.000 NA
ENDBRANCH  26  27
ENDBRANCH  24  26
ENDBRANCH  23  24
ENDBRANCH   4  23
TORSDOF 8
ENDMDL
MODEL 7
REMARK VINA RESULT:    -6.691      3.586      8.843
REMARK INTER + INTRA:         -11.130
REMARK INTER:                  -9.711
REMARK INTRA:                  -1.419
REMARK UNBOUND:                -1.310
REMARK  Name = 
REMARK  10 active torsions:
REMARK  status: ('A' for Active; 'I' for Inactive)
REMARK    1  A    between atoms: C_1  and  O_2
REMARK    2  A    between atoms: O_2  and  C_3
REMARK    3  A    between atoms: C_10  and  C_11
REMARK    4  A    between atoms: N_13  and  C_14
REMARK    5  A    between atoms: C_14  and  C_15
REMARK    6  A    between atoms: C_18  and  C_19
REMARK    7  A    between atoms: C_19  and  N_20
REMARK    8  A    between atoms: N_20  and  C_21
REMARK    9  A    between atoms: C_21  and  C_22
REMARK   10  A    between atoms: C_24  and  C_25
REMARK                            x       y       z     vdW  Elec       q    Type
REMARK                         _______ _______ _______ _____ _____    ______ ____
ROOT
ATOM      1  C   UNL     1      48.663   3.335  17.158  0.00  0.00    +0.000 A 
ATOM      2  C   UNL     1      49.250   4.517  17.627  0.00  0.00    +0.000 A 
ATOM      3  C   UNL     1      50.618   4.569  17.912  0.00  0.00    +0.000 A 
ATOM      4  C   UNL     1      51.432   3.442  17.730  0.00  0.00    +0.000 A 
ATOM      5  C   UNL     1      50.840   2.255  17.278  0.00  0.00    +0.000 A 
ATOM      6  C   UNL     1      49.471   2.203  16.990  0.00  0.00    +0.000 A 
ENDROOT
BRANCH   1   7
ATOM      7  C   UNL     1      47.201   3.301  16.792  0.00  0.00    +0.000 C 
BRANCH   7  10
ATOM      8  C   UNL     1      46.868   4.228  14.547  0.00  0.00    +0.000 C 
ATOM      9  O   UNL     1      47.194   3.156  14.040  0.00  0.00    +0.000 OA
ATOM     10  N   UNL     1      46.854   4.387  15.907  0.00  0.00    +0.000 N 
ATOM     11  H   UNL     1      46.572   5.267  16.317  0.00  0.00    +0.000 HD
BRANCH   8  19
ATOM     12  C   UNL     1      44.040   4.999  12.725  0.00  0.00    +0.000 A 
ATOM     13  N   UNL     1      43.102   5.520  11.907  0.00  0.00    +0.000 NA
ATOM     14  C   UNL     1      43.358   6.693  11.323  0.00  0.00    +0.000 A 
ATOM     15  N   UNL     1      44.455   7.432  11.459  0.00  0.00    +0.000 NA
ATOM     16  C   UNL     1      45.369   6.870  12.270  0.00  0.00    +0.000 A 
ATOM     17  S   UNL     1      46.831   7.680  12.564  0.00  0.00    +0.000 S 
ATOM     18  C   UNL     1      47.376   6.426  13.570  0.00  0.00    +0.000 A 
ATOM     19  C   UNL     1      46.476   5.374  13.706  0.00  0.00    +0.000 A 
ATOM     20  C   UNL     1      45.265   5.653  12.938  0.00  0.00    +0.000 A 
BRANCH  12  22
ATOM     21  C   UNL     1      43.715   2.712  12.399  0.00  0.00    +0.000 C 
ATOM     22  O   UNL     1      43.772   3.790  13.332  0.00  0.00    +0.000 OA
ENDBRANCH  12  22
ENDBRANCH   8  19
ENDBRANCH   7  10
ENDBRANCH   1   7
BRANCH   4  23
ATOM     23  C   UNL     1      52.925   3.522  17.973  0.00  0.00    +0.000 C 
BRANCH  23  24
ATOM     24  N   UNL     1      53.385   4.907  18.035  0.00  0.00    +0.000 NA
ATOM     25  H   UNL     1      53.842   5.062  18.935  0.00  0.00    +0.000 HD
BRANCH  24  26
ATOM     26  C   UNL     1      54.364   5.188  16.974  0.00  0.00    +0.000 C 
BRANCH  26  27
ATOM     27  C   UNL     1      53.863   6.247  16.008  0.00  0.00    +0.000 A 
ATOM     28  C   UNL     1      52.576   6.769  16.156  0.00  0.00    +0.000 A 
ATOM     29  C   UNL     1      52.135   7.764  15.280  0.00  0.00    +0.000 A 
ATOM     30  C   UNL     1      50.772   8.370  15.422  0.00  0.00    +0.000 C 
ATOM     31  C   UNL     1      52.997   8.191  14.272  0.00  0.00    +0.000 A 
ATOM     32  C   UNL     1      54.255   7.613  14.188  0.00  0.00    +0.000 A 
ATOM     33  N   UNL     1      54.708   6.658  15.031  0.00  0.00    +0.000 NA
ENDBRANCH  26  27
ENDBRANCH  24  26
ENDBRANCH  23  24
ENDBRANCH   4  23
TORSDOF 8
ENDMDL
MODEL 8
REMARK VINA RESULT:    -6.295      2.314      2.818
REMARK INTER + INTRA:         -10.548
REMARK INTER:                  -9.779
REMARK INTRA:                  -0.769
REMARK UNBOUND:                -1.310
REMARK  Name = 
REMARK  10 active torsions:
REMARK  status: ('A' for Active; 'I' for Inactive)
REMARK    1  A    between atoms: C_1  and  O_2
REMARK    2  A    between atoms: O_2  and  C_3
REMARK    3  A    between atoms: C_10  and  C_11
REMARK    4  A    between atoms: N_13  and  C_14
REMARK    5  A    between atoms: C_14  and  C_15
REMARK    6  A    between atoms: C_18  and  C_19
REMARK    7  A    between atoms: C_19  and  N_20
REMARK    8  A    between atoms: N_20  and  C_21
REMARK    9  A    between atoms: C_21  and  C_22
REMARK   10  A    between atoms: C_24  and  C_25
REMARK                            x       y       z     vdW  Elec       q    Type
REMARK                         _______ _______ _______ _____ _____    ______ ____
ROOT
ATOM      1  C   UNL     1      47.997   7.609  13.340  0.00  0.00    +0.000 A 
ATOM      2  C   UNL     1      47.862   6.216  13.285  0.00  0.00    +0.000 A 
ATOM      3  C   UNL     1      46.620   5.631  13.016  0.00  0.00    +0.000 A 
ATOM      4  C   UNL     1      45.485   6.424  12.794  0.00  0.00    +0.000 A 
ATOM      5  C   UNL     1      45.618   7.817  12.868  0.00  0.00    +0.000 A 
ATOM      6  C   UNL     1      46.862   8.404  13.134  0.00  0.00    +0.000 A 
ENDROOT
BRANCH   1   7
ATOM      7  C   UNL     1      49.348   8.238  13.567  0.00  0.00    +0.000 C 
BRANCH   7  10
ATOM      8  C   UNL     1      51.223   7.886  15.106  0.00  0.00    +0.000 C 
ATOM      9  O   UNL     1      51.446   9.095  15.134  0.00  0.00    +0.000 OA
ATOM     10  N   UNL     1      50.205   7.375  14.345  0.00  0.00    +0.000 N 
ATOM     11  H   UNL     1      50.020   6.382  14.337  0.00  0.00    +0.000 HD
BRANCH   8  19
ATOM     12  C   UNL     1      50.483   5.378  17.358  0.00  0.00    +0.000 A 
ATOM     13  N   UNL     1      50.485   4.400  18.289  0.00  0.00    +0.000 NA
ATOM     14  C   UNL     1      51.664   3.926  18.700  0.00  0.00    +0.000 A 
ATOM     15  N   UNL     1      52.868   4.308  18.287  0.00  0.00    +0.000 NA
ATOM     16  C   UNL     1      52.821   5.292  17.372  0.00  0.00    +0.000 A 
ATOM     17  S   UNL     1      54.269   5.899  16.727  0.00  0.00    +0.000 S 
ATOM     18  C   UNL     1      53.425   7.007  15.757  0.00  0.00    +0.000 A 
ATOM     19  C   UNL     1      52.042   6.948  15.896  0.00  0.00    +0.000 A 
ATOM     20  C   UNL     1      51.684   5.904  16.853  0.00  0.00    +0.000 A 
BRANCH  12  22
ATOM     21  C   UNL     1      48.320   4.823  16.686  0.00  0.00    +0.000 C 
ATOM     22  O   UNL     1      49.265   5.863  16.930  0.00  0.00    +0.000 OA
ENDBRANCH  12  22
ENDBRANCH   8  19
ENDBRANCH   7  10
ENDBRANCH   1   7
BRANCH   4  23
ATOM     23  C   UNL     1      44.159   5.788  12.435  0.00  0.00    +0.000 C 
BRANCH  23  24
ATOM     24  N   UNL     1      43.906   5.848  10.998  0.00  0.00    +0.000 NA
ATOM     25  H   UNL     1      43.457   6.739  10.779  0.00  0.00    +0.000 HD
BRANCH  24  26
ATOM     26  C   UNL     1      45.161   5.773  10.235  0.00  0.00    +0.000 C 
BRANCH  26  27
ATOM     27  C   UNL     1      45.293   4.456   9.491  0.00  0.00    +0.000 A 
ATOM     28  C   UNL     1      45.920   4.422   8.244  0.00  0.00    +0.000 A 
ATOM     29  C   UNL     1      46.063   3.202   7.581  0.00  0.00    +0.000 A 
ATOM     30  C   UNL     1      46.754   3.118   6.255  0.00  0.00    +0.000 C 
ATOM     31  C   UNL     1      45.555   2.054   8.187  0.00  0.00    +0.000 A 
ATOM     32  C   UNL     1      44.936   2.176   9.422  0.00  0.00    +0.000 A 
ATOM     33  N   UNL     1      44.797   3.344  10.088  0.00  0.00    +0.000 NA
ENDBRANCH  26  27
ENDBRANCH  24  26
ENDBRANCH  23  24
ENDBRANCH   4  23
TORSDOF 8
ENDMDL
MODEL 9
REMARK VINA RESULT:    -6.261      3.703      9.213
REMARK INTER + INTRA:         -10.499
REMARK INTER:                  -8.770
REMARK INTRA:                  -1.729
REMARK UNBOUND:                -1.310
REMARK  Name = 
REMARK  10 active torsions:
REMARK  status: ('A' for Active; 'I' for Inactive)
REMARK    1  A    between atoms: C_1  and  O_2
REMARK    2  A    between atoms: O_2  and  C_3
REMARK    3  A    between atoms: C_10  and  C_11
REMARK    4  A    between atoms: N_13  and  C_14
REMARK    5  A    between atoms: C_14  and  C_15
REMARK    6  A    between atoms: C_18  and  C_19
REMARK    7  A    between atoms: C_19  and  N_20
REMARK    8  A    between atoms: N_20  and  C_21
REMARK    9  A    between atoms: C_21  and  C_22
REMARK   10  A    between atoms: C_24  and  C_25
REMARK                            x       y       z     vdW  Elec       q    Type
REMARK                         _______ _______ _______ _____ _____    ______ ____
ROOT
ATOM      1  C   UNL     1      48.020   4.671  16.871  0.00  0.00    +0.000 A 
ATOM      2  C   UNL     1      48.814   5.758  16.486  0.00  0.00    +0.000 A 
ATOM      3  C   UNL     1      49.569   6.459  17.432  0.00  0.00    +0.000 A 
ATOM      4  C   UNL     1      49.550   6.088  18.784  0.00  0.00    +0.000 A 
ATOM      5  C   UNL     1      48.740   5.011  19.171  0.00  0.00    +0.000 A 
ATOM      6  C   UNL     1      47.987   4.308  18.224  0.00  0.00    +0.000 A 
ENDROOT
BRANCH   1   7
ATOM      7  C   UNL     1      47.257   3.878  15.840  0.00  0.00    +0.000 C 
BRANCH   7  10
ATOM      8  C   UNL     1      46.111   4.320  13.719  0.00  0.00    +0.000 C 
ATOM      9  O   UNL     1      46.394   3.194  13.315  0.00  0.00    +0.000 OA
ATOM     10  N   UNL     1      46.509   4.743  14.959  0.00  0.00    +0.000 N 
ATOM     11  H   UNL     1      46.263   5.666  15.290  0.00  0.00    +0.000 HD
BRANCH   8  19
ATOM     12  C   UNL     1      46.450   7.651  12.882  0.00  0.00    +0.000 A 
ATOM     13  N   UNL     1      46.311   8.920  12.441  0.00  0.00    +0.000 NA
ATOM     14  C   UNL     1      45.259   9.207  11.672  0.00  0.00    +0.000 A 
ATOM     15  N   UNL     1      44.308   8.368  11.272  0.00  0.00    +0.000 NA
ATOM     16  C   UNL     1      44.476   7.121  11.744  0.00  0.00    +0.000 A 
ATOM     17  S   UNL     1      43.356   5.915  11.326  0.00  0.00    +0.000 S 
ATOM     18  C   UNL     1      44.193   4.757  12.244  0.00  0.00    +0.000 A 
ATOM     19  C   UNL     1      45.327   5.249  12.883  0.00  0.00    +0.000 A 
ATOM     20  C   UNL     1      45.502   6.663  12.566  0.00  0.00    +0.000 A 
BRANCH  12  22
ATOM     21  C   UNL     1      48.701   7.043  12.904  0.00  0.00    +0.000 C 
ATOM     22  O   UNL     1      47.541   7.355  13.672  0.00  0.00    +0.000 OA
ENDBRANCH  12  22
ENDBRANCH   8  19
ENDBRANCH   7  10
ENDBRANCH   1   7
BRANCH   4  23
ATOM     23  C   UNL     1      50.422   6.805  19.793  0.00  0.00    +0.000 C 
BRANCH  23  24
ATOM     24  N   UNL     1      51.399   5.903  20.396  0.00  0.00    +0.000 NA
ATOM     25  H   UNL     1      50.979   4.977  20.490  0.00  0.00    +0.000 HD
BRANCH  24  26
ATOM     26  C   UNL     1      52.595   5.774  19.551  0.00  0.00    +0.000 C 
BRANCH  26  27
ATOM     27  C   UNL     1      52.797   4.349  19.069  0.00  0.00    +0.000 A 
ATOM     28  C   UNL     1      51.789   3.710  18.345  0.00  0.00    +0.000 A 
ATOM     29  C   UNL     1      51.996   2.409  17.882  0.00  0.00    +0.000 A 
ATOM     30  C   UNL     1      50.950   1.699  17.078  0.00  0.00    +0.000 C 
ATOM     31  C   UNL     1      53.207   1.785  18.176  0.00  0.00    +0.000 A 
ATOM     32  C   UNL     1      54.152   2.486  18.910  0.00  0.00    +0.000 A 
ATOM     33  N   UNL     1      53.979   3.749  19.358  0.00  0.00    +0.000 NA
ENDBRANCH  26  27
ENDBRANCH  24  26
ENDBRANCH  23  24
ENDBRANCH   4  23
TORSDOF 8
ENDMDL
