MODEL 1
REMARK VINA RESULT:    -7.481      0.000      0.000
REMARK INTER + INTRA:         -10.037
REMARK INTER:                  -9.668
REMARK INTRA:                  -0.369
REMARK UNBOUND:                -0.369
REMARK  Name = 
REMARK  6 active torsions:
REMARK  status: ('A' for Active; 'I' for Inactive)
REMARK    1  A    between atoms: N_1  and  S_2
REMARK    2  A    between atoms: S_2  and  C_5
REMARK    3  A    between atoms: N_9  and  C_10
REMARK    4  A    between atoms: C_10  and  C_11
REMARK    5  A    between atoms: C_11  and  O_12
REMARK    6  A    between atoms: C_11  and  C_13
REMARK                            x       y       z     vdW  Elec       q    Type
REMARK                         _______ _______ _______ _____ _____    ______ ____
ROOT
ATOM      1  C   UNL     1      47.164   4.378  14.832  0.00  0.00    +0.000 A 
ATOM      2  C   UNL     1      46.945   5.633  14.275  0.00  0.00    +0.000 A 
ATOM      3  C   UNL     1      46.280   5.712  13.046  0.00  0.00    +0.000 A 
ATOM      4  C   UNL     1      45.827   4.545  12.432  0.00  0.00    +0.000 A 
ATOM      5  N   UNL     1      45.102   4.652  11.234  0.00  0.00    +0.000 N 
ATOM      6  N   UNL     1      46.057   3.329  12.974  0.00  0.00    +0.000 NA
ATOM      7  C   UNL     1      46.731   3.263  14.147  0.00  0.00    +0.000 A 
ATOM      8  H   UNL     1      45.716   4.954  10.479  0.00  0.00    +0.000 HD
ENDROOT
BRANCH   1   9
ATOM      9  S   UNL     1      47.953   4.175  16.377  0.00  0.00    +0.000 S 
ATOM     10  O   UNL     1      48.299   5.474  16.901  0.00  0.00    +0.000 OA
ATOM     11  O   UNL     1      48.906   3.092  16.293  0.00  0.00    +0.000 OA
BRANCH   9  12
ATOM     12  N   UNL     1      46.713   3.588  17.351  0.00  0.00    +0.000 NA
ATOM     13  H   UNL     1      45.839   3.579  16.823  0.00  0.00    +0.000 HD
ATOM     14  H   UNL     1      46.658   4.130  18.214  0.00  0.00    +0.000 HD
ENDBRANCH   9  12
ENDBRANCH   1   9
BRANCH   5  15
ATOM     15  C   UNL     1      44.355   3.435  10.900  0.00  0.00    +0.000 C 
BRANCH  15  16
ATOM     16  C   UNL     1      44.244   3.246   9.370  0.00  0.00    +0.000 C 
BRANCH  16  17
ATOM     17  C   UNL     1      45.589   2.799   8.729  0.00  0.00    +0.000 C 
ATOM     18  C   UNL     1      45.915   3.630   7.471  0.00  0.00    +0.000 C 
ATOM     19  C   UNL     1      47.217   3.180   6.804  0.00  0.00    +0.000 C 
ATOM     20  C   UNL     1      47.199   1.691   6.474  0.00  0.00    +0.000 C 
ATOM     21  C   UNL     1      46.899   0.861   7.711  0.00  0.00    +0.000 C 
ATOM     22  C   UNL     1      45.602   1.297   8.386  0.00  0.00    +0.000 C 
ENDBRANCH  16  17
BRANCH  16  23
ATOM     23  O   UNL     1      43.831   4.494   8.782  0.00  0.00    +0.000 OA
ATOM     24  H   UNL     1      43.881   5.179   9.471  0.00  0.00    +0.000 HD
ENDBRANCH  16  23
ENDBRANCH  15  16
ENDBRANCH   5  15
TORSDOF 6
ENDMDL
MODEL 2
REMARK VINA RESULT:    -7.470      3.720      7.038
REMARK INTER + INTRA:         -10.022
REMARK INTER:                  -9.637
REMARK INTRA:                  -0.385
REMARK UNBOUND:                -0.369
REMARK  Name = 
REMARK  6 active torsions:
REMARK  status: ('A' for Active; 'I' for Inactive)
REMARK    1  A    between atoms: N_1  and  S_2
REMARK    2  A    between atoms: S_2  and  C_5
REMARK    3  A    between atoms: N_9  and  C_10
REMARK    4  A    between atoms: C_10  and  C_11
REMARK    5  A    between atoms: C_11  and  O_12
REMARK    6  A    between atoms: C_11  and  C_13
REMARK                            x       y       z     vdW  Elec       q    Type
REMARK                         _______ _______ _______ _____ _____    ______ ____
ROOT
ATOM      1  C   UNL     1      46.187   2.528   7.728  0.00  0.00    +0.000 A 
ATOM      2  C   UNL     1      45.855   3.874   7.628  0.00  0.00    +0.000 A 
ATOM      3  C   UNL     1      44.954   4.410   8.554  0.00  0.00    +0.000 A 
ATOM      4  C   UNL     1      44.443   3.600   9.567  0.00  0.00    +0.000 A 
ATOM      5  N   UNL     1      43.594   4.175  10.527  0.00  0.00    +0.000 N 
ATOM      6  N   UNL     1      44.760   2.289   9.648  0.00  0.00    +0.000 NA
ATOM      7  C   UNL     1      45.607   1.774   8.725  0.00  0.00    +0.000 A 
ATOM      8  H   UNL     1      42.699   4.416  10.104  0.00  0.00    +0.000 HD
ENDROOT
BRANCH   1   9
ATOM      9  S   UNL     1      47.327   1.772   6.642  0.00  0.00    +0.000 S 
ATOM     10  O   UNL     1      47.010   0.369   6.529  0.00  0.00    +0.000 OA
ATOM     11  O   UNL     1      48.660   2.246   6.936  0.00  0.00    +0.000 OA
BRANCH   9  12
ATOM     12  N   UNL     1      46.938   2.464   5.159  0.00  0.00    +0.000 NA
ATOM     13  H   UNL     1      46.338   1.828   4.631  0.00  0.00    +0.000 HD
ATOM     14  H   UNL     1      47.789   2.726   4.659  0.00  0.00    +0.000 HD
ENDBRANCH   9  12
ENDBRANCH   1   9
BRANCH   5  15
ATOM     15  C   UNL     1      43.444   3.353  11.732  0.00  0.00    +0.000 C 
BRANCH  15  16
ATOM     16  C   UNL     1      44.558   3.655  12.760  0.00  0.00    +0.000 C 
BRANCH  16  17
ATOM     17  C   UNL     1      45.327   4.966  12.432  0.00  0.00    +0.000 C 
ATOM     18  C   UNL     1      46.743   4.956  13.043  0.00  0.00    +0.000 C 
ATOM     19  C   UNL     1      47.502   6.254  12.763  0.00  0.00    +0.000 C 
ATOM     20  C   UNL     1      46.724   7.478  13.234  0.00  0.00    +0.000 C 
ATOM     21  C   UNL     1      45.333   7.511  12.623  0.00  0.00    +0.000 C 
ATOM     22  C   UNL     1      44.563   6.222  12.895  0.00  0.00    +0.000 C 
ENDBRANCH  16  17
BRANCH  16  23
ATOM     23  O   UNL     1      45.484   2.553  12.771  0.00  0.00    +0.000 OA
ATOM     24  H   UNL     1      46.066   2.645  11.997  0.00  0.00    +0.000 HD
ENDBRANCH  16  23
ENDBRANCH  15  16
ENDBRANCH   5  15
TORSDOF 6
ENDMDL
MODEL 3
REMARK VINA RESULT:    -7.305      3.903      7.134
REMARK INTER + INTRA:          -9.809
REMARK INTER:                  -9.456
REMARK INTRA:                  -0.353
REMARK UNBOUND:                -0.369
REMARK  Name = 
REMARK  6 active torsions:
REMARK  status: ('A' for Active; 'I' for Inactive)
REMARK    1  A    between atoms: N_1  and  S_2
REMARK    2  A    between atoms: S_2  and  C_5
REMARK    3  A    between atoms: N_9  and  C_10
REMARK    4  A    between atoms: C_10  and  C_11
REMARK    5  A    between atoms: C_11  and  O_12
REMARK    6  A    between atoms: C_11  and  C_13
REMARK                            x       y       z     vdW  Elec       q    Type
REMARK                         _______ _______ _______ _____ _____    ______ ____
ROOT
ATOM      1  C   UNL     1      46.233   2.661   7.640  0.00  0.00    +0.000 A 
ATOM      2  C   UNL     1      45.636   1.711   8.461  0.00  0.00    +0.000 A 
ATOM      3  C   UNL     1      44.853   2.151   9.533  0.00  0.00    +0.000 A 
ATOM      4  C   UNL     1      44.662   3.519   9.730  0.00  0.00    +0.000 A 
ATOM      5  N   UNL     1      43.816   3.937  10.770  0.00  0.00    +0.000 N 
ATOM      6  N   UNL     1      45.257   4.435   8.936  0.00  0.00    +0.000 NA
ATOM      7  C   UNL     1      46.041   3.996   7.922  0.00  0.00    +0.000 A 
ATOM      8  H   UNL     1      44.248   3.746  11.672  0.00  0.00    +0.000 HD
ENDROOT
BRANCH   1   9
ATOM      9  S   UNL     1      47.202   2.212   6.257  0.00  0.00    +0.000 S 
ATOM     10  O   UNL     1      46.745   2.951   5.105  0.00  0.00    +0.000 OA
ATOM     11  O   UNL     1      47.382   0.779   6.239  0.00  0.00    +0.000 OA
BRANCH   9  12
ATOM     12  N   UNL     1      48.715   2.836   6.648  0.00  0.00    +0.000 NA
ATOM     13  H   UNL     1      49.411   2.478   5.993  0.00  0.00    +0.000 HD
ATOM     14  H   UNL     1      48.936   2.635   7.624  0.00  0.00    +0.000 HD
ENDBRANCH   9  12
ENDBRANCH   1   9
BRANCH   5  15
ATOM     15  C   UNL     1      43.385   5.333  10.637  0.00  0.00    +0.000 C 
BRANCH  15  16
ATOM     16  C   UNL     1      43.930   6.202  11.794  0.00  0.00    +0.000 C 
BRANCH  16  17
ATOM     17  C   UNL     1      45.442   5.950  12.061  0.00  0.00    +0.000 C 
ATOM     18  C   UNL     1      45.670   5.333  13.456  0.00  0.00    +0.000 C 
ATOM     19  C   UNL     1      47.155   5.113  13.754  0.00  0.00    +0.000 C 
ATOM     20  C   UNL     1      47.960   6.399  13.598  0.00  0.00    +0.000 C 
ATOM     21  C   UNL     1      47.759   7.006  12.220  0.00  0.00    +0.000 C 
ATOM     22  C   UNL     1      46.282   7.233  11.910  0.00  0.00    +0.000 C 
ENDBRANCH  16  17
BRANCH  16  23
ATOM     23  O   UNL     1      43.182   5.900  12.986  0.00  0.00    +0.000 OA
ATOM     24  H   UNL     1      42.371   6.438  12.974  0.00  0.00    +0.000 HD
ENDBRANCH  16  23
ENDBRANCH  15  16
ENDBRANCH   5  15
TORSDOF 6
ENDMDL
MODEL 4
REMARK VINA RESULT:    -7.177      3.518      7.895
REMARK INTER + INTRA:          -9.644
REMARK INTER:                  -9.319
REMARK INTRA:                  -0.325
REMARK UNBOUND:                -0.369
REMARK  Name = 
REMARK  6 active torsions:
REMARK  status: ('A' for Active; 'I' for Inactive)
REMARK    1  A    between atoms: N_1  and  S_2
REMARK    2  A    between atoms: S_2  and  C_5
REMARK    3  A    between atoms: N_9  and  C_10
REMARK    4  A    between atoms: C_10  and  C_11
REMARK    5  A    between atoms: C_11  and  O_12
REMARK    6  A    between atoms: C_11  and  C_13
REMARK                            x       y       z     vdW  Elec       q    Type
REMARK                         _______ _______ _______ _____ _____    ______ ____
ROOT
ATOM      1  C   UNL     1      45.236   4.572  11.466  0.00  0.00    +0.000 A 
ATOM      2  C   UNL     1      45.722   5.809  11.874  0.00  0.00    +0.000 A 
ATOM      3  C   UNL     1      46.316   5.910  13.137  0.00  0.00    +0.000 A 
ATOM      4  C   UNL     1      46.438   4.771  13.933  0.00  0.00    +0.000 A 
ATOM      5  N   UNL     1      47.100   4.881  15.168  0.00  0.00    +0.000 N 
ATOM      6  N   UNL     1      45.950   3.577  13.534  0.00  0.00    +0.000 NA
ATOM      7  C   UNL     1      45.346   3.500  12.324  0.00  0.00    +0.000 A 
ATOM      8  H   UNL     1      46.537   5.423  15.820  0.00  0.00    +0.000 HD
ENDROOT
BRANCH   1   9
ATOM      9  S   UNL     1      44.507   4.336   9.896  0.00  0.00    +0.000 S 
ATOM     10  O   UNL     1      43.227   5.001   9.868  0.00  0.00    +0.000 OA
ATOM     11  O   UNL     1      44.677   2.961   9.487  0.00  0.00    +0.000 OA
BRANCH   9  12
ATOM     12  N   UNL     1      45.520   5.219   8.883  0.00  0.00    +0.000 NA
ATOM     13  H   UNL     1      46.417   5.372   9.346  0.00  0.00    +0.000 HD
ATOM     14  H   UNL     1      45.061   6.084   8.595  0.00  0.00    +0.000 HD
ENDBRANCH   9  12
ENDBRANCH   1   9
BRANCH   5  15
ATOM     15  C   UNL     1      47.509   3.585  15.719  0.00  0.00    +0.000 C 
BRANCH  15  16
ATOM     16  C   UNL     1      47.552   3.621  17.264  0.00  0.00    +0.000 C 
BRANCH  16  17
ATOM     17  C   UNL     1      48.938   3.199  17.828  0.00  0.00    +0.000 C 
ATOM     18  C   UNL     1      49.850   4.423  18.050  0.00  0.00    +0.000 C 
ATOM     19  C   UNL     1      51.233   4.026  18.569  0.00  0.00    +0.000 C 
ATOM     20  C   UNL     1      51.911   3.012  17.654  0.00  0.00    +0.000 C 
ATOM     21  C   UNL     1      51.031   1.792  17.444  0.00  0.00    +0.000 C 
ATOM     22  C   UNL     1      49.648   2.172  16.924  0.00  0.00    +0.000 C 
ENDBRANCH  16  17
BRANCH  16  23
ATOM     23  O   UNL     1      46.543   2.727  17.772  0.00  0.00    +0.000 OA
ATOM     24  H   UNL     1      46.118   3.159  18.533  0.00  0.00    +0.000 HD
ENDBRANCH  16  23
ENDBRANCH  15  16
ENDBRANCH   5  15
TORSDOF 6
ENDMDL
MODEL 5
REMARK VINA RESULT:    -6.909      2.443      3.013
REMARK INTER + INTRA:          -9.297
REMARK INTER:                  -8.893
REMARK INTRA:                  -0.405
REMARK UNBOUND:                -0.369
REMARK  Name = 
REMARK  6 active torsions:
REMARK  status: ('A' for Active; 'I' for Inactive)
REMARK    1  A    between atoms: N_1  and  S_2
REMARK    2  A    between atoms: S_2  and  C_5
REMARK    3  A    between atoms: N_9  and  C_10
REMARK    4  A    between atoms: C_10  and  C_11
REMARK    5  A    between atoms: C_11  and  O_12
REMARK    6  A    between atoms: C_11  and  C_13
REMARK                            x       y       z     vdW  Elec       q    Type
REMARK                         _______ _______ _______ _____ _____    ______ ____
ROOT
ATOM      1  C   UNL     1      46.902   6.544  12.782  0.00  0.00    +0.000 A 
ATOM      2  C   UNL     1      46.057   5.836  13.629  0.00  0.00    +0.000 A 
ATOM      3  C   UNL     1      45.032   5.070  13.063  0.00  0.00    +0.000 A 
ATOM      4  C   UNL     1      44.905   5.008  11.675  0.00  0.00    +0.000 A 
ATOM      5  N   UNL     1      43.913   4.178  11.126  0.00  0.00    +0.000 N 
ATOM      6  N   UNL     1      45.722   5.711  10.861  0.00  0.00    +0.000 NA
ATOM      7  C   UNL     1      46.689   6.475  11.422  0.00  0.00    +0.000 A 
ATOM      8  H   UNL     1      42.990   4.565  11.313  0.00  0.00    +0.000 HD
ENDROOT
BRANCH   1   9
ATOM      9  S   UNL     1      48.231   7.502  13.388  0.00  0.00    +0.000 S 
ATOM     10  O   UNL     1      48.537   8.539  12.433  0.00  0.00    +0.000 OA
ATOM     11  O   UNL     1      49.243   6.629  13.938  0.00  0.00    +0.000 OA
BRANCH   9  12
ATOM     12  N   UNL     1      47.552   8.273  14.721  0.00  0.00    +0.000 NA
ATOM     13  H   UNL     1      47.786   9.267  14.696  0.00  0.00    +0.000 HD
ATOM     14  H   UNL     1      47.845   7.810  15.582  0.00  0.00    +0.000 HD
ENDBRANCH   9  12
ENDBRANCH   1   9
BRANCH   5  15
ATOM     15  C   UNL     1      44.125   3.889   9.704  0.00  0.00    +0.000 C 
BRANCH  15  16
ATOM     16  C   UNL     1      44.849   2.538   9.508  0.00  0.00    +0.000 C 
BRANCH  16  17
ATOM     17  C   UNL     1      45.497   2.412   8.100  0.00  0.00    +0.000 C 
ATOM     18  C   UNL     1      46.516   1.256   8.051  0.00  0.00    +0.000 C 
ATOM     19  C   UNL     1      47.193   1.140   6.684  0.00  0.00    +0.000 C 
ATOM     20  C   UNL     1      47.849   2.451   6.264  0.00  0.00    +0.000 C 
ATOM     21  C   UNL     1      46.850   3.595   6.288  0.00  0.00    +0.000 C 
ATOM     22  C   UNL     1      46.168   3.724   7.647  0.00  0.00    +0.000 C 
ENDBRANCH  16  17
BRANCH  16  23
ATOM     23  O   UNL     1      43.894   1.475   9.686  0.00  0.00    +0.000 OA
ATOM     24  H   UNL     1      44.355   0.727  10.104  0.00  0.00    +0.000 HD
ENDBRANCH  16  23
ENDBRANCH  15  16
ENDBRANCH   5  15
TORSDOF 6
ENDMDL
MODEL 6
REMARK VINA RESULT:    -6.893      1.807      2.293
REMARK INTER + INTRA:          -9.277
REMARK INTER:                  -8.963
REMARK INTRA:                  -0.314
REMARK UNBOUND:                -0.369
REMARK  Name = 
REMARK  6 active torsions:
REMARK  status: ('A' for Active; 'I' for Inactive)
REMARK    1  A    between atoms: N_1  and  S_2
REMARK    2  A    between atoms: S_2  and  C_5
REMARK    3  A    between atoms: N_9  and  C_10
REMARK    4  A    between atoms: C_10  and  C_11
REMARK    5  A    between atoms: C_11  and  O_12
REMARK    6  A    between atoms: C_11  and  C_13
REMARK                            x       y       z     vdW  Elec       q    Type
REMARK                         _______ _______ _______ _____ _____    ______ ____
ROOT
ATOM      1  C   UNL     1      47.713   6.022  14.188  0.00  0.00    +0.000 A 
ATOM      2  C   UNL     1      47.181   4.795  14.566  0.00  0.00    +0.000 A 
ATOM      3  C   UNL     1      46.217   4.203  13.742  0.00  0.00    +0.000 A 
ATOM      4  C   UNL     1      45.842   4.834  12.556  0.00  0.00    +0.000 A 
ATOM      5  N   UNL     1      44.925   4.189  11.711  0.00  0.00    +0.000 N 
ATOM      6  N   UNL     1      46.354   6.034  12.205  0.00  0.00    +0.000 NA
ATOM      7  C   UNL     1      47.262   6.612  13.027  0.00  0.00    +0.000 A 
ATOM      8  H   UNL     1      44.000   4.181  12.139  0.00  0.00    +0.000 HD
ENDROOT
BRANCH   1   9
ATOM      9  S   UNL     1      48.945   6.826  15.130  0.00  0.00    +0.000 S 
ATOM     10  O   UNL     1      49.489   5.893  16.086  0.00  0.00    +0.000 OA
ATOM     11  O   UNL     1      48.482   8.143  15.506  0.00  0.00    +0.000 OA
BRANCH   9  12
ATOM     12  N   UNL     1      50.157   7.100  13.995  0.00  0.00    +0.000 NA
ATOM     13  H   UNL     1      50.107   6.389  13.264  0.00  0.00    +0.000 HD
ATOM     14  H   UNL     1      51.067   7.144  14.456  0.00  0.00    +0.000 HD
ENDBRANCH   9  12
ENDBRANCH   1   9
BRANCH   5  15
ATOM     15  C   UNL     1      44.910   4.737  10.350  0.00  0.00    +0.000 C 
BRANCH  15  16
ATOM     16  C   UNL     1      44.522   3.658   9.315  0.00  0.00    +0.000 C 
BRANCH  16  17
ATOM     17  C   UNL     1      45.765   2.987   8.664  0.00  0.00    +0.000 C 
ATOM     18  C   UNL     1      46.115   3.643   7.314  0.00  0.00    +0.000 C 
ATOM     19  C   UNL     1      47.313   2.972   6.639  0.00  0.00    +0.000 C 
ATOM     20  C   UNL     1      47.099   1.472   6.467  0.00  0.00    +0.000 C 
ATOM     21  C   UNL     1      46.773   0.810   7.795  0.00  0.00    +0.000 C 
ATOM     22  C   UNL     1      45.578   1.468   8.479  0.00  0.00    +0.000 C 
ENDBRANCH  16  17
BRANCH  16  23
ATOM     23  O   UNL     1      43.724   4.274   8.286  0.00  0.00    +0.000 OA
ATOM     24  H   UNL     1      42.829   4.409   8.644  0.00  0.00    +0.000 HD
ENDBRANCH  16  23
ENDBRANCH  15  16
ENDBRANCH   5  15
TORSDOF 6
ENDMDL
MODEL 7
REMARK VINA RESULT:    -6.667      3.086      3.974
REMARK INTER + INTRA:          -8.985
REMARK INTER:                  -8.424
REMARK INTRA:                  -0.561
REMARK UNBOUND:                -0.369
REMARK  Name = 
REMARK  6 active torsions:
REMARK  status: ('A' for Active; 'I' for Inactive)
REMARK    1  A    between atoms: N_1  and  S_2
REMARK    2  A    between atoms: S_2  and  C_5
REMARK    3  A    between atoms: N_9  and  C_10
REMARK    4  A    between atoms: C_10  and  C_11
REMARK    5  A    between atoms: C_11  and  O_12
REMARK    6  A    between atoms: C_11  and  C_13
REMARK                            x       y       z     vdW  Elec       q    Type
REMARK                         _______ _______ _______ _____ _____    ______ ____
ROOT
ATOM      1  C   UNL     1      47.332   7.747  13.099  0.00  0.00    +0.000 A 
ATOM      2  C   UNL     1      47.971   6.657  13.680  0.00  0.00    +0.000 A 
ATOM      3  C   UNL     1      47.238   5.482  13.878  0.00  0.00    +0.000 A 
ATOM      4  C   UNL     1      45.909   5.420  13.461  0.00  0.00    +0.000 A 
ATOM      5  N   UNL     1      45.213   4.208  13.607  0.00  0.00    +0.000 N 
ATOM      6  N   UNL     1      45.293   6.489  12.911  0.00  0.00    +0.000 NA
ATOM      7  C   UNL     1      46.003   7.631  12.755  0.00  0.00    +0.000 A 
ATOM      8  H   UNL     1      45.038   4.021  14.592  0.00  0.00    +0.000 HD
ENDROOT
BRANCH   1   9
ATOM      9  S   UNL     1      48.168   9.247  12.779  0.00  0.00    +0.000 S 
ATOM     10  O   UNL     1      48.826   9.154  11.499  0.00  0.00    +0.000 OA
ATOM     11  O   UNL     1      48.853   9.682  13.975  0.00  0.00    +0.000 OA
BRANCH   9  12
ATOM     12  N   UNL     1      46.904  10.340  12.581  0.00  0.00    +0.000 NA
ATOM     13  H   UNL     1      47.065  11.159  13.169  0.00  0.00    +0.000 HD
ATOM     14  H   UNL     1      46.010   9.881  12.764  0.00  0.00    +0.000 HD
ENDBRANCH   9  12
ENDBRANCH   1   9
BRANCH   5  15
ATOM     15  C   UNL     1      43.993   4.143  12.795  0.00  0.00    +0.000 C 
BRANCH  15  16
ATOM     16  C   UNL     1      44.016   2.924  11.845  0.00  0.00    +0.000 C 
BRANCH  16  17
ATOM     17  C   UNL     1      44.954   3.143  10.624  0.00  0.00    +0.000 C 
ATOM     18  C   UNL     1      44.758   4.544  10.009  0.00  0.00    +0.000 C 
ATOM     19  C   UNL     1      45.645   4.765   8.782  0.00  0.00    +0.000 C 
ATOM     20  C   UNL     1      45.435   3.683   7.729  0.00  0.00    +0.000 C 
ATOM     21  C   UNL     1      45.646   2.298   8.318  0.00  0.00    +0.000 C 
ATOM     22  C   UNL     1      44.765   2.062   9.542  0.00  0.00    +0.000 C 
ENDBRANCH  16  17
BRANCH  16  23
ATOM     23  O   UNL     1      42.677   2.683  11.375  0.00  0.00    +0.000 OA
ATOM     24  H   UNL     1      42.712   2.583  10.408  0.00  0.00    +0.000 HD
ENDBRANCH  16  23
ENDBRANCH  15  16
ENDBRANCH   5  15
TORSDOF 6
ENDMDL
MODEL 8
REMARK VINA RESULT:    -6.597      1.516      2.262
REMARK INTER + INTRA:          -8.894
REMARK INTER:                  -8.523
REMARK INTRA:                  -0.371
REMARK UNBOUND:                -0.369
REMARK  Name = 
REMARK  6 active torsions:
REMARK  status: ('A' for Active; 'I' for Inactive)
REMARK    1  A    between atoms: N_1  and  S_2
REMARK    2  A    between atoms: S_2  and  C_5
REMARK    3  A    between atoms: N_9  and  C_10
REMARK    4  A    between atoms: C_10  and  C_11
REMARK    5  A    between atoms: C_11  and  O_12
REMARK    6  A    between atoms: C_11  and  C_13
REMARK                            x       y       z     vdW  Elec       q    Type
REMARK                         _______ _______ _______ _____ _____    ______ ____
ROOT
ATOM      1  C   UNL     1      47.981   4.820  16.204  0.00  0.00    +0.000 A 
ATOM      2  C   UNL     1      48.334   5.983  15.529  0.00  0.00    +0.000 A 
ATOM      3  C   UNL     1      47.814   6.195  14.247  0.00  0.00    +0.000 A 
ATOM      4  C   UNL     1      46.935   5.262  13.697  0.00  0.00    +0.000 A 
ATOM      5  N   UNL     1      46.371   5.529  12.439  0.00  0.00    +0.000 N 
ATOM      6  N   UNL     1      46.609   4.128  14.355  0.00  0.00    +0.000 NA
ATOM      7  C   UNL     1      47.146   3.918  15.581  0.00  0.00    +0.000 A 
ATOM      8  H   UNL     1      47.084   5.463  11.714  0.00  0.00    +0.000 HD
ENDROOT
BRANCH   1   9
ATOM      9  S   UNL     1      48.550   4.479  17.820  0.00  0.00    +0.000 S 
ATOM     10  O   UNL     1      48.227   5.593  18.676  0.00  0.00    +0.000 OA
ATOM     11  O   UNL     1      49.876   3.908  17.754  0.00  0.00    +0.000 OA
BRANCH   9  12
ATOM     12  N   UNL     1      47.555   3.210  18.301  0.00  0.00    +0.000 NA
ATOM     13  H   UNL     1      47.120   3.438  19.197  0.00  0.00    +0.000 HD
ATOM     14  H   UNL     1      48.083   2.337  18.319  0.00  0.00    +0.000 HD
ENDBRANCH   9  12
ENDBRANCH   1   9
BRANCH   5  15
ATOM     15  C   UNL     1      45.194   4.703  12.147  0.00  0.00    +0.000 C 
BRANCH  15  16
ATOM     16  C   UNL     1      44.438   5.222  10.903  0.00  0.00    +0.000 C 
BRANCH  16  17
ATOM     17  C   UNL     1      44.588   4.272   9.681  0.00  0.00    +0.000 C 
ATOM     18  C   UNL     1      44.760   2.806  10.126  0.00  0.00    +0.000 C 
ATOM     19  C   UNL     1      44.948   1.860   8.939  0.00  0.00    +0.000 C 
ATOM     20  C   UNL     1      46.109   2.291   8.050  0.00  0.00    +0.000 C 
ATOM     21  C   UNL     1      45.941   3.728   7.587  0.00  0.00    +0.000 C 
ATOM     22  C   UNL     1      45.755   4.684   8.762  0.00  0.00    +0.000 C 
ENDBRANCH  16  17
BRANCH  16  23
ATOM     23  O   UNL     1      44.956   6.521  10.560  0.00  0.00    +0.000 OA
ATOM     24  H   UNL     1      44.652   7.151  11.236  0.00  0.00    +0.000 HD
ENDBRANCH  16  23
ENDBRANCH  15  16
ENDBRANCH   5  15
TORSDOF 6
ENDMDL
MODEL 9
REMARK VINA RESULT:    -6.528      3.117      3.433
REMARK INTER + INTRA:          -8.805
REMARK INTER:                  -8.332
REMARK INTRA:                  -0.473
REMARK UNBOUND:                -0.369
REMARK  Name = 
REMARK  6 active torsions:
REMARK  status: ('A' for Active; 'I' for Inactive)
REMARK    1  A    between atoms: N_1  and  S_2
REMARK    2  A    between atoms: S_2  and  C_5
REMARK    3  A    between atoms: N_9  and  C_10
REMARK    4  A    between atoms: C_10  and  C_11
REMARK    5  A    between atoms: C_11  and  O_12
REMARK    6  A    between atoms: C_11  and  C_13
REMARK                            x       y       z     vdW  Elec       q    Type
REMARK                         _______ _______ _______ _____ _____    ______ ____
ROOT
ATOM      1  C   UNL     1      47.538   8.007  12.640  0.00  0.00    +0.000 A 
ATOM      2  C   UNL     1      46.275   8.558  12.820  0.00  0.00    +0.000 A 
ATOM      3  C   UNL     1      45.157   7.798  12.456  0.00  0.00    +0.000 A 
ATOM      4  C   UNL     1      45.334   6.507  11.960  0.00  0.00    +0.000 A 
ATOM      5  N   UNL     1      44.196   5.737  11.667  0.00  0.00    +0.000 N 
ATOM      6  N   UNL     1      46.566   5.986  11.775  0.00  0.00    +0.000 NA
ATOM      7  C   UNL     1      47.641   6.744  12.100  0.00  0.00    +0.000 A 
ATOM      8  H   UNL     1      43.719   6.114  10.850  0.00  0.00    +0.000 HD
ENDROOT
BRANCH   1   9
ATOM      9  S   UNL     1      48.993   8.861  13.093  0.00  0.00    +0.000 S 
ATOM     10  O   UNL     1      48.777   9.517  14.360  0.00  0.00    +0.000 OA
ATOM     11  O   UNL     1      49.525   9.553  11.942  0.00  0.00    +0.000 OA
BRANCH   9  12
ATOM     12  N   UNL     1      50.079   7.610  13.388  0.00  0.00    +0.000 NA
ATOM     13  H   UNL     1      50.096   7.401  14.387  0.00  0.00    +0.000 HD
ATOM     14  H   UNL     1      50.997   7.844  13.008  0.00  0.00    +0.000 HD
ENDBRANCH   9  12
ENDBRANCH   1   9
BRANCH   5  15
ATOM     15  C   UNL     1      44.487   4.305  11.537  0.00  0.00    +0.000 C 
BRANCH  15  16
ATOM     16  C   UNL     1      44.111   3.780  10.133  0.00  0.00    +0.000 C 
BRANCH  16  17
ATOM     17  C   UNL     1      45.352   3.302   9.328  0.00  0.00    +0.000 C 
ATOM     18  C   UNL     1      45.632   4.226   8.125  0.00  0.00    +0.000 C 
ATOM     19  C   UNL     1      46.827   3.750   7.297  0.00  0.00    +0.000 C 
ATOM     20  C   UNL     1      46.658   2.306   6.836  0.00  0.00    +0.000 C 
ATOM     21  C   UNL     1      46.402   1.382   8.015  0.00  0.00    +0.000 C 
ATOM     22  C   UNL     1      45.210   1.844   8.849  0.00  0.00    +0.000 C 
ENDBRANCH  16  17
BRANCH  16  23
ATOM     23  O   UNL     1      43.455   4.838   9.409  0.00  0.00    +0.000 OA
ATOM     24  H   UNL     1      43.467   5.634   9.967  0.00  0.00    +0.000 HD
ENDBRANCH  16  23
ENDBRANCH  15  16
ENDBRANCH   5  15
TORSDOF 6
ENDMDL
