MODEL 1
REMARK VINA RESULT:    -7.506      0.000      0.000
REMARK INTER + INTRA:         -11.432
REMARK INTER:                 -10.139
REMARK INTRA:                  -1.293
REMARK UNBOUND:                -1.293
REMARK  Name = 
REMARK  8 active torsions:
REMARK  status: ('A' for Active; 'I' for Inactive)
REMARK    1  A    between atoms: C_1  and  C_2
REMARK    2  A    between atoms: C_2  and  C_3
REMARK    3  A    between atoms: C_2  and  C_4
REMARK    4  A    between atoms: C_2  and  C_23
REMARK    5  A    between atoms: C_4  and  N_5
REMARK    6  A    between atoms: C_10  and  C_11
REMARK    7  A    between atoms: C_14  and  O_15
REMARK    8  A    between atoms: O_15  and  C_16
REMARK                            x       y       z     vdW  Elec       q    Type
REMARK                         _______ _______ _______ _____ _____    ______ ____
ROOT
ATOM      1  N   UNL     1      50.120   6.697  15.066  0.00  0.00    +0.000 N 
ATOM      2  C   UNL     1      48.985   7.204  14.451  0.00  0.00    +0.000 A 
ATOM      3  N   UNL     1      48.657   8.492  14.619  0.00  0.00    +0.000 NA
ATOM      4  C   UNL     1      47.533   8.918  14.021  0.00  0.00    +0.000 A 
ATOM      5  C   UNL     1      46.721   8.103  13.273  0.00  0.00    +0.000 A 
ATOM      6  C   UNL     1      47.131   6.790  13.149  0.00  0.00    +0.000 A 
ATOM      7  N   UNL     1      48.264   6.339  13.734  0.00  0.00    +0.000 NA
ATOM      8  H   UNL     1      50.000   5.690  15.106  0.00  0.00    +0.000 HD
ENDROOT
BRANCH   6   9
ATOM      9  C   UNL     1      46.351   5.797  12.382  0.00  0.00    +0.000 A 
ATOM     10  C   UNL     1      45.926   6.066  11.071  0.00  0.00    +0.000 A 
ATOM     11  C   UNL     1      45.186   5.134  10.333  0.00  0.00    +0.000 A 
ATOM     12  C   UNL     1      44.891   3.888  10.877  0.00  0.00    +0.000 A 
ATOM     13  C   UNL     1      45.271   3.615  12.190  0.00  0.00    +0.000 A 
ATOM     14  C   UNL     1      45.999   4.553  12.929  0.00  0.00    +0.000 A 
BRANCH  12  15
ATOM     15  O   UNL     1      44.209   2.884  10.264  0.00  0.00    +0.000 OA
BRANCH  15  16
ATOM     16  C   UNL     1      44.744   2.282   9.094  0.00  0.00    +0.000 C 
ATOM     17  F   UNL     1      46.090   2.201   9.068  0.00  0.00    +0.000 F 
ATOM     18  F   UNL     1      44.256   1.024   9.000  0.00  0.00    +0.000 F 
ATOM     19  F   UNL     1      44.329   2.975   8.011  0.00  0.00    +0.000 F 
ENDBRANCH  15  16
ENDBRANCH  12  15
ENDBRANCH   6   9
BRANCH   1  20
ATOM     20  C   UNL     1      50.447   7.342  16.335  0.00  0.00    +0.000 C 
BRANCH  20  22
ATOM     21  C   UNL     1      52.152   5.758  17.300  0.00  0.00    +0.000 C 
ATOM     22  C   UNL     1      50.711   6.301  17.461  0.00  0.00    +0.000 C 
ATOM     23  C   UNL     1      50.672   7.039  18.824  0.00  0.00    +0.000 C 
BRANCH  22  24
ATOM     24  C   UNL     1      49.632   5.199  17.477  0.00  0.00    +0.000 A 
ATOM     25  C   UNL     1      49.953   3.834  17.346  0.00  0.00    +0.000 A 
ATOM     26  C   UNL     1      48.971   2.846  17.440  0.00  0.00    +0.000 A 
ATOM     27  C   UNL     1      47.650   3.210  17.657  0.00  0.00    +0.000 A 
ATOM     28  F   UNL     1      46.714   2.260  17.776  0.00  0.00    +0.000 F 
ATOM     29  C   UNL     1      47.291   4.545  17.760  0.00  0.00    +0.000 A 
ATOM     30  C   UNL     1      48.274   5.534  17.664  0.00  0.00    +0.000 A 
ENDBRANCH  22  24
ENDBRANCH  20  22
ENDBRANCH   1  20
TORSDOF 6
ENDMDL
MODEL 2
REMARK VINA RESULT:    -6.799      1.584      2.346
REMARK INTER + INTRA:         -10.476
REMARK INTER:                  -9.488
REMARK INTRA:                  -0.988
REMARK UNBOUND:                -1.293
REMARK  Name = 
REMARK  8 active torsions:
REMARK  status: ('A' for Active; 'I' for Inactive)
REMARK    1  A    between atoms: C_1  and  C_2
REMARK    2  A    between atoms: C_2  and  C_3
REMARK    3  A    between atoms: C_2  and  C_4
REMARK    4  A    between atoms: C_2  and  C_23
REMARK    5  A    between atoms: C_4  and  N_5
REMARK    6  A    between atoms: C_10  and  C_11
REMARK    7  A    between atoms: C_14  and  O_15
REMARK    8  A    between atoms: O_15  and  C_16
REMARK                            x       y       z     vdW  Elec       q    Type
REMARK                         _______ _______ _______ _____ _____    ______ ____
ROOT
ATOM      1  N   UNL     1      50.100   6.271  16.073  0.00  0.00    +0.000 N 
ATOM      2  C   UNL     1      49.204   7.014  15.318  0.00  0.00    +0.000 A 
ATOM      3  N   UNL     1      49.106   8.336  15.516  0.00  0.00    +0.000 NA
ATOM      4  C   UNL     1      48.202   8.997  14.774  0.00  0.00    +0.000 A 
ATOM      5  C   UNL     1      47.388   8.386  13.855  0.00  0.00    +0.000 A 
ATOM      6  C   UNL     1      47.552   7.021  13.714  0.00  0.00    +0.000 A 
ATOM      7  N   UNL     1      48.461   6.334  14.441  0.00  0.00    +0.000 NA
ATOM      8  H   UNL     1      49.783   5.307  16.028  0.00  0.00    +0.000 HD
ENDROOT
BRANCH   6   9
ATOM      9  C   UNL     1      46.737   6.230  12.769  0.00  0.00    +0.000 A 
ATOM     10  C   UNL     1      46.151   5.015  13.160  0.00  0.00    +0.000 A 
ATOM     11  C   UNL     1      45.378   4.254  12.275  0.00  0.00    +0.000 A 
ATOM     12  C   UNL     1      45.135   4.716  10.985  0.00  0.00    +0.000 A 
ATOM     13  C   UNL     1      45.739   5.900  10.565  0.00  0.00    +0.000 A 
ATOM     14  C   UNL     1      46.521   6.651  11.447  0.00  0.00    +0.000 A 
BRANCH  12  15
ATOM     15  O   UNL     1      44.384   4.095  10.037  0.00  0.00    +0.000 OA
BRANCH  15  16
ATOM     16  C   UNL     1      45.006   3.214   9.112  0.00  0.00    +0.000 C 
ATOM     17  F   UNL     1      45.978   3.777   8.366  0.00  0.00    +0.000 F 
ATOM     18  F   UNL     1      45.560   2.193   9.803  0.00  0.00    +0.000 F 
ATOM     19  F   UNL     1      44.066   2.703   8.289  0.00  0.00    +0.000 F 
ENDBRANCH  15  16
ENDBRANCH  12  15
ENDBRANCH   6   9
BRANCH   1  20
ATOM     20  C   UNL     1      50.324   6.796  17.417  0.00  0.00    +0.000 C 
BRANCH  20  22
ATOM     21  C   UNL     1      50.450   6.290  19.882  0.00  0.00    +0.000 C 
ATOM     22  C   UNL     1      49.956   5.756  18.514  0.00  0.00    +0.000 C 
ATOM     23  C   UNL     1      48.411   5.675  18.609  0.00  0.00    +0.000 C 
BRANCH  22  24
ATOM     24  C   UNL     1      50.494   4.353  18.166  0.00  0.00    +0.000 A 
ATOM     25  C   UNL     1      49.673   3.353  17.609  0.00  0.00    +0.000 A 
ATOM     26  C   UNL     1      50.196   2.114  17.230  0.00  0.00    +0.000 A 
ATOM     27  C   UNL     1      51.546   1.855  17.412  0.00  0.00    +0.000 A 
ATOM     28  F   UNL     1      52.051   0.678  17.021  0.00  0.00    +0.000 F 
ATOM     29  C   UNL     1      52.379   2.804  17.986  0.00  0.00    +0.000 A 
ATOM     30  C   UNL     1      51.855   4.042  18.367  0.00  0.00    +0.000 A 
ENDBRANCH  22  24
ENDBRANCH  20  22
ENDBRANCH   1  20
TORSDOF 6
ENDMDL
MODEL 3
REMARK VINA RESULT:    -6.577      3.281      8.563
REMARK INTER + INTRA:         -10.177
REMARK INTER:                  -9.079
REMARK INTRA:                  -1.098
REMARK UNBOUND:                -1.293
REMARK  Name = 
REMARK  8 active torsions:
REMARK  status: ('A' for Active; 'I' for Inactive)
REMARK    1  A    between atoms: C_1  and  C_2
REMARK    2  A    between atoms: C_2  and  C_3
REMARK    3  A    between atoms: C_2  and  C_4
REMARK    4  A    between atoms: C_2  and  C_23
REMARK    5  A    between atoms: C_4  and  N_5
REMARK    6  A    between atoms: C_10  and  C_11
REMARK    7  A    between atoms: C_14  and  O_15
REMARK    8  A    between atoms: O_15  and  C_16
REMARK                            x       y       z     vdW  Elec       q    Type
REMARK                         _______ _______ _______ _____ _____    ______ ____
ROOT
ATOM      1  N   UNL     1      45.291   6.815  12.809  0.00  0.00    +0.000 N 
ATOM      2  C   UNL     1      46.646   7.111  12.834  0.00  0.00    +0.000 A 
ATOM      3  N   UNL     1      47.226   7.660  11.758  0.00  0.00    +0.000 NA
ATOM      4  C   UNL     1      48.545   7.899  11.833  0.00  0.00    +0.000 A 
ATOM      5  C   UNL     1      49.305   7.599  12.936  0.00  0.00    +0.000 A 
ATOM      6  C   UNL     1      48.630   7.035  14.000  0.00  0.00    +0.000 A 
ATOM      7  N   UNL     1      47.300   6.793  13.954  0.00  0.00    +0.000 NA
ATOM      8  H   UNL     1      45.134   6.122  13.534  0.00  0.00    +0.000 HD
ENDROOT
BRANCH   6   9
ATOM      9  C   UNL     1      49.320   6.651  15.249  0.00  0.00    +0.000 A 
ATOM     10  C   UNL     1      48.669   5.888  16.231  0.00  0.00    +0.000 A 
ATOM     11  C   UNL     1      49.312   5.518  17.419  0.00  0.00    +0.000 A 
ATOM     12  C   UNL     1      50.641   5.868  17.633  0.00  0.00    +0.000 A 
ATOM     13  C   UNL     1      51.293   6.658  16.687  0.00  0.00    +0.000 A 
ATOM     14  C   UNL     1      50.646   7.037  15.508  0.00  0.00    +0.000 A 
BRANCH  12  15
ATOM     15  O   UNL     1      51.390   5.552  18.722  0.00  0.00    +0.000 OA
BRANCH  15  16
ATOM     16  C   UNL     1      52.258   4.428  18.677  0.00  0.00    +0.000 C 
ATOM     17  F   UNL     1      53.470   4.674  18.140  0.00  0.00    +0.000 F 
ATOM     18  F   UNL     1      52.453   3.989  19.941  0.00  0.00    +0.000 F 
ATOM     19  F   UNL     1      51.664   3.439  17.976  0.00  0.00    +0.000 F 
ENDBRANCH  15  16
ENDBRANCH  12  15
ENDBRANCH   6   9
BRANCH   1  20
ATOM     20  C   UNL     1      44.783   6.465  11.485  0.00  0.00    +0.000 C 
BRANCH  20  22
ATOM     21  C   UNL     1      44.630   4.301  12.766  0.00  0.00    +0.000 C 
ATOM     22  C   UNL     1      44.258   5.001  11.435  0.00  0.00    +0.000 C 
ATOM     23  C   UNL     1      42.710   5.041  11.380  0.00  0.00    +0.000 C 
BRANCH  22  24
ATOM     24  C   UNL     1      44.768   4.260  10.182  0.00  0.00    +0.000 A 
ATOM     25  C   UNL     1      45.500   4.912   9.172  0.00  0.00    +0.000 A 
ATOM     26  C   UNL     1      46.020   4.208   8.083  0.00  0.00    +0.000 A 
ATOM     27  C   UNL     1      45.804   2.842   7.984  0.00  0.00    +0.000 A 
ATOM     28  F   UNL     1      46.326   2.163   6.955  0.00  0.00    +0.000 F 
ATOM     29  C   UNL     1      45.060   2.170   8.943  0.00  0.00    +0.000 A 
ATOM     30  C   UNL     1      44.540   2.876  10.031  0.00  0.00    +0.000 A 
ENDBRANCH  22  24
ENDBRANCH  20  22
ENDBRANCH   1  20
TORSDOF 6
ENDMDL
MODEL 4
REMARK VINA RESULT:    -6.249      2.407      3.529
REMARK INTER + INTRA:          -9.734
REMARK INTER:                  -8.540
REMARK INTRA:                  -1.194
REMARK UNBOUND:                -1.293
REMARK  Name = 
REMARK  8 active torsions:
REMARK  status: ('A' for Active; 'I' for Inactive)
REMARK    1  A    between atoms: C_1  and  C_2
REMARK    2  A    between atoms: C_2  and  C_3
REMARK    3  A    between atoms: C_2  and  C_4
REMARK    4  A    between atoms: C_2  and  C_23
REMARK    5  A    between atoms: C_4  and  N_5
REMARK    6  A    between atoms: C_10  and  C_11
REMARK    7  A    between atoms: C_14  and  O_15
REMARK    8  A    between atoms: O_15  and  C_16
REMARK                            x       y       z     vdW  Elec       q    Type
REMARK                         _______ _______ _______ _____ _____    ______ ____
ROOT
ATOM      1  N   UNL     1      49.394   7.183  15.716  0.00  0.00    +0.000 N 
ATOM      2  C   UNL     1      48.606   6.045  15.626  0.00  0.00    +0.000 A 
ATOM      3  N   UNL     1      48.613   5.151  16.624  0.00  0.00    +0.000 NA
ATOM      4  C   UNL     1      47.850   4.057  16.466  0.00  0.00    +0.000 A 
ATOM      5  C   UNL     1      47.092   3.820  15.348  0.00  0.00    +0.000 A 
ATOM      6  C   UNL     1      47.141   4.791  14.367  0.00  0.00    +0.000 A 
ATOM      7  N   UNL     1      47.894   5.906  14.505  0.00  0.00    +0.000 NA
ATOM      8  H   UNL     1      49.514   7.525  14.768  0.00  0.00    +0.000 HD
ENDROOT
BRANCH   6   9
ATOM      9  C   UNL     1      46.384   4.666  13.104  0.00  0.00    +0.000 A 
ATOM     10  C   UNL     1      46.343   5.719  12.178  0.00  0.00    +0.000 A 
ATOM     11  C   UNL     1      45.628   5.614  10.977  0.00  0.00    +0.000 A 
ATOM     12  C   UNL     1      44.973   4.430  10.656  0.00  0.00    +0.000 A 
ATOM     13  C   UNL     1      44.970   3.385  11.580  0.00  0.00    +0.000 A 
ATOM     14  C   UNL     1      45.673   3.498  12.783  0.00  0.00    +0.000 A 
BRANCH  12  15
ATOM     15  O   UNL     1      44.270   4.183   9.519  0.00  0.00    +0.000 OA
BRANCH  15  16
ATOM     16  C   UNL     1      44.760   3.235   8.580  0.00  0.00    +0.000 C 
ATOM     17  F   UNL     1      44.302   1.979   8.757  0.00  0.00    +0.000 F 
ATOM     18  F   UNL     1      44.394   3.633   7.341  0.00  0.00    +0.000 F 
ATOM     19  F   UNL     1      46.109   3.218   8.634  0.00  0.00    +0.000 F 
ENDBRANCH  15  16
ENDBRANCH  12  15
ENDBRANCH   6   9
BRANCH   1  20
ATOM     20  C   UNL     1      50.627   6.993  16.476  0.00  0.00    +0.000 C 
BRANCH  20  22
ATOM     21  C   UNL     1      52.096   7.821  18.348  0.00  0.00    +0.000 C 
ATOM     22  C   UNL     1      50.923   8.202  17.410  0.00  0.00    +0.000 C 
ATOM     23  C   UNL     1      51.427   9.379  16.537  0.00  0.00    +0.000 C 
BRANCH  22  24
ATOM     24  C   UNL     1      49.656   8.662  18.159  0.00  0.00    +0.000 A 
ATOM     25  C   UNL     1      49.015   9.881  17.868  0.00  0.00    +0.000 A 
ATOM     26  C   UNL     1      47.825  10.244  18.503  0.00  0.00    +0.000 A 
ATOM     27  C   UNL     1      47.265   9.397  19.447  0.00  0.00    +0.000 A 
ATOM     28  F   UNL     1      46.110   9.733  20.034  0.00  0.00    +0.000 F 
ATOM     29  C   UNL     1      47.885   8.202  19.783  0.00  0.00    +0.000 A 
ATOM     30  C   UNL     1      49.076   7.840  19.148  0.00  0.00    +0.000 A 
ENDBRANCH  22  24
ENDBRANCH  20  22
ENDBRANCH   1  20
TORSDOF 6
ENDMDL
MODEL 5
REMARK VINA RESULT:    -5.945      2.598      3.854
REMARK INTER + INTRA:          -9.323
REMARK INTER:                  -8.532
REMARK INTRA:                  -0.791
REMARK UNBOUND:                -1.293
REMARK  Name = 
REMARK  8 active torsions:
REMARK  status: ('A' for Active; 'I' for Inactive)
REMARK    1  A    between atoms: C_1  and  C_2
REMARK    2  A    between atoms: C_2  and  C_3
REMARK    3  A    between atoms: C_2  and  C_4
REMARK    4  A    between atoms: C_2  and  C_23
REMARK    5  A    between atoms: C_4  and  N_5
REMARK    6  A    between atoms: C_10  and  C_11
REMARK    7  A    between atoms: C_14  and  O_15
REMARK    8  A    between atoms: O_15  and  C_16
REMARK                            x       y       z     vdW  Elec       q    Type
REMARK                         _______ _______ _______ _____ _____    ______ ____
ROOT
ATOM      1  N   UNL     1      49.960   6.175  17.846  0.00  0.00    +0.000 N 
ATOM      2  C   UNL     1      48.974   5.314  17.388  0.00  0.00    +0.000 A 
ATOM      3  N   UNL     1      48.606   4.265  18.137  0.00  0.00    +0.000 NA
ATOM      4  C   UNL     1      47.666   3.454  17.628  0.00  0.00    +0.000 A 
ATOM      5  C   UNL     1      47.089   3.644  16.397  0.00  0.00    +0.000 A 
ATOM      6  C   UNL     1      47.524   4.748  15.690  0.00  0.00    +0.000 A 
ATOM      7  N   UNL     1      48.463   5.586  16.184  0.00  0.00    +0.000 NA
ATOM      8  H   UNL     1      50.321   6.659  17.030  0.00  0.00    +0.000 HD
ENDROOT
BRANCH   6   9
ATOM      9  C   UNL     1      46.999   5.073  14.348  0.00  0.00    +0.000 A 
ATOM     10  C   UNL     1      47.681   5.959  13.499  0.00  0.00    +0.000 A 
ATOM     11  C   UNL     1      47.194   6.277  12.225  0.00  0.00    +0.000 A 
ATOM     12  C   UNL     1      46.032   5.677  11.751  0.00  0.00    +0.000 A 
ATOM     13  C   UNL     1      45.320   4.823  12.593  0.00  0.00    +0.000 A 
ATOM     14  C   UNL     1      45.801   4.518  13.869  0.00  0.00    +0.000 A 
BRANCH  12  15
ATOM     15  O   UNL     1      45.465   5.871  10.531  0.00  0.00    +0.000 OA
BRANCH  15  16
ATOM     16  C   UNL     1      45.120   4.751   9.729  0.00  0.00    +0.000 C 
ATOM     17  F   UNL     1      45.498   3.559  10.234  0.00  0.00    +0.000 F 
ATOM     18  F   UNL     1      43.775   4.726   9.587  0.00  0.00    +0.000 F 
ATOM     19  F   UNL     1      45.668   4.898   8.504  0.00  0.00    +0.000 F 
ENDBRANCH  15  16
ENDBRANCH  12  15
ENDBRANCH   6   9
BRANCH   1  20
ATOM     20  C   UNL     1      50.964   5.532  18.690  0.00  0.00    +0.000 C 
BRANCH  20  22
ATOM     21  C   UNL     1      52.263   6.176  16.629  0.00  0.00    +0.000 C 
ATOM     22  C   UNL     1      52.325   5.373  17.952  0.00  0.00    +0.000 C 
ATOM     23  C   UNL     1      53.427   6.037  18.816  0.00  0.00    +0.000 C 
BRANCH  22  24
ATOM     24  C   UNL     1      52.692   3.887  17.757  0.00  0.00    +0.000 A 
ATOM     25  C   UNL     1      54.028   3.445  17.718  0.00  0.00    +0.000 A 
ATOM     26  C   UNL     1      54.339   2.087  17.618  0.00  0.00    +0.000 A 
ATOM     27  C   UNL     1      53.317   1.152  17.546  0.00  0.00    +0.000 A 
ATOM     28  F   UNL     1      53.617  -0.151  17.479  0.00  0.00    +0.000 F 
ATOM     29  C   UNL     1      51.989   1.553  17.550  0.00  0.00    +0.000 A 
ATOM     30  C   UNL     1      51.679   2.912  17.648  0.00  0.00    +0.000 A 
ENDBRANCH  22  24
ENDBRANCH  20  22
ENDBRANCH   1  20
TORSDOF 6
ENDMDL
MODEL 6
REMARK VINA RESULT:    -5.914      4.681      6.454
REMARK INTER + INTRA:          -9.281
REMARK INTER:                  -8.204
REMARK INTRA:                  -1.077
REMARK UNBOUND:                -1.293
REMARK  Name = 
REMARK  8 active torsions:
REMARK  status: ('A' for Active; 'I' for Inactive)
REMARK    1  A    between atoms: C_1  and  C_2
REMARK    2  A    between atoms: C_2  and  C_3
REMARK    3  A    between atoms: C_2  and  C_4
REMARK    4  A    between atoms: C_2  and  C_23
REMARK    5  A    between atoms: C_4  and  N_5
REMARK    6  A    between atoms: C_10  and  C_11
REMARK    7  A    between atoms: C_14  and  O_15
REMARK    8  A    between atoms: O_15  and  C_16
REMARK                            x       y       z     vdW  Elec       q    Type
REMARK                         _______ _______ _______ _____ _____    ______ ____
ROOT
ATOM      1  N   UNL     1      50.767   8.428  11.115  0.00  0.00    +0.000 N 
ATOM      2  C   UNL     1      49.823   8.540  12.126  0.00  0.00    +0.000 A 
ATOM      3  N   UNL     1      49.932   9.522  13.031  0.00  0.00    +0.000 NA
ATOM      4  C   UNL     1      49.004   9.562  14.000  0.00  0.00    +0.000 A 
ATOM      5  C   UNL     1      47.980   8.653  14.104  0.00  0.00    +0.000 A 
ATOM      6  C   UNL     1      47.941   7.673  13.131  0.00  0.00    +0.000 A 
ATOM      7  N   UNL     1      48.859   7.616  12.139  0.00  0.00    +0.000 NA
ATOM      8  H   UNL     1      50.713   7.473  10.776  0.00  0.00    +0.000 HD
ENDROOT
BRANCH   6   9
ATOM      9  C   UNL     1      46.903   6.622  13.122  0.00  0.00    +0.000 A 
ATOM     10  C   UNL     1      45.566   6.928  12.824  0.00  0.00    +0.000 A 
ATOM     11  C   UNL     1      44.572   5.942  12.813  0.00  0.00    +0.000 A 
ATOM     12  C   UNL     1      44.903   4.613  13.057  0.00  0.00    +0.000 A 
ATOM     13  C   UNL     1      46.218   4.294  13.392  0.00  0.00    +0.000 A 
ATOM     14  C   UNL     1      47.206   5.283  13.415  0.00  0.00    +0.000 A 
BRANCH  12  15
ATOM     15  O   UNL     1      44.048   3.556  13.049  0.00  0.00    +0.000 OA
BRANCH  15  16
ATOM     16  C   UNL     1      43.584   3.035  11.811  0.00  0.00    +0.000 C 
ATOM     17  F   UNL     1      43.013   1.816  11.893  0.00  0.00    +0.000 F 
ATOM     18  F   UNL     1      42.661   3.886  11.309  0.00  0.00    +0.000 F 
ATOM     19  F   UNL     1      44.616   2.975  10.943  0.00  0.00    +0.000 F 
ENDBRANCH  15  16
ENDBRANCH  12  15
ENDBRANCH   6   9
BRANCH   1  20
ATOM     20  C   UNL     1      52.101   8.885  11.496  0.00  0.00    +0.000 C 
BRANCH  20  22
ATOM     21  C   UNL     1      52.482  10.229   9.399  0.00  0.00    +0.000 C 
ATOM     22  C   UNL     1      53.028   9.061  10.258  0.00  0.00    +0.000 C 
ATOM     23  C   UNL     1      54.427   9.501  10.756  0.00  0.00    +0.000 C 
BRANCH  22  24
ATOM     24  C   UNL     1      53.186   7.740   9.477  0.00  0.00    +0.000 A 
ATOM     25  C   UNL     1      52.811   7.620   8.125  0.00  0.00    +0.000 A 
ATOM     26  C   UNL     1      53.034   6.438   7.414  0.00  0.00    +0.000 A 
ATOM     27  C   UNL     1      53.625   5.356   8.049  0.00  0.00    +0.000 A 
ATOM     28  F   UNL     1      53.863   4.235   7.357  0.00  0.00    +0.000 F 
ATOM     29  C   UNL     1      53.978   5.427   9.388  0.00  0.00    +0.000 A 
ATOM     30  C   UNL     1      53.753   6.608  10.099  0.00  0.00    +0.000 A 
ENDBRANCH  22  24
ENDBRANCH  20  22
ENDBRANCH   1  20
TORSDOF 6
ENDMDL
MODEL 7
REMARK VINA RESULT:    -5.857      4.032      8.212
REMARK INTER + INTRA:          -9.204
REMARK INTER:                  -8.343
REMARK INTRA:                  -0.861
REMARK UNBOUND:                -1.293
REMARK  Name = 
REMARK  8 active torsions:
REMARK  status: ('A' for Active; 'I' for Inactive)
REMARK    1  A    between atoms: C_1  and  C_2
REMARK    2  A    between atoms: C_2  and  C_3
REMARK    3  A    between atoms: C_2  and  C_4
REMARK    4  A    between atoms: C_2  and  C_23
REMARK    5  A    between atoms: C_4  and  N_5
REMARK    6  A    between atoms: C_10  and  C_11
REMARK    7  A    between atoms: C_14  and  O_15
REMARK    8  A    between atoms: O_15  and  C_16
REMARK                            x       y       z     vdW  Elec       q    Type
REMARK                         _______ _______ _______ _____ _____    ______ ____
ROOT
ATOM      1  N   UNL     1      48.050   6.533  14.885  0.00  0.00    +0.000 N 
ATOM      2  C   UNL     1      48.777   6.471  16.065  0.00  0.00    +0.000 A 
ATOM      3  N   UNL     1      48.782   7.520  16.899  0.00  0.00    +0.000 NA
ATOM      4  C   UNL     1      49.525   7.410  18.011  0.00  0.00    +0.000 A 
ATOM      5  C   UNL     1      50.271   6.298  18.315  0.00  0.00    +0.000 A 
ATOM      6  C   UNL     1      50.212   5.263  17.402  0.00  0.00    +0.000 A 
ATOM      7  N   UNL     1      49.463   5.345  16.279  0.00  0.00    +0.000 NA
ATOM      8  H   UNL     1      48.443   5.829  14.268  0.00  0.00    +0.000 HD
ENDROOT
BRANCH   6   9
ATOM      9  C   UNL     1      50.970   4.009  17.592  0.00  0.00    +0.000 A 
ATOM     10  C   UNL     1      52.247   4.017  18.175  0.00  0.00    +0.000 A 
ATOM     11  C   UNL     1      52.977   2.836  18.360  0.00  0.00    +0.000 A 
ATOM     12  C   UNL     1      52.424   1.610  18.004  0.00  0.00    +0.000 A 
ATOM     13  C   UNL     1      51.173   1.585  17.388  0.00  0.00    +0.000 A 
ATOM     14  C   UNL     1      50.452   2.766  17.193  0.00  0.00    +0.000 A 
BRANCH  12  15
ATOM     15  O   UNL     1      53.007   0.391  18.152  0.00  0.00    +0.000 OA
BRANCH  15  16
ATOM     16  C   UNL     1      54.099   0.027  17.318  0.00  0.00    +0.000 C 
ATOM     17  F   UNL     1      55.072   0.955  17.229  0.00  0.00    +0.000 F 
ATOM     18  F   UNL     1      54.654  -1.103  17.811  0.00  0.00    +0.000 F 
ATOM     19  F   UNL     1      53.637  -0.239  16.078  0.00  0.00    +0.000 F 
ENDBRANCH  15  16
ENDBRANCH  12  15
ENDBRANCH   6   9
BRANCH   1  20
ATOM     20  C   UNL     1      47.948   7.876  14.321  0.00  0.00    +0.000 C 
BRANCH  20  22
ATOM     21  C   UNL     1      48.049   9.291  12.238  0.00  0.00    +0.000 C 
ATOM     22  C   UNL     1      47.864   7.847  12.768  0.00  0.00    +0.000 C 
ATOM     23  C   UNL     1      49.065   7.027  12.231  0.00  0.00    +0.000 C 
BRANCH  22  24
ATOM     24  C   UNL     1      46.563   7.173  12.284  0.00  0.00    +0.000 A 
ATOM     25  C   UNL     1      45.391   7.908  12.024  0.00  0.00    +0.000 A 
ATOM     26  C   UNL     1      44.247   7.290  11.513  0.00  0.00    +0.000 A 
ATOM     27  C   UNL     1      44.256   5.925  11.266  0.00  0.00    +0.000 A 
ATOM     28  F   UNL     1      43.168   5.340  10.749  0.00  0.00    +0.000 F 
ATOM     29  C   UNL     1      45.382   5.164  11.539  0.00  0.00    +0.000 A 
ATOM     30  C   UNL     1      46.526   5.782  12.052  0.00  0.00    +0.000 A 
ENDBRANCH  22  24
ENDBRANCH  20  22
ENDBRANCH   1  20
TORSDOF 6
ENDMDL
MODEL 8
REMARK VINA RESULT:    -5.580      2.374      3.371
REMARK INTER + INTRA:          -8.830
REMARK INTER:                  -7.539
REMARK INTRA:                  -1.290
REMARK UNBOUND:                -1.293
REMARK  Name = 
REMARK  8 active torsions:
REMARK  status: ('A' for Active; 'I' for Inactive)
REMARK    1  A    between atoms: C_1  and  C_2
REMARK    2  A    between atoms: C_2  and  C_3
REMARK    3  A    between atoms: C_2  and  C_4
REMARK    4  A    between atoms: C_2  and  C_23
REMARK    5  A    between atoms: C_4  and  N_5
REMARK    6  A    between atoms: C_10  and  C_11
REMARK    7  A    between atoms: C_14  and  O_15
REMARK    8  A    between atoms: O_15  and  C_16
REMARK                            x       y       z     vdW  Elec       q    Type
REMARK                         _______ _______ _______ _____ _____    ______ ____
ROOT
ATOM      1  N   UNL     1      50.893   6.141  16.636  0.00  0.00    +0.000 N 
ATOM      2  C   UNL     1      50.169   6.995  15.817  0.00  0.00    +0.000 A 
ATOM      3  N   UNL     1      50.399   8.314  15.863  0.00  0.00    +0.000 NA
ATOM      4  C   UNL     1      49.647   9.091  15.067  0.00  0.00    +0.000 A 
ATOM      5  C   UNL     1      48.670   8.601  14.237  0.00  0.00    +0.000 A 
ATOM      6  C   UNL     1      48.497   7.231  14.250  0.00  0.00    +0.000 A 
ATOM      7  N   UNL     1      49.247   6.425  15.036  0.00  0.00    +0.000 NA
ATOM      8  H   UNL     1      50.353   5.284  16.707  0.00  0.00    +0.000 HD
ENDROOT
BRANCH   6   9
ATOM      9  C   UNL     1      47.477   6.564  13.416  0.00  0.00    +0.000 A 
ATOM     10  C   UNL     1      46.790   5.431  13.880  0.00  0.00    +0.000 A 
ATOM     11  C   UNL     1      45.821   4.789  13.099  0.00  0.00    +0.000 A 
ATOM     12  C   UNL     1      45.483   5.295  11.848  0.00  0.00    +0.000 A 
ATOM     13  C   UNL     1      46.180   6.397  11.354  0.00  0.00    +0.000 A 
ATOM     14  C   UNL     1      47.156   7.028  12.130  0.00  0.00    +0.000 A 
BRANCH  12  15
ATOM     15  O   UNL     1      44.546   4.790  11.002  0.00  0.00    +0.000 OA
BRANCH  15  16
ATOM     16  C   UNL     1      44.914   3.791  10.062  0.00  0.00    +0.000 C 
ATOM     17  F   UNL     1      45.677   4.232   9.041  0.00  0.00    +0.000 F 
ATOM     18  F   UNL     1      45.612   2.831  10.709  0.00  0.00    +0.000 F 
ATOM     19  F   UNL     1      43.795   3.227   9.556  0.00  0.00    +0.000 F 
ENDBRANCH  15  16
ENDBRANCH  12  15
ENDBRANCH   6   9
BRANCH   1  20
ATOM     20  C   UNL     1      51.296   6.737  17.907  0.00  0.00    +0.000 C 
BRANCH  20  22
ATOM     21  C   UNL     1      49.838   4.849  18.717  0.00  0.00    +0.000 C 
ATOM     22  C   UNL     1      50.409   6.241  19.085  0.00  0.00    +0.000 C 
ATOM     23  C   UNL     1      51.318   6.027  20.322  0.00  0.00    +0.000 C 
BRANCH  22  24
ATOM     24  C   UNL     1      49.327   7.276  19.454  0.00  0.00    +0.000 A 
ATOM     25  C   UNL     1      49.512   8.219  20.483  0.00  0.00    +0.000 A 
ATOM     26  C   UNL     1      48.552   9.198  20.750  0.00  0.00    +0.000 A 
ATOM     27  C   UNL     1      47.388   9.241  19.997  0.00  0.00    +0.000 A 
ATOM     28  F   UNL     1      46.482  10.198  20.236  0.00  0.00    +0.000 F 
ATOM     29  C   UNL     1      47.157   8.309  18.996  0.00  0.00    +0.000 A 
ATOM     30  C   UNL     1      48.117   7.329  18.731  0.00  0.00    +0.000 A 
ENDBRANCH  22  24
ENDBRANCH  20  22
ENDBRANCH   1  20
TORSDOF 6
ENDMDL
MODEL 9
REMARK VINA RESULT:    -5.521      2.931      4.488
REMARK INTER + INTRA:          -8.750
REMARK INTER:                  -7.689
REMARK INTRA:                  -1.060
REMARK UNBOUND:                -1.293
REMARK  Name = 
REMARK  8 active torsions:
REMARK  status: ('A' for Active; 'I' for Inactive)
REMARK    1  A    between atoms: C_1  and  C_2
REMARK    2  A    between atoms: C_2  and  C_3
REMARK    3  A    between atoms: C_2  and  C_4
REMARK    4  A    between atoms: C_2  and  C_23
REMARK    5  A    between atoms: C_4  and  N_5
REMARK    6  A    between atoms: C_10  and  C_11
REMARK    7  A    between atoms: C_14  and  O_15
REMARK    8  A    between atoms: O_15  and  C_16
REMARK                            x       y       z     vdW  Elec       q    Type
REMARK                         _______ _______ _______ _____ _____    ______ ____
ROOT
ATOM      1  N   UNL     1      49.392   7.150  15.969  0.00  0.00    +0.000 N 
ATOM      2  C   UNL     1      48.635   5.996  15.828  0.00  0.00    +0.000 A 
ATOM      3  N   UNL     1      48.652   5.068  16.794  0.00  0.00    +0.000 NA
ATOM      4  C   UNL     1      47.921   3.961  16.588  0.00  0.00    +0.000 A 
ATOM      5  C   UNL     1      47.184   3.743  15.451  0.00  0.00    +0.000 A 
ATOM      6  C   UNL     1      47.221   4.749  14.504  0.00  0.00    +0.000 A 
ATOM      7  N   UNL     1      47.943   5.877  14.692  0.00  0.00    +0.000 NA
ATOM      8  H   UNL     1      49.516   7.528  15.035  0.00  0.00    +0.000 HD
ENDROOT
BRANCH   6   9
ATOM      9  C   UNL     1      46.486   4.648  13.227  0.00  0.00    +0.000 A 
ATOM     10  C   UNL     1      46.426   5.733  12.339  0.00  0.00    +0.000 A 
ATOM     11  C   UNL     1      45.732   5.651  11.125  0.00  0.00    +0.000 A 
ATOM     12  C   UNL     1      45.116   4.461  10.751  0.00  0.00    +0.000 A 
ATOM     13  C   UNL     1      45.131   3.384  11.637  0.00  0.00    +0.000 A 
ATOM     14  C   UNL     1      45.814   3.473  12.853  0.00  0.00    +0.000 A 
BRANCH  12  15
ATOM     15  O   UNL     1      44.436   4.236   9.596  0.00  0.00    +0.000 OA
BRANCH  15  16
ATOM     16  C   UNL     1      45.126   3.732   8.460  0.00  0.00    +0.000 C 
ATOM     17  F   UNL     1      46.144   4.507   8.032  0.00  0.00    +0.000 F 
ATOM     18  F   UNL     1      45.638   2.521   8.774  0.00  0.00    +0.000 F 
ATOM     19  F   UNL     1      44.249   3.568   7.447  0.00  0.00    +0.000 F 
ENDBRANCH  15  16
ENDBRANCH  12  15
ENDBRANCH   6   9
BRANCH   1  20
ATOM     20  C   UNL     1      50.618   6.965  16.740  0.00  0.00    +0.000 C 
BRANCH  20  22
ATOM     21  C   UNL     1      50.587   9.403  17.376  0.00  0.00    +0.000 C 
ATOM     22  C   UNL     1      51.468   8.268  16.797  0.00  0.00    +0.000 C 
ATOM     23  C   UNL     1      52.622   8.052  17.808  0.00  0.00    +0.000 C 
BRANCH  22  24
ATOM     24  C   UNL     1      52.084   8.602  15.423  0.00  0.00    +0.000 A 
ATOM     25  C   UNL     1      53.124   7.836  14.862  0.00  0.00    +0.000 A 
ATOM     26  C   UNL     1      53.616   8.107  13.583  0.00  0.00    +0.000 A 
ATOM     27  C   UNL     1      53.080   9.156  12.851  0.00  0.00    +0.000 A 
ATOM     28  F   UNL     1      53.533   9.397  11.614  0.00  0.00    +0.000 F 
ATOM     29  C   UNL     1      52.076   9.952  13.382  0.00  0.00    +0.000 A 
ATOM     30  C   UNL     1      51.586   9.680  14.663  0.00  0.00    +0.000 A 
ENDBRANCH  22  24
ENDBRANCH  20  22
ENDBRANCH   1  20
TORSDOF 6
ENDMDL
