MODEL 1
REMARK VINA RESULT:    -7.808      0.000      0.000
REMARK INTER + INTRA:         -10.144
REMARK INTER:                  -9.634
REMARK INTRA:                  -0.510
REMARK UNBOUND:                -0.510
REMARK  Name = 
REMARK  4 active torsions:
REMARK  status: ('A' for Active; 'I' for Inactive)
REMARK    1  A    between atoms: C_5  and  N_6
REMARK    2  A    between atoms: N_6  and  C_7
REMARK    3  A    between atoms: C_7  and  C_8
REMARK    4  A    between atoms: C_12  and  N_13
REMARK                            x       y       z     vdW  Elec       q    Type
REMARK                         _______ _______ _______ _____ _____    ______ ____
ROOT
ATOM      1  C   UNL     1      44.262   3.354  10.654  0.00  0.00    +0.000 A 
ATOM      2  C   UNL     1      43.590   2.922  11.791  0.00  0.00    +0.000 A 
ATOM      3  N   UNL     1      43.673   3.564  12.972  0.00  0.00    +0.000 NA
ATOM      4  C   UNL     1      44.462   4.666  12.964  0.00  0.00    +0.000 A 
ATOM      5  C   UNL     1      45.143   5.153  11.840  0.00  0.00    +0.000 A 
ATOM      6  N   UNL     1      45.020   4.489  10.668  0.00  0.00    +0.000 NA
ENDROOT
BRANCH   5   7
ATOM      7  N   UNL     1      45.916   6.296  11.907  0.00  0.00    +0.000 N 
ATOM      8  C   UNL     1      47.273   6.239  12.459  0.00  0.00    +0.000 C 
ATOM      9  C   UNL     1      47.464   7.223  13.633  0.00  0.00    +0.000 C 
ATOM     10  N   UNL     1      46.998   8.598  13.346  0.00  0.00    +0.000 NA
ATOM     11  C   UNL     1      45.579   8.529  12.948  0.00  0.00    +0.000 C 
ATOM     12  C   UNL     1      45.324   7.624  11.719  0.00  0.00    +0.000 C 
ATOM     13  H   UNL     1      47.534   8.954  12.553  0.00  0.00    +0.000 HD
ENDBRANCH   5   7
BRANCH   1  14
ATOM     14  C   UNL     1      44.215   2.514   9.393  0.00  0.00    +0.000 C 
BRANCH  14  15
ATOM     15  N   UNL     1      45.467   1.810   9.138  0.00  0.00    +0.000 N 
ATOM     16  H   UNL     1      46.017   1.582   9.962  0.00  0.00    +0.000 HD
BRANCH  15  21
ATOM     17  C   UNL     1      46.794   3.339   6.003  0.00  0.00    +0.000 A 
ATOM     18  C   UNL     1      47.701   2.351   5.666  0.00  0.00    +0.000 A 
ATOM     19  N   UNL     1      47.899   1.244   6.407  0.00  0.00    +0.000 NA
ATOM     20  C   UNL     1      47.152   1.134   7.536  0.00  0.00    +0.000 A 
ATOM     21  C   UNL     1      46.228   2.076   8.001  0.00  0.00    +0.000 A 
ATOM     22  C   UNL     1      46.047   3.188   7.175  0.00  0.00    +0.000 A 
ENDBRANCH  15  21
ENDBRANCH  14  15
ENDBRANCH   1  14
TORSDOF 4
ENDMDL
MODEL 2
REMARK VINA RESULT:    -7.530      1.564      1.848
REMARK INTER + INTRA:          -9.801
REMARK INTER:                  -9.294
REMARK INTRA:                  -0.507
REMARK UNBOUND:                -0.510
REMARK  Name = 
REMARK  4 active torsions:
REMARK  status: ('A' for Active; 'I' for Inactive)
REMARK    1  A    between atoms: C_5  and  N_6
REMARK    2  A    between atoms: N_6  and  C_7
REMARK    3  A    between atoms: C_7  and  C_8
REMARK    4  A    between atoms: C_12  and  N_13
REMARK                            x       y       z     vdW  Elec       q    Type
REMARK                         _______ _______ _______ _____ _____    ______ ____
ROOT
ATOM      1  C   UNL     1      44.222   3.633  10.818  0.00  0.00    +0.000 A 
ATOM      2  C   UNL     1      43.070   4.200  11.351  0.00  0.00    +0.000 A 
ATOM      3  N   UNL     1      43.070   4.895  12.504  0.00  0.00    +0.000 NA
ATOM      4  C   UNL     1      44.281   5.001  13.103  0.00  0.00    +0.000 A 
ATOM      5  C   UNL     1      45.473   4.465  12.596  0.00  0.00    +0.000 A 
ATOM      6  N   UNL     1      45.434   3.789  11.425  0.00  0.00    +0.000 NA
ENDROOT
BRANCH   5   7
ATOM      7  N   UNL     1      46.675   4.631  13.257  0.00  0.00    +0.000 N 
ATOM      8  C   UNL     1      47.000   3.798  14.418  0.00  0.00    +0.000 C 
ATOM      9  C   UNL     1      47.319   4.644  15.669  0.00  0.00    +0.000 C 
ATOM     10  N   UNL     1      48.296   5.729  15.426  0.00  0.00    +0.000 NA
ATOM     11  C   UNL     1      47.776   6.580  14.339  0.00  0.00    +0.000 C 
ATOM     12  C   UNL     1      47.513   5.811  13.023  0.00  0.00    +0.000 C 
ATOM     13  H   UNL     1      49.168   5.304  15.109  0.00  0.00    +0.000 HD
ENDBRANCH   5   7
BRANCH   1  14
ATOM     14  C   UNL     1      44.123   2.766   9.579  0.00  0.00    +0.000 C 
BRANCH  14  15
ATOM     15  N   UNL     1      45.318   1.959   9.360  0.00  0.00    +0.000 N 
ATOM     16  H   UNL     1      45.838   1.710  10.197  0.00  0.00    +0.000 HD
BRANCH  15  21
ATOM     17  C   UNL     1      46.857   3.338   6.252  0.00  0.00    +0.000 A 
ATOM     18  C   UNL     1      47.618   2.238   5.899  0.00  0.00    +0.000 A 
ATOM     19  N   UNL     1      47.657   1.103   6.623  0.00  0.00    +0.000 NA
ATOM     20  C   UNL     1      46.898   1.080   7.748  0.00  0.00    +0.000 A 
ATOM     21  C   UNL     1      46.113   2.134   8.228  0.00  0.00    +0.000 A 
ATOM     22  C   UNL     1      46.091   3.274   7.421  0.00  0.00    +0.000 A 
ENDBRANCH  15  21
ENDBRANCH  14  15
ENDBRANCH   1  14
TORSDOF 4
ENDMDL
MODEL 3
REMARK VINA RESULT:    -7.502      1.434      2.066
REMARK INTER + INTRA:          -9.766
REMARK INTER:                  -9.283
REMARK INTRA:                  -0.483
REMARK UNBOUND:                -0.510
REMARK  Name = 
REMARK  4 active torsions:
REMARK  status: ('A' for Active; 'I' for Inactive)
REMARK    1  A    between atoms: C_5  and  N_6
REMARK    2  A    between atoms: N_6  and  C_7
REMARK    3  A    between atoms: C_7  and  C_8
REMARK    4  A    between atoms: C_12  and  N_13
REMARK                            x       y       z     vdW  Elec       q    Type
REMARK                         _______ _______ _______ _____ _____    ______ ____
ROOT
ATOM      1  C   UNL     1      44.842   4.370  11.257  0.00  0.00    +0.000 A 
ATOM      2  C   UNL     1      45.040   3.284  12.101  0.00  0.00    +0.000 A 
ATOM      3  N   UNL     1      45.833   3.343  13.188  0.00  0.00    +0.000 NA
ATOM      4  C   UNL     1      46.421   4.547  13.396  0.00  0.00    +0.000 A 
ATOM      5  C   UNL     1      46.237   5.677  12.586  0.00  0.00    +0.000 A 
ATOM      6  N   UNL     1      45.419   5.581  11.514  0.00  0.00    +0.000 NA
ENDROOT
BRANCH   5   7
ATOM      7  N   UNL     1      46.859   6.876  12.874  0.00  0.00    +0.000 N 
ATOM      8  C   UNL     1      46.065   8.093  13.062  0.00  0.00    +0.000 C 
ATOM      9  C   UNL     1      46.499   9.224  12.104  0.00  0.00    +0.000 C 
ATOM     10  N   UNL     1      47.959   9.467  12.085  0.00  0.00    +0.000 NA
ATOM     11  C   UNL     1      48.630   8.200  11.734  0.00  0.00    +0.000 C 
ATOM     12  C   UNL     1      48.307   7.039  12.705  0.00  0.00    +0.000 C 
ATOM     13  H   UNL     1      48.248   9.730  13.027  0.00  0.00    +0.000 HD
ENDBRANCH   5   7
BRANCH   1  14
ATOM     14  C   UNL     1      44.030   4.194   9.989  0.00  0.00    +0.000 C 
BRANCH  14  15
ATOM     15  N   UNL     1      44.813   4.432   8.782  0.00  0.00    +0.000 N 
ATOM     16  H   UNL     1      44.364   5.006   8.074  0.00  0.00    +0.000 HD
BRANCH  15  21
ATOM     17  C   UNL     1      47.350   2.626   6.725  0.00  0.00    +0.000 A 
ATOM     18  C   UNL     1      47.142   1.352   7.222  0.00  0.00    +0.000 A 
ATOM     19  N   UNL     1      46.242   1.071   8.183  0.00  0.00    +0.000 NA
ATOM     20  C   UNL     1      45.525   2.119   8.662  0.00  0.00    +0.000 A 
ATOM     21  C   UNL     1      45.664   3.454   8.267  0.00  0.00    +0.000 A 
ATOM     22  C   UNL     1      46.593   3.679   7.248  0.00  0.00    +0.000 A 
ENDBRANCH  15  21
ENDBRANCH  14  15
ENDBRANCH   1  14
TORSDOF 4
ENDMDL
MODEL 4
REMARK VINA RESULT:    -6.824      1.454      2.147
REMARK INTER + INTRA:          -8.931
REMARK INTER:                  -8.428
REMARK INTRA:                  -0.503
REMARK UNBOUND:                -0.510
REMARK  Name = 
REMARK  4 active torsions:
REMARK  status: ('A' for Active; 'I' for Inactive)
REMARK    1  A    between atoms: C_5  and  N_6
REMARK    2  A    between atoms: N_6  and  C_7
REMARK    3  A    between atoms: C_7  and  C_8
REMARK    4  A    between atoms: C_12  and  N_13
REMARK                            x       y       z     vdW  Elec       q    Type
REMARK                         _______ _______ _______ _____ _____    ______ ____
ROOT
ATOM      1  C   UNL     1      44.630   4.197  11.134  0.00  0.00    +0.000 A 
ATOM      2  C   UNL     1      43.371   4.716  10.856  0.00  0.00    +0.000 A 
ATOM      3  N   UNL     1      43.036   5.992  11.126  0.00  0.00    +0.000 NA
ATOM      4  C   UNL     1      44.023   6.731  11.687  0.00  0.00    +0.000 A 
ATOM      5  C   UNL     1      45.314   6.260  11.967  0.00  0.00    +0.000 A 
ATOM      6  N   UNL     1      45.616   4.977  11.665  0.00  0.00    +0.000 NA
ENDROOT
BRANCH   5   7
ATOM      7  N   UNL     1      46.274   7.082  12.525  0.00  0.00    +0.000 N 
ATOM      8  C   UNL     1      45.931   8.447  12.934  0.00  0.00    +0.000 C 
ATOM      9  C   UNL     1      46.832   9.501  12.253  0.00  0.00    +0.000 C 
ATOM     10  N   UNL     1      48.278   9.202  12.343  0.00  0.00    +0.000 NA
ATOM     11  C   UNL     1      48.507   7.865  11.761  0.00  0.00    +0.000 C 
ATOM     12  C   UNL     1      47.699   6.742  12.452  0.00  0.00    +0.000 C 
ATOM     13  H   UNL     1      48.533   9.167  13.330  0.00  0.00    +0.000 HD
ENDBRANCH   5   7
BRANCH   1  14
ATOM     14  C   UNL     1      44.896   2.721  10.912  0.00  0.00    +0.000 C 
BRANCH  14  15
ATOM     15  N   UNL     1      44.530   2.279   9.571  0.00  0.00    +0.000 N 
ATOM     16  H   UNL     1      43.917   1.470   9.529  0.00  0.00    +0.000 HD
BRANCH  15  21
ATOM     17  C   UNL     1      47.246   1.553   7.116  0.00  0.00    +0.000 A 
ATOM     18  C   UNL     1      47.286   2.786   6.490  0.00  0.00    +0.000 A 
ATOM     19  N   UNL     1      46.475   3.809   6.820  0.00  0.00    +0.000 NA
ATOM     20  C   UNL     1      45.588   3.577   7.821  0.00  0.00    +0.000 A 
ATOM     21  C   UNL     1      45.428   2.369   8.508  0.00  0.00    +0.000 A 
ATOM     22  C   UNL     1      46.316   1.354   8.141  0.00  0.00    +0.000 A 
ENDBRANCH  15  21
ENDBRANCH  14  15
ENDBRANCH   1  14
TORSDOF 4
ENDMDL
MODEL 5
REMARK VINA RESULT:    -6.694      3.146      4.222
REMARK INTER + INTRA:          -8.770
REMARK INTER:                  -8.364
REMARK INTRA:                  -0.406
REMARK UNBOUND:                -0.510
REMARK  Name = 
REMARK  4 active torsions:
REMARK  status: ('A' for Active; 'I' for Inactive)
REMARK    1  A    between atoms: C_5  and  N_6
REMARK    2  A    between atoms: N_6  and  C_7
REMARK    3  A    between atoms: C_7  and  C_8
REMARK    4  A    between atoms: C_12  and  N_13
REMARK                            x       y       z     vdW  Elec       q    Type
REMARK                         _______ _______ _______ _____ _____    ______ ____
ROOT
ATOM      1  C   UNL     1      45.641   4.411  12.785  0.00  0.00    +0.000 A 
ATOM      2  C   UNL     1      45.893   5.663  12.236  0.00  0.00    +0.000 A 
ATOM      3  N   UNL     1      46.742   6.544  12.799  0.00  0.00    +0.000 NA
ATOM      4  C   UNL     1      47.333   6.114  13.940  0.00  0.00    +0.000 A 
ATOM      5  C   UNL     1      47.127   4.854  14.521  0.00  0.00    +0.000 A 
ATOM      6  N   UNL     1      46.280   3.991  13.916  0.00  0.00    +0.000 NA
ENDROOT
BRANCH   5   7
ATOM      7  N   UNL     1      47.781   4.481  15.679  0.00  0.00    +0.000 N 
ATOM      8  C   UNL     1      47.793   3.078  16.101  0.00  0.00    +0.000 C 
ATOM      9  C   UNL     1      47.229   2.894  17.527  0.00  0.00    +0.000 C 
ATOM     10  N   UNL     1      47.812   3.818  18.526  0.00  0.00    +0.000 NA
ATOM     11  C   UNL     1      47.598   5.200  18.053  0.00  0.00    +0.000 C 
ATOM     12  C   UNL     1      48.213   5.480  16.661  0.00  0.00    +0.000 C 
ATOM     13  H   UNL     1      48.817   3.647  18.565  0.00  0.00    +0.000 HD
ENDBRANCH   5   7
BRANCH   1  14
ATOM     14  C   UNL     1      44.585   3.520  12.161  0.00  0.00    +0.000 C 
BRANCH  14  15
ATOM     15  N   UNL     1      44.169   3.981  10.841  0.00  0.00    +0.000 N 
ATOM     16  H   UNL     1      43.171   4.136  10.726  0.00  0.00    +0.000 HD
BRANCH  15  21
ATOM     17  C   UNL     1      45.881   1.867   8.286  0.00  0.00    +0.000 A 
ATOM     18  C   UNL     1      46.272   2.873   7.421  0.00  0.00    +0.000 A 
ATOM     19  N   UNL     1      45.994   4.175   7.628  0.00  0.00    +0.000 NA
ATOM     20  C   UNL     1      45.292   4.470   8.752  0.00  0.00    +0.000 A 
ATOM     21  C   UNL     1      44.814   3.543   9.685  0.00  0.00    +0.000 A 
ATOM     22  C   UNL     1      45.157   2.214   9.431  0.00  0.00    +0.000 A 
ENDBRANCH  15  21
ENDBRANCH  14  15
ENDBRANCH   1  14
TORSDOF 4
ENDMDL
MODEL 6
REMARK VINA RESULT:    -6.675      1.457      6.129
REMARK INTER + INTRA:          -8.746
REMARK INTER:                  -8.143
REMARK INTRA:                  -0.604
REMARK UNBOUND:                -0.510
REMARK  Name = 
REMARK  4 active torsions:
REMARK  status: ('A' for Active; 'I' for Inactive)
REMARK    1  A    between atoms: C_5  and  N_6
REMARK    2  A    between atoms: N_6  and  C_7
REMARK    3  A    between atoms: C_7  and  C_8
REMARK    4  A    between atoms: C_12  and  N_13
REMARK                            x       y       z     vdW  Elec       q    Type
REMARK                         _______ _______ _______ _____ _____    ______ ____
ROOT
ATOM      1  C   UNL     1      44.330   5.151  11.845  0.00  0.00    +0.000 A 
ATOM      2  C   UNL     1      43.881   4.253  12.807  0.00  0.00    +0.000 A 
ATOM      3  N   UNL     1      43.689   2.946  12.548  0.00  0.00    +0.000 NA
ATOM      4  C   UNL     1      43.971   2.573  11.276  0.00  0.00    +0.000 A 
ATOM      5  C   UNL     1      44.445   3.434  10.276  0.00  0.00    +0.000 A 
ATOM      6  N   UNL     1      44.642   4.737  10.582  0.00  0.00    +0.000 NA
ENDROOT
BRANCH   5   7
ATOM      7  N   UNL     1      44.728   2.974   9.005  0.00  0.00    +0.000 N 
ATOM      8  C   UNL     1      45.008   1.553   8.779  0.00  0.00    +0.000 C 
ATOM      9  C   UNL     1      46.377   1.332   8.100  0.00  0.00    +0.000 C 
ATOM     10  N   UNL     1      46.598   2.177   6.905  0.00  0.00    +0.000 NA
ATOM     11  C   UNL     1      46.436   3.588   7.305  0.00  0.00    +0.000 C 
ATOM     12  C   UNL     1      45.050   3.902   7.916  0.00  0.00    +0.000 C 
ATOM     13  H   UNL     1      45.874   1.954   6.222  0.00  0.00    +0.000 HD
ENDBRANCH   5   7
BRANCH   1  14
ATOM     14  C   UNL     1      44.408   6.627  12.178  0.00  0.00    +0.000 C 
BRANCH  14  15
ATOM     15  N   UNL     1      45.371   6.915  13.236  0.00  0.00    +0.000 N 
ATOM     16  H   UNL     1      45.015   7.460  14.016  0.00  0.00    +0.000 HD
BRANCH  15  21
ATOM     17  C   UNL     1      48.543   8.336  11.877  0.00  0.00    +0.000 A 
ATOM     18  C   UNL     1      49.407   7.343  12.303  0.00  0.00    +0.000 A 
ATOM     19  N   UNL     1      49.007   6.267  13.007  0.00  0.00    +0.000 NA
ATOM     20  C   UNL     1      47.682   6.192  13.293  0.00  0.00    +0.000 A 
ATOM     21  C   UNL     1      46.716   7.144  12.948  0.00  0.00    +0.000 A 
ATOM     22  C   UNL     1      47.186   8.223  12.196  0.00  0.00    +0.000 A 
ENDBRANCH  15  21
ENDBRANCH  14  15
ENDBRANCH   1  14
TORSDOF 4
ENDMDL
MODEL 7
REMARK VINA RESULT:    -6.545      2.986      7.188
REMARK INTER + INTRA:          -8.585
REMARK INTER:                  -8.229
REMARK INTRA:                  -0.356
REMARK UNBOUND:                -0.510
REMARK  Name = 
REMARK  4 active torsions:
REMARK  status: ('A' for Active; 'I' for Inactive)
REMARK    1  A    between atoms: C_5  and  N_6
REMARK    2  A    between atoms: N_6  and  C_7
REMARK    3  A    between atoms: C_7  and  C_8
REMARK    4  A    between atoms: C_12  and  N_13
REMARK                            x       y       z     vdW  Elec       q    Type
REMARK                         _______ _______ _______ _____ _____    ______ ____
ROOT
ATOM      1  C   UNL     1      45.373   4.495  12.747  0.00  0.00    +0.000 A 
ATOM      2  C   UNL     1      44.095   4.771  13.219  0.00  0.00    +0.000 A 
ATOM      3  N   UNL     1      42.992   4.615  12.463  0.00  0.00    +0.000 NA
ATOM      4  C   UNL     1      43.225   4.164  11.206  0.00  0.00    +0.000 A 
ATOM      5  C   UNL     1      44.491   3.852  10.690  0.00  0.00    +0.000 A 
ATOM      6  N   UNL     1      45.572   4.006  11.488  0.00  0.00    +0.000 NA
ENDROOT
BRANCH   5   7
ATOM      7  N   UNL     1      44.646   3.380   9.401  0.00  0.00    +0.000 N 
ATOM      8  C   UNL     1      44.752   1.940   9.151  0.00  0.00    +0.000 C 
ATOM      9  C   UNL     1      46.047   1.576   8.391  0.00  0.00    +0.000 C 
ATOM     10  N   UNL     1      46.291   2.407   7.190  0.00  0.00    +0.000 NA
ATOM     11  C   UNL     1      46.310   3.822   7.607  0.00  0.00    +0.000 C 
ATOM     12  C   UNL     1      45.006   4.280   8.302  0.00  0.00    +0.000 C 
ATOM     13  H   UNL     1      45.509   2.274   6.550  0.00  0.00    +0.000 HD
ENDBRANCH   5   7
BRANCH   1  14
ATOM     14  C   UNL     1      46.575   4.807  13.615  0.00  0.00    +0.000 C 
BRANCH  14  15
ATOM     15  N   UNL     1      46.368   4.447  15.013  0.00  0.00    +0.000 N 
ATOM     16  H   UNL     1      45.533   4.832  15.446  0.00  0.00    +0.000 HD
BRANCH  15  21
ATOM     17  C   UNL     1      48.626   3.215  17.718  0.00  0.00    +0.000 A 
ATOM     18  C   UNL     1      49.551   4.243  17.691  0.00  0.00    +0.000 A 
ATOM     19  N   UNL     1      49.475   5.284  16.840  0.00  0.00    +0.000 NA
ATOM     20  C   UNL     1      48.424   5.286  15.981  0.00  0.00    +0.000 A 
ATOM     21  C   UNL     1      47.442   4.292  15.889  0.00  0.00    +0.000 A 
ATOM     22  C   UNL     1      47.559   3.253  16.815  0.00  0.00    +0.000 A 
ENDBRANCH  15  21
ENDBRANCH  14  15
ENDBRANCH   1  14
TORSDOF 4
ENDMDL
MODEL 8
REMARK VINA RESULT:    -6.353      4.531      7.772
REMARK INTER + INTRA:          -8.349
REMARK INTER:                  -7.899
REMARK INTRA:                  -0.450
REMARK UNBOUND:                -0.510
REMARK  Name = 
REMARK  4 active torsions:
REMARK  status: ('A' for Active; 'I' for Inactive)
REMARK    1  A    between atoms: C_5  and  N_6
REMARK    2  A    between atoms: N_6  and  C_7
REMARK    3  A    between atoms: C_7  and  C_8
REMARK    4  A    between atoms: C_12  and  N_13
REMARK                            x       y       z     vdW  Elec       q    Type
REMARK                         _______ _______ _______ _____ _____    ______ ____
ROOT
ATOM      1  C   UNL     1      47.286   4.711  15.325  0.00  0.00    +0.000 A 
ATOM      2  C   UNL     1      48.190   5.734  15.062  0.00  0.00    +0.000 A 
ATOM      3  N   UNL     1      48.226   6.386  13.884  0.00  0.00    +0.000 NA
ATOM      4  C   UNL     1      47.309   5.969  12.977  0.00  0.00    +0.000 A 
ATOM      5  C   UNL     1      46.364   4.958  13.201  0.00  0.00    +0.000 A 
ATOM      6  N   UNL     1      46.350   4.339  14.404  0.00  0.00    +0.000 NA
ENDROOT
BRANCH   5   7
ATOM      7  N   UNL     1      45.449   4.600  12.230  0.00  0.00    +0.000 N 
ATOM      8  C   UNL     1      44.616   5.622  11.590  0.00  0.00    +0.000 C 
ATOM      9  C   UNL     1      43.109   5.315  11.731  0.00  0.00    +0.000 C 
ATOM     10  N   UNL     1      42.741   3.931  11.359  0.00  0.00    +0.000 NA
ATOM     11  C   UNL     1      43.542   3.005  12.184  0.00  0.00    +0.000 C 
ATOM     12  C   UNL     1      45.069   3.199  12.026  0.00  0.00    +0.000 C 
ATOM     13  H   UNL     1      42.995   3.788  10.382  0.00  0.00    +0.000 HD
ENDBRANCH   5   7
BRANCH   1  14
ATOM     14  C   UNL     1      47.383   3.944  16.629  0.00  0.00    +0.000 C 
BRANCH  14  15
ATOM     15  N   UNL     1      48.536   4.340  17.430  0.00  0.00    +0.000 N 
ATOM     16  H   UNL     1      48.744   5.335  17.437  0.00  0.00    +0.000 HD
BRANCH  15  21
ATOM     17  C   UNL     1      52.010   3.096  17.988  0.00  0.00    +0.000 A 
ATOM     18  C   UNL     1      51.848   1.816  17.488  0.00  0.00    +0.000 A 
ATOM     19  N   UNL     1      50.680   1.354  17.003  0.00  0.00    +0.000 NA
ATOM     20  C   UNL     1      49.634   2.219  17.026  0.00  0.00    +0.000 A 
ATOM     21  C   UNL     1      49.662   3.523  17.533  0.00  0.00    +0.000 A 
ATOM     22  C   UNL     1      50.906   3.955  17.995  0.00  0.00    +0.000 A 
ENDBRANCH  15  21
ENDBRANCH  14  15
ENDBRANCH   1  14
TORSDOF 4
ENDMDL
MODEL 9
REMARK VINA RESULT:    -6.249      2.792      7.259
REMARK INTER + INTRA:          -8.220
REMARK INTER:                  -7.710
REMARK INTRA:                  -0.510
REMARK UNBOUND:                -0.510
REMARK  Name = 
REMARK  4 active torsions:
REMARK  status: ('A' for Active; 'I' for Inactive)
REMARK    1  A    between atoms: C_5  and  N_6
REMARK    2  A    between atoms: N_6  and  C_7
REMARK    3  A    between atoms: C_7  and  C_8
REMARK    4  A    between atoms: C_12  and  N_13
REMARK                            x       y       z     vdW  Elec       q    Type
REMARK                         _______ _______ _______ _____ _____    ______ ____
ROOT
ATOM      1  C   UNL     1      46.865   6.704  13.021  0.00  0.00    +0.000 A 
ATOM      2  C   UNL     1      46.424   8.021  12.957  0.00  0.00    +0.000 A 
ATOM      3  N   UNL     1      45.322   8.385  12.273  0.00  0.00    +0.000 NA
ATOM      4  C   UNL     1      44.676   7.366  11.656  0.00  0.00    +0.000 A 
ATOM      5  C   UNL     1      45.069   6.021  11.708  0.00  0.00    +0.000 A 
ATOM      6  N   UNL     1      46.171   5.694  12.420  0.00  0.00    +0.000 NA
ENDROOT
BRANCH   5   7
ATOM      7  N   UNL     1      44.346   5.035  11.065  0.00  0.00    +0.000 N 
ATOM      8  C   UNL     1      43.219   4.387  11.741  0.00  0.00    +0.000 C 
ATOM      9  C   UNL     1      43.385   2.852  11.805  0.00  0.00    +0.000 C 
ATOM     10  N   UNL     1      43.734   2.232  10.507  0.00  0.00    +0.000 NA
ATOM     11  C   UNL     1      44.969   2.870  10.011  0.00  0.00    +0.000 C 
ATOM     12  C   UNL     1      44.847   4.403   9.841  0.00  0.00    +0.000 C 
ATOM     13  H   UNL     1      42.983   2.435   9.847  0.00  0.00    +0.000 HD
ENDBRANCH   5   7
BRANCH   1  14
ATOM     14  C   UNL     1      48.178   6.389  13.710  0.00  0.00    +0.000 C 
BRANCH  14  15
ATOM     15  N   UNL     1      48.106   6.549  15.158  0.00  0.00    +0.000 N 
ATOM     16  H   UNL     1      48.582   7.365  15.533  0.00  0.00    +0.000 HD
BRANCH  15  21
ATOM     17  C   UNL     1      49.053   4.056  17.769  0.00  0.00    +0.000 A 
ATOM     18  C   UNL     1      48.097   3.097  17.487  0.00  0.00    +0.000 A 
ATOM     19  N   UNL     1      47.176   3.235  16.516  0.00  0.00    +0.000 NA
ATOM     20  C   UNL     1      47.220   4.389  15.802  0.00  0.00    +0.000 A 
ATOM     21  C   UNL     1      48.114   5.445  16.010  0.00  0.00    +0.000 A 
ATOM     22  C   UNL     1      49.063   5.232  17.012  0.00  0.00    +0.000 A 
ENDBRANCH  15  21
ENDBRANCH  14  15
ENDBRANCH   1  14
TORSDOF 4
ENDMDL
