MODEL 1
REMARK VINA RESULT:    -7.973      0.000      0.000
REMARK INTER + INTRA:         -11.350
REMARK INTER:                 -10.303
REMARK INTRA:                  -1.047
REMARK UNBOUND:                -1.047
REMARK  Name = 
REMARK  6 active torsions:
REMARK  status: ('A' for Active; 'I' for Inactive)
REMARK    1  A    between atoms: C_1  and  N_2
REMARK    2  A    between atoms: N_2  and  C_3
REMARK    3  A    between atoms: C_3  and  C_4
REMARK    4  A    between atoms: C_7  and  C_8
REMARK    5  A    between atoms: C_8  and  C_9
REMARK    6  A    between atoms: C_20  and  C_22
REMARK                            x       y       z     vdW  Elec       q    Type
REMARK                         _______ _______ _______ _____ _____    ______ ____
ROOT
ATOM      1  C   UNL     1      47.507   5.835  13.906  0.00  0.00    +0.000 A 
ATOM      2  C   UNL     1      48.359   6.708  14.601  0.00  0.00    +0.000 A 
ATOM      3  C   UNL     1      48.737   6.430  15.913  0.00  0.00    +0.000 A 
ATOM      4  C   UNL     1      48.259   5.282  16.555  0.00  0.00    +0.000 A 
ATOM      5  C   UNL     1      47.380   4.431  15.869  0.00  0.00    +0.000 A 
ATOM      6  C   UNL     1      47.004   4.703  14.554  0.00  0.00    +0.000 A 
ENDROOT
BRANCH   1   7
ATOM      7  C   UNL     1      47.167   6.099  12.464  0.00  0.00    +0.000 C 
BRANCH   7   9
ATOM      8  C   UNL     1      46.292   8.480  12.274  0.00  0.00    +0.000 C 
ATOM      9  N   UNL     1      46.072   7.039  12.191  0.00  0.00    +0.000 N 
ATOM     10  C   UNL     1      44.826   6.648  11.668  0.00  0.00    +0.000 C 
ATOM     11  O   UNL     1      43.991   7.487  11.332  0.00  0.00    +0.000 OA
BRANCH  10  12
ATOM     12  C   UNL     1      44.497   5.220  11.556  0.00  0.00    +0.000 A 
ATOM     13  C   UNL     1      43.755   4.508  12.485  0.00  0.00    +0.000 A 
ATOM     14  S   UNL     1      43.480   2.883  12.043  0.00  0.00    +0.000 S 
ATOM     15  C   UNL     1      44.206   3.121  10.525  0.00  0.00    +0.000 A 
ATOM     16  N   UNL     1      44.200   2.137   9.587  0.00  0.00    +0.000 NA
ATOM     17  C   UNL     1      44.714   2.486   8.455  0.00  0.00    +0.000 A 
ATOM     18  N   UNL     1      45.270   3.710   8.191  0.00  0.00    +0.000 N 
ATOM     19  C   UNL     1      45.423   4.688   9.153  0.00  0.00    +0.000 A 
ATOM     20  O   UNL     1      46.140   5.663   8.951  0.00  0.00    +0.000 OA
ATOM     21  C   UNL     1      44.742   4.389  10.401  0.00  0.00    +0.000 A 
ATOM     22  H   UNL     1      45.717   3.894   7.305  0.00  0.00    +0.000 HD
ENDBRANCH  10  12
ENDBRANCH   7   9
ENDBRANCH   1   7
BRANCH   4  23
ATOM     23  C   UNL     1      48.764   4.925  17.931  0.00  0.00    +0.000 C 
BRANCH  23  24
ATOM     24  C   UNL     1      50.198   5.333  18.239  0.00  0.00    +0.000 C 
ATOM     25  O   UNL     1      50.502   6.461  18.627  0.00  0.00    +0.000 OA
ATOM     26  N   UNL     1      51.153   4.332  18.110  0.00  0.00    +0.000 N 
ATOM     27  C   UNL     1      52.522   4.593  18.545  0.00  0.00    +0.000 C 
ATOM     28  C   UNL     1      53.013   3.399  19.360  0.00  0.00    +0.000 C 
ATOM     29  N   UNL     1      52.885   2.157  18.622  0.00  0.00    +0.000 N 
ATOM     30  C   UNL     1      51.828   1.901  17.787  0.00  0.00    +0.000 C 
ATOM     31  O   UNL     1      51.646   0.768  17.352  0.00  0.00    +0.000 OA
ATOM     32  C   UNL     1      50.966   3.096  17.338  0.00  0.00    +0.000 C 
ATOM     33  H   UNL     1      53.383   1.331  18.933  0.00  0.00    +0.000 HD
ENDBRANCH  23  24
ENDBRANCH   4  23
TORSDOF 5
ENDMDL
MODEL 2
REMARK VINA RESULT:    -7.532      1.637      2.799
REMARK INTER + INTRA:         -10.780
REMARK INTER:                  -9.492
REMARK INTRA:                  -1.288
REMARK UNBOUND:                -1.047
REMARK  Name = 
REMARK  6 active torsions:
REMARK  status: ('A' for Active; 'I' for Inactive)
REMARK    1  A    between atoms: C_1  and  N_2
REMARK    2  A    between atoms: N_2  and  C_3
REMARK    3  A    between atoms: C_3  and  C_4
REMARK    4  A    between atoms: C_7  and  C_8
REMARK    5  A    between atoms: C_8  and  C_9
REMARK    6  A    between atoms: C_20  and  C_22
REMARK                            x       y       z     vdW  Elec       q    Type
REMARK                         _______ _______ _______ _____ _____    ______ ____
ROOT
ATOM      1  C   UNL     1      47.464   5.800  13.583  0.00  0.00    +0.000 A 
ATOM      2  C   UNL     1      48.093   6.290  14.739  0.00  0.00    +0.000 A 
ATOM      3  C   UNL     1      48.246   5.475  15.858  0.00  0.00    +0.000 A 
ATOM      4  C   UNL     1      47.761   4.161  15.845  0.00  0.00    +0.000 A 
ATOM      5  C   UNL     1      47.102   3.687  14.701  0.00  0.00    +0.000 A 
ATOM      6  C   UNL     1      46.952   4.499  13.577  0.00  0.00    +0.000 A 
ENDROOT
BRANCH   1   7
ATOM      7  C   UNL     1      47.373   6.658  12.350  0.00  0.00    +0.000 C 
BRANCH   7   9
ATOM      8  C   UNL     1      46.319   8.906  12.904  0.00  0.00    +0.000 C 
ATOM      9  N   UNL     1      46.246   7.596  12.264  0.00  0.00    +0.000 N 
ATOM     10  C   UNL     1      45.127   7.390  11.437  0.00  0.00    +0.000 C 
ATOM     11  O   UNL     1      44.274   8.267  11.299  0.00  0.00    +0.000 OA
BRANCH  10  12
ATOM     12  C   UNL     1      44.948   6.099  10.758  0.00  0.00    +0.000 A 
ATOM     13  C   UNL     1      45.534   5.757   9.550  0.00  0.00    +0.000 A 
ATOM     14  S   UNL     1      45.195   4.161   9.051  0.00  0.00    +0.000 S 
ATOM     15  C   UNL     1      44.386   3.824  10.507  0.00  0.00    +0.000 A 
ATOM     16  N   UNL     1      43.938   2.571  10.781  0.00  0.00    +0.000 NA
ATOM     17  C   UNL     1      43.416   2.444  11.956  0.00  0.00    +0.000 A 
ATOM     18  N   UNL     1      43.264   3.463  12.860  0.00  0.00    +0.000 N 
ATOM     19  C   UNL     1      43.576   4.775  12.569  0.00  0.00    +0.000 A 
ATOM     20  O   UNL     1      43.200   5.688  13.299  0.00  0.00    +0.000 OA
ATOM     21  C   UNL     1      44.285   4.942  11.313  0.00  0.00    +0.000 A 
ATOM     22  H   UNL     1      42.784   3.310  13.735  0.00  0.00    +0.000 HD
ENDBRANCH  10  12
ENDBRANCH   7   9
ENDBRANCH   1   7
BRANCH   4  23
ATOM     23  C   UNL     1      48.034   3.248  17.014  0.00  0.00    +0.000 C 
BRANCH  23  24
ATOM     24  C   UNL     1      49.443   2.678  17.097  0.00  0.00    +0.000 C 
ATOM     25  O   UNL     1      49.800   1.686  16.460  0.00  0.00    +0.000 OA
ATOM     26  N   UNL     1      50.334   3.379  17.899  0.00  0.00    +0.000 N 
ATOM     27  C   UNL     1      51.744   2.998  17.902  0.00  0.00    +0.000 C 
ATOM     28  C   UNL     1      52.594   4.261  17.796  0.00  0.00    +0.000 C 
ATOM     29  N   UNL     1      52.268   5.216  18.837  0.00  0.00    +0.000 N 
ATOM     30  C   UNL     1      50.987   5.409  19.288  0.00  0.00    +0.000 C 
ATOM     31  O   UNL     1      50.724   6.366  20.009  0.00  0.00    +0.000 OA
ATOM     32  C   UNL     1      49.941   4.330  18.948  0.00  0.00    +0.000 C 
ATOM     33  H   UNL     1      52.902   5.980  19.037  0.00  0.00    +0.000 HD
ENDBRANCH  23  24
ENDBRANCH   4  23
TORSDOF 5
ENDMDL
MODEL 3
REMARK VINA RESULT:    -7.201      3.113      7.884
REMARK INTER + INTRA:         -10.353
REMARK INTER:                  -8.875
REMARK INTRA:                  -1.478
REMARK UNBOUND:                -1.047
REMARK  Name = 
REMARK  6 active torsions:
REMARK  status: ('A' for Active; 'I' for Inactive)
REMARK    1  A    between atoms: C_1  and  N_2
REMARK    2  A    between atoms: N_2  and  C_3
REMARK    3  A    between atoms: C_3  and  C_4
REMARK    4  A    between atoms: C_7  and  C_8
REMARK    5  A    between atoms: C_8  and  C_9
REMARK    6  A    between atoms: C_20  and  C_22
REMARK                            x       y       z     vdW  Elec       q    Type
REMARK                         _______ _______ _______ _____ _____    ______ ____
ROOT
ATOM      1  C   UNL     1      49.264   8.286  16.309  0.00  0.00    +0.000 A 
ATOM      2  C   UNL     1      48.239   9.091  15.786  0.00  0.00    +0.000 A 
ATOM      3  C   UNL     1      47.803   8.915  14.475  0.00  0.00    +0.000 A 
ATOM      4  C   UNL     1      48.393   7.940  13.661  0.00  0.00    +0.000 A 
ATOM      5  C   UNL     1      49.440   7.162  14.176  0.00  0.00    +0.000 A 
ATOM      6  C   UNL     1      49.876   7.331  15.490  0.00  0.00    +0.000 A 
ENDROOT
BRANCH   1   7
ATOM      7  C   UNL     1      49.676   8.426  17.750  0.00  0.00    +0.000 C 
BRANCH   7   9
ATOM      8  C   UNL     1      47.681   8.814  19.280  0.00  0.00    +0.000 C 
ATOM      9  N   UNL     1      48.736   7.943  18.769  0.00  0.00    +0.000 N 
ATOM     10  C   UNL     1      48.662   6.600  19.183  0.00  0.00    +0.000 C 
ATOM     11  O   UNL     1      47.770   6.222  19.941  0.00  0.00    +0.000 OA
BRANCH  10  12
ATOM     12  C   UNL     1      49.685   5.643  18.740  0.00  0.00    +0.000 A 
ATOM     13  C   UNL     1      50.991   5.616  19.200  0.00  0.00    +0.000 A 
ATOM     14  S   UNL     1      51.922   4.342  18.550  0.00  0.00    +0.000 S 
ATOM     15  C   UNL     1      50.568   3.692  17.755  0.00  0.00    +0.000 A 
ATOM     16  N   UNL     1      50.650   2.508  17.094  0.00  0.00    +0.000 NA
ATOM     17  C   UNL     1      49.526   2.097  16.608  0.00  0.00    +0.000 A 
ATOM     18  N   UNL     1      48.342   2.782  16.686  0.00  0.00    +0.000 N 
ATOM     19  C   UNL     1      48.243   4.049  17.224  0.00  0.00    +0.000 A 
ATOM     20  O   UNL     1      47.234   4.727  17.055  0.00  0.00    +0.000 OA
ATOM     21  C   UNL     1      49.451   4.493  17.898  0.00  0.00    +0.000 A 
ATOM     22  H   UNL     1      47.514   2.436  16.224  0.00  0.00    +0.000 HD
ENDBRANCH  10  12
ENDBRANCH   7   9
ENDBRANCH   1   7
BRANCH   4  23
ATOM     23  C   UNL     1      47.838   7.675  12.284  0.00  0.00    +0.000 C 
BRANCH  23  24
ATOM     24  C   UNL     1      46.350   7.358  12.217  0.00  0.00    +0.000 C 
ATOM     25  O   UNL     1      45.522   8.140  11.749  0.00  0.00    +0.000 OA
ATOM     26  N   UNL     1      45.979   6.098  12.666  0.00  0.00    +0.000 N 
ATOM     27  C   UNL     1      44.600   5.652  12.482  0.00  0.00    +0.000 C 
ATOM     28  C   UNL     1      44.614   4.222  11.949  0.00  0.00    +0.000 C 
ATOM     29  N   UNL     1      45.380   3.338  12.806  0.00  0.00    +0.000 N 
ATOM     30  C   UNL     1      46.529   3.737  13.440  0.00  0.00    +0.000 C 
ATOM     31  O   UNL     1      47.257   2.909  13.977  0.00  0.00    +0.000 OA
ATOM     32  C   UNL     1      46.798   5.251  13.544  0.00  0.00    +0.000 C 
ATOM     33  H   UNL     1      45.280   2.334  12.714  0.00  0.00    +0.000 HD
ENDBRANCH  23  24
ENDBRANCH   4  23
TORSDOF 5
ENDMDL
MODEL 4
REMARK VINA RESULT:    -6.920      3.233      8.079
REMARK INTER + INTRA:          -9.990
REMARK INTER:                  -8.279
REMARK INTRA:                  -1.711
REMARK UNBOUND:                -1.047
REMARK  Name = 
REMARK  6 active torsions:
REMARK  status: ('A' for Active; 'I' for Inactive)
REMARK    1  A    between atoms: C_1  and  N_2
REMARK    2  A    between atoms: N_2  and  C_3
REMARK    3  A    between atoms: C_3  and  C_4
REMARK    4  A    between atoms: C_7  and  C_8
REMARK    5  A    between atoms: C_8  and  C_9
REMARK    6  A    between atoms: C_20  and  C_22
REMARK                            x       y       z     vdW  Elec       q    Type
REMARK                         _______ _______ _______ _____ _____    ______ ____
ROOT
ATOM      1  C   UNL     1      49.653   8.793  16.076  0.00  0.00    +0.000 A 
ATOM      2  C   UNL     1      48.433   9.342  15.651  0.00  0.00    +0.000 A 
ATOM      3  C   UNL     1      47.906   9.011  14.405  0.00  0.00    +0.000 A 
ATOM      4  C   UNL     1      48.597   8.136  13.557  0.00  0.00    +0.000 A 
ATOM      5  C   UNL     1      49.833   7.617  13.971  0.00  0.00    +0.000 A 
ATOM      6  C   UNL     1      50.361   7.942  15.220  0.00  0.00    +0.000 A 
ENDROOT
BRANCH   1   7
ATOM      7  C   UNL     1      50.178   9.090  17.455  0.00  0.00    +0.000 C 
BRANCH   7   9
ATOM      8  C   UNL     1      52.681   8.674  17.640  0.00  0.00    +0.000 C 
ATOM      9  N   UNL     1      51.306   8.282  17.935  0.00  0.00    +0.000 N 
ATOM     10  C   UNL     1      51.165   7.212  18.839  0.00  0.00    +0.000 C 
ATOM     11  O   UNL     1      52.152   6.652  19.313  0.00  0.00    +0.000 OA
BRANCH  10  12
ATOM     12  C   UNL     1      49.823   6.727  19.192  0.00  0.00    +0.000 A 
ATOM     13  C   UNL     1      49.035   7.256  20.201  0.00  0.00    +0.000 A 
ATOM     14  S   UNL     1      47.497   6.527  20.324  0.00  0.00    +0.000 S 
ATOM     15  C   UNL     1      47.775   5.589  18.934  0.00  0.00    +0.000 A 
ATOM     16  N   UNL     1      46.792   4.810  18.411  0.00  0.00    +0.000 NA
ATOM     17  C   UNL     1      47.119   4.219  17.310  0.00  0.00    +0.000 A 
ATOM     18  N   UNL     1      48.349   4.303  16.712  0.00  0.00    +0.000 N 
ATOM     19  C   UNL     1      49.416   4.967  17.281  0.00  0.00    +0.000 A 
ATOM     20  O   UNL     1      50.555   4.814  16.849  0.00  0.00    +0.000 OA
ATOM     21  C   UNL     1      49.058   5.754  18.448  0.00  0.00    +0.000 A 
ATOM     22  H   UNL     1      48.560   3.758  15.888  0.00  0.00    +0.000 HD
ENDBRANCH  10  12
ENDBRANCH   7   9
ENDBRANCH   1   7
BRANCH   4  23
ATOM     23  C   UNL     1      47.966   7.691  12.262  0.00  0.00    +0.000 C 
BRANCH  23  24
ATOM     24  C   UNL     1      46.468   7.424  12.310  0.00  0.00    +0.000 C 
ATOM     25  O   UNL     1      45.634   8.226  11.890  0.00  0.00    +0.000 OA
ATOM     26  N   UNL     1      46.090   6.183  12.807  0.00  0.00    +0.000 N 
ATOM     27  C   UNL     1      44.688   5.782  12.733  0.00  0.00    +0.000 C 
ATOM     28  C   UNL     1      44.615   4.344  12.227  0.00  0.00    +0.000 C 
ATOM     29  N   UNL     1      45.413   3.448  13.041  0.00  0.00    +0.000 N 
ATOM     30  C   UNL     1      46.618   3.818  13.582  0.00  0.00    +0.000 C 
ATOM     31  O   UNL     1      47.356   2.974  14.079  0.00  0.00    +0.000 OA
ATOM     32  C   UNL     1      46.943   5.323  13.638  0.00  0.00    +0.000 C 
ATOM     33  H   UNL     1      45.273   2.447  12.974  0.00  0.00    +0.000 HD
ENDBRANCH  23  24
ENDBRANCH   4  23
TORSDOF 5
ENDMDL
MODEL 5
REMARK VINA RESULT:    -6.888      3.429      8.755
REMARK INTER + INTRA:          -9.948
REMARK INTER:                  -8.744
REMARK INTRA:                  -1.205
REMARK UNBOUND:                -1.047
REMARK  Name = 
REMARK  6 active torsions:
REMARK  status: ('A' for Active; 'I' for Inactive)
REMARK    1  A    between atoms: C_1  and  N_2
REMARK    2  A    between atoms: N_2  and  C_3
REMARK    3  A    between atoms: C_3  and  C_4
REMARK    4  A    between atoms: C_7  and  C_8
REMARK    5  A    between atoms: C_8  and  C_9
REMARK    6  A    between atoms: C_20  and  C_22
REMARK                            x       y       z     vdW  Elec       q    Type
REMARK                         _______ _______ _______ _____ _____    ______ ____
ROOT
ATOM      1  C   UNL     1      47.242   8.358  13.593  0.00  0.00    +0.000 A 
ATOM      2  C   UNL     1      47.139   6.958  13.616  0.00  0.00    +0.000 A 
ATOM      3  C   UNL     1      46.100   6.316  12.946  0.00  0.00    +0.000 A 
ATOM      4  C   UNL     1      45.140   7.063  12.253  0.00  0.00    +0.000 A 
ATOM      5  C   UNL     1      45.227   8.463  12.262  0.00  0.00    +0.000 A 
ATOM      6  C   UNL     1      46.268   9.109  12.927  0.00  0.00    +0.000 A 
ENDROOT
BRANCH   1   7
ATOM      7  C   UNL     1      48.410   9.041  14.251  0.00  0.00    +0.000 C 
BRANCH   7   9
ATOM      8  C   UNL     1      50.436   8.146  12.999  0.00  0.00    +0.000 C 
ATOM      9  N   UNL     1      49.696   8.333  14.244  0.00  0.00    +0.000 N 
ATOM     10  C   UNL     1      50.381   7.956  15.414  0.00  0.00    +0.000 C 
ATOM     11  O   UNL     1      51.516   7.484  15.357  0.00  0.00    +0.000 OA
BRANCH  10  12
ATOM     12  C   UNL     1      49.721   8.088  16.720  0.00  0.00    +0.000 A 
ATOM     13  C   UNL     1      49.714   9.242  17.487  0.00  0.00    +0.000 A 
ATOM     14  S   UNL     1      48.804   9.107  18.923  0.00  0.00    +0.000 S 
ATOM     15  C   UNL     1      48.260   7.556  18.492  0.00  0.00    +0.000 A 
ATOM     16  N   UNL     1      47.338   6.905  19.248  0.00  0.00    +0.000 NA
ATOM     17  C   UNL     1      46.957   5.772  18.757  0.00  0.00    +0.000 A 
ATOM     18  N   UNL     1      47.447   5.216  17.604  0.00  0.00    +0.000 N 
ATOM     19  C   UNL     1      48.481   5.774  16.882  0.00  0.00    +0.000 A 
ATOM     20  O   UNL     1      49.056   5.133  16.008  0.00  0.00    +0.000 OA
ATOM     21  C   UNL     1      48.847   7.108  17.323  0.00  0.00    +0.000 A 
ATOM     22  H   UNL     1      47.156   4.294  17.313  0.00  0.00    +0.000 HD
ENDBRANCH  10  12
ENDBRANCH   7   9
ENDBRANCH   1   7
BRANCH   4  23
ATOM     23  C   UNL     1      44.088   6.359  11.433  0.00  0.00    +0.000 C 
BRANCH  23  24
ATOM     24  C   UNL     1      44.076   4.840  11.530  0.00  0.00    +0.000 C 
ATOM     25  O   UNL     1      43.494   4.234  12.431  0.00  0.00    +0.000 OA
ATOM     26  N   UNL     1      44.718   4.162  10.502  0.00  0.00    +0.000 N 
ATOM     27  C   UNL     1      44.611   2.707  10.431  0.00  0.00    +0.000 C 
ATOM     28  C   UNL     1      44.309   2.309   8.988  0.00  0.00    +0.000 C 
ATOM     29  N   UNL     1      45.292   2.846   8.067  0.00  0.00    +0.000 N 
ATOM     30  C   UNL     1      45.852   4.087   8.226  0.00  0.00    +0.000 C 
ATOM     31  O   UNL     1      46.510   4.587   7.320  0.00  0.00    +0.000 OA
ATOM     32  C   UNL     1      45.716   4.761   9.605  0.00  0.00    +0.000 C 
ATOM     33  H   UNL     1      45.358   2.473   7.127  0.00  0.00    +0.000 HD
ENDBRANCH  23  24
ENDBRANCH   4  23
TORSDOF 5
ENDMDL
MODEL 6
REMARK VINA RESULT:    -6.569      3.043      8.526
REMARK INTER + INTRA:          -9.536
REMARK INTER:                  -7.606
REMARK INTRA:                  -1.929
REMARK UNBOUND:                -1.047
REMARK  Name = 
REMARK  6 active torsions:
REMARK  status: ('A' for Active; 'I' for Inactive)
REMARK    1  A    between atoms: C_1  and  N_2
REMARK    2  A    between atoms: N_2  and  C_3
REMARK    3  A    between atoms: C_3  and  C_4
REMARK    4  A    between atoms: C_7  and  C_8
REMARK    5  A    between atoms: C_8  and  C_9
REMARK    6  A    between atoms: C_20  and  C_22
REMARK                            x       y       z     vdW  Elec       q    Type
REMARK                         _______ _______ _______ _____ _____    ______ ____
ROOT
ATOM      1  C   UNL     1      48.721   4.288  18.442  0.00  0.00    +0.000 A 
ATOM      2  C   UNL     1      49.318   3.375  17.559  0.00  0.00    +0.000 A 
ATOM      3  C   UNL     1      48.751   3.126  16.311  0.00  0.00    +0.000 A 
ATOM      4  C   UNL     1      47.571   3.777  15.930  0.00  0.00    +0.000 A 
ATOM      5  C   UNL     1      46.958   4.663  16.830  0.00  0.00    +0.000 A 
ATOM      6  C   UNL     1      47.526   4.918  18.078  0.00  0.00    +0.000 A 
ENDROOT
BRANCH   1   7
ATOM      7  C   UNL     1      49.380   4.612  19.756  0.00  0.00    +0.000 C 
BRANCH   7   9
ATOM      8  C   UNL     1      51.899   4.386  20.029  0.00  0.00    +0.000 C 
ATOM      9  N   UNL     1      50.727   5.195  19.707  0.00  0.00    +0.000 N 
ATOM     10  C   UNL     1      51.001   6.475  19.189  0.00  0.00    +0.000 C 
ATOM     11  O   UNL     1      52.160   6.863  19.048  0.00  0.00    +0.000 OA
BRANCH  10  12
ATOM     12  C   UNL     1      49.892   7.377  18.848  0.00  0.00    +0.000 A 
ATOM     13  C   UNL     1      49.208   8.164  19.760  0.00  0.00    +0.000 A 
ATOM     14  S   UNL     1      48.018   9.159  19.051  0.00  0.00    +0.000 S 
ATOM     15  C   UNL     1      48.484   8.687  17.486  0.00  0.00    +0.000 A 
ATOM     16  N   UNL     1      47.930   9.266  16.389  0.00  0.00    +0.000 NA
ATOM     17  C   UNL     1      48.437   8.868  15.270  0.00  0.00    +0.000 A 
ATOM     18  N   UNL     1      49.415   7.915  15.149  0.00  0.00    +0.000 N 
ATOM     19  C   UNL     1      49.905   7.203  16.224  0.00  0.00    +0.000 A 
ATOM     20  O   UNL     1      50.588   6.197  16.054  0.00  0.00    +0.000 OA
ATOM     21  C   UNL     1      49.459   7.708  17.510  0.00  0.00    +0.000 A 
ATOM     22  H   UNL     1      49.719   7.600  14.239  0.00  0.00    +0.000 HD
ENDBRANCH  10  12
ENDBRANCH   7   9
ENDBRANCH   1   7
BRANCH   4  23
ATOM     23  C   UNL     1      47.028   3.594  14.536  0.00  0.00    +0.000 C 
BRANCH  23  24
ATOM     24  C   UNL     1      47.042   4.832  13.649  0.00  0.00    +0.000 C 
ATOM     25  O   UNL     1      47.951   5.661  13.676  0.00  0.00    +0.000 OA
ATOM     26  N   UNL     1      45.985   4.948  12.756  0.00  0.00    +0.000 N 
ATOM     27  C   UNL     1      46.008   6.015  11.758  0.00  0.00    +0.000 C 
ATOM     28  C   UNL     1      45.613   5.429  10.405  0.00  0.00    +0.000 C 
ATOM     29  N   UNL     1      44.335   4.747  10.469  0.00  0.00    +0.000 N 
ATOM     30  C   UNL     1      43.941   4.016  11.560  0.00  0.00    +0.000 C 
ATOM     31  O   UNL     1      42.958   3.286  11.492  0.00  0.00    +0.000 OA
ATOM     32  C   UNL     1      44.706   4.236  12.880  0.00  0.00    +0.000 C 
ATOM     33  H   UNL     1      43.840   4.523   9.614  0.00  0.00    +0.000 HD
ENDBRANCH  23  24
ENDBRANCH   4  23
TORSDOF 5
ENDMDL
MODEL 7
REMARK VINA RESULT:    -6.438      2.478      8.291
REMARK INTER + INTRA:          -9.367
REMARK INTER:                  -8.306
REMARK INTRA:                  -1.061
REMARK UNBOUND:                -1.047
REMARK  Name = 
REMARK  6 active torsions:
REMARK  status: ('A' for Active; 'I' for Inactive)
REMARK    1  A    between atoms: C_1  and  N_2
REMARK    2  A    between atoms: N_2  and  C_3
REMARK    3  A    between atoms: C_3  and  C_4
REMARK    4  A    between atoms: C_7  and  C_8
REMARK    5  A    between atoms: C_8  and  C_9
REMARK    6  A    between atoms: C_20  and  C_22
REMARK                            x       y       z     vdW  Elec       q    Type
REMARK                         _______ _______ _______ _____ _____    ______ ____
ROOT
ATOM      1  C   UNL     1      48.830   7.609  15.636  0.00  0.00    +0.000 A 
ATOM      2  C   UNL     1      47.925   8.625  15.288  0.00  0.00    +0.000 A 
ATOM      3  C   UNL     1      47.341   8.647  14.023  0.00  0.00    +0.000 A 
ATOM      4  C   UNL     1      47.662   7.662  13.081  0.00  0.00    +0.000 A 
ATOM      5  C   UNL     1      48.593   6.669  13.421  0.00  0.00    +0.000 A 
ATOM      6  C   UNL     1      49.176   6.641  14.687  0.00  0.00    +0.000 A 
ENDROOT
BRANCH   1   7
ATOM      7  C   UNL     1      49.396   7.545  17.028  0.00  0.00    +0.000 C 
BRANCH   7   9
ATOM      8  C   UNL     1      48.005   8.636  18.857  0.00  0.00    +0.000 C 
ATOM      9  N   UNL     1      48.442   7.442  18.139  0.00  0.00    +0.000 N 
ATOM     10  C   UNL     1      47.757   6.257  18.468  0.00  0.00    +0.000 C 
ATOM     11  O   UNL     1      46.870   6.256  19.321  0.00  0.00    +0.000 OA
BRANCH  10  12
ATOM     12  C   UNL     1      48.130   4.994  17.815  0.00  0.00    +0.000 A 
ATOM     13  C   UNL     1      47.402   4.384  16.807  0.00  0.00    +0.000 A 
ATOM     14  S   UNL     1      48.126   2.963  16.201  0.00  0.00    +0.000 S 
ATOM     15  C   UNL     1      49.512   3.203  17.155  0.00  0.00    +0.000 A 
ATOM     16  N   UNL     1      50.594   2.390  17.030  0.00  0.00    +0.000 NA
ATOM     17  C   UNL     1      51.603   2.740  17.757  0.00  0.00    +0.000 A 
ATOM     18  N   UNL     1      51.611   3.800  18.626  0.00  0.00    +0.000 N 
ATOM     19  C   UNL     1      50.492   4.565  18.887  0.00  0.00    +0.000 A 
ATOM     20  O   UNL     1      50.466   5.335  19.842  0.00  0.00    +0.000 OA
ATOM     21  C   UNL     1      49.378   4.290  17.998  0.00  0.00    +0.000 A 
ATOM     22  H   UNL     1      52.411   3.977  19.217  0.00  0.00    +0.000 HD
ENDBRANCH  10  12
ENDBRANCH   7   9
ENDBRANCH   1   7
BRANCH   4  23
ATOM     23  C   UNL     1      46.939   7.623  11.758  0.00  0.00    +0.000 C 
BRANCH  23  24
ATOM     24  C   UNL     1      45.418   7.610  11.832  0.00  0.00    +0.000 C 
ATOM     25  O   UNL     1      44.732   8.610  11.617  0.00  0.00    +0.000 OA
ATOM     26  N   UNL     1      44.836   6.379  12.103  0.00  0.00    +0.000 N 
ATOM     27  C   UNL     1      43.383   6.245  12.027  0.00  0.00    +0.000 C 
ATOM     28  C   UNL     1      43.049   4.968  11.261  0.00  0.00    +0.000 C 
ATOM     29  N   UNL     1      43.690   3.808  11.847  0.00  0.00    +0.000 N 
ATOM     30  C   UNL     1      44.951   3.853  12.385  0.00  0.00    +0.000 C 
ATOM     31  O   UNL     1      45.536   2.815  12.673  0.00  0.00    +0.000 OA
ATOM     32  C   UNL     1      45.538   5.240  12.710  0.00  0.00    +0.000 C 
ATOM     33  H   UNL     1      43.374   2.877  11.598  0.00  0.00    +0.000 HD
ENDBRANCH  23  24
ENDBRANCH   4  23
TORSDOF 5
ENDMDL
MODEL 8
REMARK VINA RESULT:    -6.373      4.203      5.479
REMARK INTER + INTRA:          -9.283
REMARK INTER:                  -8.317
REMARK INTRA:                  -0.965
REMARK UNBOUND:                -1.047
REMARK  Name = 
REMARK  6 active torsions:
REMARK  status: ('A' for Active; 'I' for Inactive)
REMARK    1  A    between atoms: C_1  and  N_2
REMARK    2  A    between atoms: N_2  and  C_3
REMARK    3  A    between atoms: C_3  and  C_4
REMARK    4  A    between atoms: C_7  and  C_8
REMARK    5  A    between atoms: C_8  and  C_9
REMARK    6  A    between atoms: C_20  and  C_22
REMARK                            x       y       z     vdW  Elec       q    Type
REMARK                         _______ _______ _______ _____ _____    ______ ____
ROOT
ATOM      1  C   UNL     1      47.918   7.194  12.586  0.00  0.00    +0.000 A 
ATOM      2  C   UNL     1      48.553   7.620  11.408  0.00  0.00    +0.000 A 
ATOM      3  C   UNL     1      49.766   8.303  11.467  0.00  0.00    +0.000 A 
ATOM      4  C   UNL     1      50.357   8.582  12.705  0.00  0.00    +0.000 A 
ATOM      5  C   UNL     1      49.703   8.186  13.881  0.00  0.00    +0.000 A 
ATOM      6  C   UNL     1      48.491   7.498  13.825  0.00  0.00    +0.000 A 
ENDROOT
BRANCH   1   7
ATOM      7  C   UNL     1      46.650   6.388  12.513  0.00  0.00    +0.000 C 
BRANCH   7   9
ATOM      8  C   UNL     1      45.344   8.564  12.336  0.00  0.00    +0.000 C 
ATOM      9  N   UNL     1      45.409   7.111  12.209  0.00  0.00    +0.000 N 
ATOM     10  C   UNL     1      44.284   6.508  11.616  0.00  0.00    +0.000 C 
ATOM     11  O   UNL     1      43.319   7.184  11.260  0.00  0.00    +0.000 OA
BRANCH  10  12
ATOM     12  C   UNL     1      44.239   5.048  11.455  0.00  0.00    +0.000 A 
ATOM     13  C   UNL     1      43.535   4.186  12.280  0.00  0.00    +0.000 A 
ATOM     14  S   UNL     1      43.618   2.552  11.796  0.00  0.00    +0.000 S 
ATOM     15  C   UNL     1      44.466   2.962  10.381  0.00  0.00    +0.000 A 
ATOM     16  N   UNL     1      44.754   2.022   9.444  0.00  0.00    +0.000 NA
ATOM     17  C   UNL     1      45.328   2.491   8.386  0.00  0.00    +0.000 A 
ATOM     18  N   UNL     1      45.677   3.803   8.201  0.00  0.00    +0.000 N 
ATOM     19  C   UNL     1      45.530   4.763   9.182  0.00  0.00    +0.000 A 
ATOM     20  O   UNL     1      46.074   5.858   9.076  0.00  0.00    +0.000 OA
ATOM     21  C   UNL     1      44.771   4.309  10.333  0.00  0.00    +0.000 A 
ATOM     22  H   UNL     1      46.186   4.091   7.378  0.00  0.00    +0.000 HD
ENDBRANCH  10  12
ENDBRANCH   7   9
ENDBRANCH   1   7
BRANCH   4  23
ATOM     23  C   UNL     1      51.725   9.216  12.758  0.00  0.00    +0.000 C 
BRANCH  23  24
ATOM     24  C   UNL     1      52.905   8.255  12.715  0.00  0.00    +0.000 C 
ATOM     25  O   UNL     1      53.378   7.733  13.725  0.00  0.00    +0.000 OA
ATOM     26  N   UNL     1      53.390   7.949  11.450  0.00  0.00    +0.000 N 
ATOM     27  C   UNL     1      54.408   6.911  11.308  0.00  0.00    +0.000 C 
ATOM     28  C   UNL     1      54.020   6.000  10.146  0.00  0.00    +0.000 C 
ATOM     29  N   UNL     1      53.808   6.751   8.924  0.00  0.00    +0.000 N 
ATOM     30  C   UNL     1      53.229   7.994   8.911  0.00  0.00    +0.000 C 
ATOM     31  O   UNL     1      52.875   8.498   7.850  0.00  0.00    +0.000 OA
ATOM     32  C   UNL     1      53.149   8.758  10.247  0.00  0.00    +0.000 C 
ATOM     33  H   UNL     1      53.783   6.268   8.033  0.00  0.00    +0.000 HD
ENDBRANCH  23  24
ENDBRANCH   4  23
TORSDOF 5
ENDMDL
MODEL 9
REMARK VINA RESULT:    -6.120      6.261      8.768
REMARK INTER + INTRA:          -8.956
REMARK INTER:                  -7.889
REMARK INTRA:                  -1.068
REMARK UNBOUND:                -1.047
REMARK  Name = 
REMARK  6 active torsions:
REMARK  status: ('A' for Active; 'I' for Inactive)
REMARK    1  A    between atoms: C_1  and  N_2
REMARK    2  A    between atoms: N_2  and  C_3
REMARK    3  A    between atoms: C_3  and  C_4
REMARK    4  A    between atoms: C_7  and  C_8
REMARK    5  A    between atoms: C_8  and  C_9
REMARK    6  A    between atoms: C_20  and  C_22
REMARK                            x       y       z     vdW  Elec       q    Type
REMARK                         _______ _______ _______ _____ _____    ______ ____
ROOT
ATOM      1  C   UNL     1      50.724   9.169  11.026  0.00  0.00    +0.000 A 
ATOM      2  C   UNL     1      49.780  10.086  11.516  0.00  0.00    +0.000 A 
ATOM      3  C   UNL     1      48.677   9.643  12.242  0.00  0.00    +0.000 A 
ATOM      4  C   UNL     1      48.492   8.275  12.478  0.00  0.00    +0.000 A 
ATOM      5  C   UNL     1      49.418   7.360  11.957  0.00  0.00    +0.000 A 
ATOM      6  C   UNL     1      50.527   7.800  11.234  0.00  0.00    +0.000 A 
ENDROOT
BRANCH   1   7
ATOM      7  C   UNL     1      51.955   9.659  10.312  0.00  0.00    +0.000 C 
BRANCH   7   9
ATOM      8  C   UNL     1      53.480   9.593  12.346  0.00  0.00    +0.000 C 
ATOM      9  N   UNL     1      53.254   9.354  10.924  0.00  0.00    +0.000 N 
ATOM     10  C   UNL     1      54.283   8.662  10.258  0.00  0.00    +0.000 C 
ATOM     11  O   UNL     1      55.300   8.315  10.856  0.00  0.00    +0.000 OA
BRANCH  10  12
ATOM     12  C   UNL     1      54.163   8.385   8.820  0.00  0.00    +0.000 A 
ATOM     13  C   UNL     1      54.457   9.292   7.815  0.00  0.00    +0.000 A 
ATOM     14  S   UNL     1      54.287   8.653   6.242  0.00  0.00    +0.000 S 
ATOM     15  C   UNL     1      53.968   7.100   6.853  0.00  0.00    +0.000 A 
ATOM     16  N   UNL     1      53.839   6.035   6.019  0.00  0.00    +0.000 NA
ATOM     17  C   UNL     1      53.680   4.906   6.626  0.00  0.00    +0.000 A 
ATOM     18  N   UNL     1      53.595   4.754   7.985  0.00  0.00    +0.000 N 
ATOM     19  C   UNL     1      53.580   5.820   8.860  0.00  0.00    +0.000 A 
ATOM     20  O   UNL     1      53.256   5.667  10.034  0.00  0.00    +0.000 OA
ATOM     21  C   UNL     1      53.888   7.094   8.233  0.00  0.00    +0.000 A 
ATOM     22  H   UNL     1      53.401   3.850   8.392  0.00  0.00    +0.000 HD
ENDBRANCH  10  12
ENDBRANCH   7   9
ENDBRANCH   1   7
BRANCH   4  23
ATOM     23  C   UNL     1      47.362   7.812  13.363  0.00  0.00    +0.000 C 
BRANCH  23  24
ATOM     24  C   UNL     1      45.996   7.708  12.698  0.00  0.00    +0.000 C 
ATOM     25  O   UNL     1      45.400   8.685  12.244  0.00  0.00    +0.000 OA
ATOM     26  N   UNL     1      45.477   6.426  12.578  0.00  0.00    +0.000 N 
ATOM     27  C   UNL     1      44.254   6.221  11.807  0.00  0.00    +0.000 C 
ATOM     28  C   UNL     1      44.446   5.012  10.895  0.00  0.00    +0.000 C 
ATOM     29  N   UNL     1      44.843   3.835  11.642  0.00  0.00    +0.000 N 
ATOM     30  C   UNL     1      45.688   3.895  12.720  0.00  0.00    +0.000 C 
ATOM     31  O   UNL     1      46.165   2.866  13.188  0.00  0.00    +0.000 OA
ATOM     32  C   UNL     1      45.915   5.271  13.374  0.00  0.00    +0.000 C 
ATOM     33  H   UNL     1      44.774   2.919  11.214  0.00  0.00    +0.000 HD
ENDBRANCH  23  24
ENDBRANCH   4  23
TORSDOF 5
ENDMDL
