MODEL 1
REMARK VINA RESULT:    -7.197      0.000      0.000
REMARK INTER + INTRA:         -12.221
REMARK INTER:                 -10.564
REMARK INTRA:                  -1.658
REMARK UNBOUND:                -1.658
REMARK  Name = 
REMARK  10 active torsions:
REMARK  status: ('A' for Active; 'I' for Inactive)
REMARK    1  A    between atoms: C_1  and  O_2
REMARK    2  A    between atoms: O_2  and  C_3
REMARK    3  A    between atoms: C_10  and  C_11
REMARK    4  A    between atoms: N_13  and  C_14
REMARK    5  A    between atoms: C_14  and  C_15
REMARK    6  A    between atoms: C_18  and  N_19
REMARK    7  A    between atoms: N_19  and  C_20
REMARK    8  A    between atoms: C_20  and  C_21
REMARK    9  A    between atoms: C_21  and  C_22
REMARK   10  A    between atoms: N_26  and  C_27
REMARK                            x       y       z     vdW  Elec       q    Type
REMARK                         _______ _______ _______ _____ _____    ______ ____
ROOT
ATOM      1  C   UNL     1      46.666   6.547  13.226  0.00  0.00    +0.000 A 
ATOM      2  C   UNL     1      47.053   5.210  13.343  0.00  0.00    +0.000 A 
ATOM      3  C   UNL     1      46.119   4.177  13.188  0.00  0.00    +0.000 A 
ATOM      4  C   UNL     1      44.779   4.442  12.890  0.00  0.00    +0.000 A 
ATOM      5  C   UNL     1      44.443   5.768  12.591  0.00  0.00    +0.000 A 
ATOM      6  C   UNL     1      45.363   6.814  12.785  0.00  0.00    +0.000 A 
ENDROOT
BRANCH   4   7
ATOM      7  N   UNL     1      43.784   3.455  12.794  0.00  0.00    +0.000 N 
ATOM      8  H   UNL     1      43.131   3.526  13.572  0.00  0.00    +0.000 HD
BRANCH   7   9
ATOM      9  C   UNL     1      43.112   3.266  11.509  0.00  0.00    +0.000 C 
BRANCH   9  10
ATOM     10  C   UNL     1      43.816   2.182  10.679  0.00  0.00    +0.000 C 
BRANCH  10  11
ATOM     11  C   UNL     1      44.992   2.733   9.838  0.00  0.00    +0.000 C 
ATOM     12  C   UNL     1      44.614   4.062   9.160  0.00  0.00    +0.000 C 
ATOM     13  C   UNL     1      45.762   4.566   8.288  0.00  0.00    +0.000 C 
ATOM     14  C   UNL     1      46.198   3.501   7.283  0.00  0.00    +0.000 C 
ATOM     15  N   UNL     1      46.580   2.262   7.970  0.00  0.00    +0.000 NA
ATOM     16  C   UNL     1      47.039   1.263   7.004  0.00  0.00    +0.000 C 
ATOM     17  C   UNL     1      45.470   1.727   8.770  0.00  0.00    +0.000 C 
ENDBRANCH  10  11
ENDBRANCH   9  10
ENDBRANCH   7   9
ENDBRANCH   4   7
BRANCH   1  18
ATOM     18  C   UNL     1      47.608   7.653  13.640  0.00  0.00    +0.000 C 
BRANCH  18  21
ATOM     19  C   UNL     1      49.279   7.264  15.422  0.00  0.00    +0.000 C 
ATOM     20  O   UNL     1      50.161   7.029  14.594  0.00  0.00    +0.000 OA
ATOM     21  N   UNL     1      48.006   7.582  15.024  0.00  0.00    +0.000 N 
ATOM     22  H   UNL     1      47.322   7.867  15.710  0.00  0.00    +0.000 HD
BRANCH  19  30
ATOM     23  C   UNL     1      48.376   5.053  17.881  0.00  0.00    +0.000 A 
ATOM     24  N   UNL     1      48.269   4.277  18.978  0.00  0.00    +0.000 NA
ATOM     25  C   UNL     1      48.924   4.660  20.078  0.00  0.00    +0.000 A 
ATOM     26  N   UNL     1      49.658   5.761  20.232  0.00  0.00    +0.000 NA
ATOM     27  C   UNL     1      49.745   6.495  19.108  0.00  0.00    +0.000 A 
ATOM     28  S   UNL     1      50.613   7.954  19.117  0.00  0.00    +0.000 S 
ATOM     29  C   UNL     1      50.293   8.214  17.465  0.00  0.00    +0.000 A 
ATOM     30  C   UNL     1      49.546   7.202  16.869  0.00  0.00    +0.000 A 
ATOM     31  C   UNL     1      49.171   6.209  17.873  0.00  0.00    +0.000 A 
BRANCH  23  33
ATOM     32  C   UNL     1      47.850   3.296  16.432  0.00  0.00    +0.000 C 
ATOM     33  O   UNL     1      47.689   4.674  16.750  0.00  0.00    +0.000 OA
ENDBRANCH  23  33
ENDBRANCH  19  30
ENDBRANCH  18  21
ENDBRANCH   1  18
TORSDOF 8
ENDMDL
MODEL 2
REMARK VINA RESULT:    -6.844      2.057      2.211
REMARK INTER + INTRA:         -11.703
REMARK INTER:                 -10.496
REMARK INTRA:                  -1.207
REMARK UNBOUND:                -1.658
REMARK  Name = 
REMARK  10 active torsions:
REMARK  status: ('A' for Active; 'I' for Inactive)
REMARK    1  A    between atoms: C_1  and  O_2
REMARK    2  A    between atoms: O_2  and  C_3
REMARK    3  A    between atoms: C_10  and  C_11
REMARK    4  A    between atoms: N_13  and  C_14
REMARK    5  A    between atoms: C_14  and  C_15
REMARK    6  A    between atoms: C_18  and  N_19
REMARK    7  A    between atoms: N_19  and  C_20
REMARK    8  A    between atoms: C_20  and  C_21
REMARK    9  A    between atoms: C_21  and  C_22
REMARK   10  A    between atoms: N_26  and  C_27
REMARK                            x       y       z     vdW  Elec       q    Type
REMARK                         _______ _______ _______ _____ _____    ______ ____
ROOT
ATOM      1  C   UNL     1      47.565   6.410  13.570  0.00  0.00    +0.000 A 
ATOM      2  C   UNL     1      46.652   6.493  12.516  0.00  0.00    +0.000 A 
ATOM      3  C   UNL     1      45.839   5.401  12.185  0.00  0.00    +0.000 A 
ATOM      4  C   UNL     1      45.893   4.204  12.906  0.00  0.00    +0.000 A 
ATOM      5  C   UNL     1      46.670   4.196  14.070  0.00  0.00    +0.000 A 
ATOM      6  C   UNL     1      47.521   5.270  14.385  0.00  0.00    +0.000 A 
ENDROOT
BRANCH   4   7
ATOM      7  N   UNL     1      45.155   3.054  12.577  0.00  0.00    +0.000 N 
ATOM      8  H   UNL     1      45.109   2.417  13.371  0.00  0.00    +0.000 HD
BRANCH   7   9
ATOM      9  C   UNL     1      43.863   3.221  11.913  0.00  0.00    +0.000 C 
BRANCH   9  10
ATOM     10  C   UNL     1      43.857   2.518  10.547  0.00  0.00    +0.000 C 
BRANCH  10  11
ATOM     11  C   UNL     1      45.091   2.868   9.681  0.00  0.00    +0.000 C 
ATOM     12  C   UNL     1      44.841   4.137   8.848  0.00  0.00    +0.000 C 
ATOM     13  C   UNL     1      46.045   4.439   7.956  0.00  0.00    +0.000 C 
ATOM     14  C   UNL     1      46.404   3.233   7.091  0.00  0.00    +0.000 C 
ATOM     15  N   UNL     1      46.666   2.054   7.924  0.00  0.00    +0.000 NA
ATOM     16  C   UNL     1      47.054   0.915   7.090  0.00  0.00    +0.000 C 
ATOM     17  C   UNL     1      45.500   1.710   8.748  0.00  0.00    +0.000 C 
ENDBRANCH  10  11
ENDBRANCH   9  10
ENDBRANCH   7   9
ENDBRANCH   4   7
BRANCH   1  18
ATOM     18  C   UNL     1      48.608   7.485  13.762  0.00  0.00    +0.000 C 
BRANCH  18  21
ATOM     19  C   UNL     1      49.895   7.167  15.851  0.00  0.00    +0.000 C 
ATOM     20  O   UNL     1      48.996   7.675  16.525  0.00  0.00    +0.000 OA
ATOM     21  N   UNL     1      49.768   7.037  14.492  0.00  0.00    +0.000 N 
ATOM     22  H   UNL     1      50.469   6.531  13.968  0.00  0.00    +0.000 HD
BRANCH  19  30
ATOM     23  C   UNL     1      50.789   4.221  17.358  0.00  0.00    +0.000 A 
ATOM     24  N   UNL     1      51.412   3.137  17.861  0.00  0.00    +0.000 NA
ATOM     25  C   UNL     1      52.723   3.229  18.104  0.00  0.00    +0.000 A 
ATOM     26  N   UNL     1      53.496   4.300  17.936  0.00  0.00    +0.000 NA
ATOM     27  C   UNL     1      52.833   5.351  17.420  0.00  0.00    +0.000 A 
ATOM     28  S   UNL     1      53.645   6.819  17.164  0.00  0.00    +0.000 S 
ATOM     29  C   UNL     1      52.243   7.541  16.522  0.00  0.00    +0.000 A 
ATOM     30  C   UNL     1      51.144   6.690  16.469  0.00  0.00    +0.000 A 
ATOM     31  C   UNL     1      51.489   5.401  17.064  0.00  0.00    +0.000 A 
BRANCH  23  33
ATOM     32  C   UNL     1      48.862   2.913  17.565  0.00  0.00    +0.000 C 
ATOM     33  O   UNL     1      49.435   4.139  17.123  0.00  0.00    +0.000 OA
ENDBRANCH  23  33
ENDBRANCH  19  30
ENDBRANCH  18  21
ENDBRANCH   1  18
TORSDOF 8
ENDMDL
MODEL 3
REMARK VINA RESULT:    -6.621      3.165      4.990
REMARK INTER + INTRA:         -11.375
REMARK INTER:                  -9.944
REMARK INTRA:                  -1.431
REMARK UNBOUND:                -1.658
REMARK  Name = 
REMARK  10 active torsions:
REMARK  status: ('A' for Active; 'I' for Inactive)
REMARK    1  A    between atoms: C_1  and  O_2
REMARK    2  A    between atoms: O_2  and  C_3
REMARK    3  A    between atoms: C_10  and  C_11
REMARK    4  A    between atoms: N_13  and  C_14
REMARK    5  A    between atoms: C_14  and  C_15
REMARK    6  A    between atoms: C_18  and  N_19
REMARK    7  A    between atoms: N_19  and  C_20
REMARK    8  A    between atoms: C_20  and  C_21
REMARK    9  A    between atoms: C_21  and  C_22
REMARK   10  A    between atoms: N_26  and  C_27
REMARK                            x       y       z     vdW  Elec       q    Type
REMARK                         _______ _______ _______ _____ _____    ______ ____
ROOT
ATOM      1  C   UNL     1      47.746   4.340  16.262  0.00  0.00    +0.000 A 
ATOM      2  C   UNL     1      48.348   5.589  16.427  0.00  0.00    +0.000 A 
ATOM      3  C   UNL     1      48.421   6.496  15.362  0.00  0.00    +0.000 A 
ATOM      4  C   UNL     1      47.878   6.196  14.108  0.00  0.00    +0.000 A 
ATOM      5  C   UNL     1      47.116   5.026  14.008  0.00  0.00    +0.000 A 
ATOM      6  C   UNL     1      47.073   4.092  15.058  0.00  0.00    +0.000 A 
ENDROOT
BRANCH   4   7
ATOM      7  N   UNL     1      47.982   7.033  12.985  0.00  0.00    +0.000 N 
ATOM      8  H   UNL     1      48.960   7.199  12.751  0.00  0.00    +0.000 HD
BRANCH   7   9
ATOM      9  C   UNL     1      47.165   6.729  11.810  0.00  0.00    +0.000 C 
BRANCH   9  10
ATOM     10  C   UNL     1      45.795   7.419  11.906  0.00  0.00    +0.000 C 
BRANCH  10  11
ATOM     11  C   UNL     1      44.621   6.487  11.525  0.00  0.00    +0.000 C 
ATOM     12  C   UNL     1      43.940   5.913  12.779  0.00  0.00    +0.000 C 
ATOM     13  C   UNL     1      42.819   4.950  12.389  0.00  0.00    +0.000 C 
ATOM     14  C   UNL     1      43.333   3.859  11.451  0.00  0.00    +0.000 C 
ATOM     15  N   UNL     1      43.945   4.448  10.254  0.00  0.00    +0.000 NA
ATOM     16  C   UNL     1      44.393   3.396   9.340  0.00  0.00    +0.000 C 
ATOM     17  C   UNL     1      45.064   5.332  10.604  0.00  0.00    +0.000 C 
ENDBRANCH  10  11
ENDBRANCH   9  10
ENDBRANCH   7   9
ENDBRANCH   4   7
BRANCH   1  18
ATOM     18  C   UNL     1      47.892   3.276  17.325  0.00  0.00    +0.000 C 
BRANCH  18  21
ATOM     19  C   UNL     1      50.134   2.278  17.011  0.00  0.00    +0.000 C 
ATOM     20  O   UNL     1      49.786   1.740  15.958  0.00  0.00    +0.000 OA
ATOM     21  N   UNL     1      49.257   3.051  17.730  0.00  0.00    +0.000 N 
ATOM     22  H   UNL     1      49.584   3.563  18.536  0.00  0.00    +0.000 HD
BRANCH  19  30
ATOM     23  C   UNL     1      52.324   4.411  18.563  0.00  0.00    +0.000 A 
ATOM     24  N   UNL     1      53.287   5.001  19.296  0.00  0.00    +0.000 NA
ATOM     25  C   UNL     1      54.319   4.249  19.690  0.00  0.00    +0.000 A 
ATOM     26  N   UNL     1      54.529   2.965  19.407  0.00  0.00    +0.000 NA
ATOM     27  C   UNL     1      53.536   2.417  18.685  0.00  0.00    +0.000 A 
ATOM     28  S   UNL     1      53.639   0.794  18.199  0.00  0.00    +0.000 S 
ATOM     29  C   UNL     1      52.119   0.871  17.438  0.00  0.00    +0.000 A 
ATOM     30  C   UNL     1      51.494   2.109  17.550  0.00  0.00    +0.000 A 
ATOM     31  C   UNL     1      52.375   3.045  18.245  0.00  0.00    +0.000 A 
BRANCH  23  33
ATOM     32  C   UNL     1      50.756   6.041  19.154  0.00  0.00    +0.000 C 
ATOM     33  O   UNL     1      51.267   5.184  18.138  0.00  0.00    +0.000 OA
ENDBRANCH  23  33
ENDBRANCH  19  30
ENDBRANCH  18  21
ENDBRANCH   1  18
TORSDOF 8
ENDMDL
MODEL 4
REMARK VINA RESULT:    -6.484      3.183      8.484
REMARK INTER + INTRA:         -11.175
REMARK INTER:                  -9.360
REMARK INTRA:                  -1.815
REMARK UNBOUND:                -1.658
REMARK  Name = 
REMARK  10 active torsions:
REMARK  status: ('A' for Active; 'I' for Inactive)
REMARK    1  A    between atoms: C_1  and  O_2
REMARK    2  A    between atoms: O_2  and  C_3
REMARK    3  A    between atoms: C_10  and  C_11
REMARK    4  A    between atoms: N_13  and  C_14
REMARK    5  A    between atoms: C_14  and  C_15
REMARK    6  A    between atoms: C_18  and  N_19
REMARK    7  A    between atoms: N_19  and  C_20
REMARK    8  A    between atoms: C_20  and  C_21
REMARK    9  A    between atoms: C_21  and  C_22
REMARK   10  A    between atoms: N_26  and  C_27
REMARK                            x       y       z     vdW  Elec       q    Type
REMARK                         _______ _______ _______ _____ _____    ______ ____
ROOT
ATOM      1  C   UNL     1      48.584   3.394  17.622  0.00  0.00    +0.000 A 
ATOM      2  C   UNL     1      49.561   2.527  17.129  0.00  0.00    +0.000 A 
ATOM      3  C   UNL     1      50.915   2.726  17.432  0.00  0.00    +0.000 A 
ATOM      4  C   UNL     1      51.333   3.779  18.251  0.00  0.00    +0.000 A 
ATOM      5  C   UNL     1      50.334   4.525  18.889  0.00  0.00    +0.000 A 
ATOM      6  C   UNL     1      48.978   4.359  18.558  0.00  0.00    +0.000 A 
ENDROOT
BRANCH   4   7
ATOM      7  N   UNL     1      52.678   4.071  18.531  0.00  0.00    +0.000 N 
ATOM      8  H   UNL     1      53.289   3.344  18.162  0.00  0.00    +0.000 HD
BRANCH   7   9
ATOM      9  C   UNL     1      53.172   5.419  18.249  0.00  0.00    +0.000 C 
BRANCH   9  10
ATOM     10  C   UNL     1      52.985   5.768  16.764  0.00  0.00    +0.000 C 
BRANCH  10  11
ATOM     11  C   UNL     1      52.245   7.109  16.547  0.00  0.00    +0.000 C 
ATOM     12  C   UNL     1      50.788   6.874  16.112  0.00  0.00    +0.000 C 
ATOM     13  C   UNL     1      50.085   8.205  15.846  0.00  0.00    +0.000 C 
ATOM     14  C   UNL     1      50.867   9.048  14.840  0.00  0.00    +0.000 C 
ATOM     15  N   UNL     1      52.239   9.276  15.308  0.00  0.00    +0.000 NA
ATOM     16  C   UNL     1      52.967  10.123  14.362  0.00  0.00    +0.000 C 
ATOM     17  C   UNL     1      52.953   8.010  15.514  0.00  0.00    +0.000 C 
ENDBRANCH  10  11
ENDBRANCH   9  10
ENDBRANCH   7   9
ENDBRANCH   4   7
BRANCH   1  18
ATOM     18  C   UNL     1      47.170   3.329  17.094  0.00  0.00    +0.000 C 
BRANCH  18  21
ATOM     19  C   UNL     1      47.007   4.131  14.759  0.00  0.00    +0.000 C 
ATOM     20  O   UNL     1      47.379   3.041  14.320  0.00  0.00    +0.000 OA
ATOM     21  N   UNL     1      46.877   4.340  16.108  0.00  0.00    +0.000 N 
ATOM     22  H   UNL     1      46.478   5.204  16.446  0.00  0.00    +0.000 HD
BRANCH  19  30
ATOM     23  C   UNL     1      44.462   4.733  12.542  0.00  0.00    +0.000 A 
ATOM     24  N   UNL     1      43.523   5.253  11.729  0.00  0.00    +0.000 NA
ATOM     25  C   UNL     1      43.693   6.507  11.302  0.00  0.00    +0.000 A 
ATOM     26  N   UNL     1      44.723   7.310  11.564  0.00  0.00    +0.000 NA
ATOM     27  C   UNL     1      45.627   6.753  12.389  0.00  0.00    +0.000 A 
ATOM     28  S   UNL     1      47.028   7.613  12.814  0.00  0.00    +0.000 S 
ATOM     29  C   UNL     1      47.567   6.343  13.812  0.00  0.00    +0.000 A 
ATOM     30  C   UNL     1      46.698   5.257  13.861  0.00  0.00    +0.000 A 
ATOM     31  C   UNL     1      45.570   5.486  12.961  0.00  0.00    +0.000 A 
BRANCH  23  33
ATOM     32  C   UNL     1      43.463   2.663  12.119  0.00  0.00    +0.000 C 
ATOM     33  O   UNL     1      44.303   3.434  12.971  0.00  0.00    +0.000 OA
ENDBRANCH  23  33
ENDBRANCH  19  30
ENDBRANCH  18  21
ENDBRANCH   1  18
TORSDOF 8
ENDMDL
MODEL 5
REMARK VINA RESULT:    -6.423      5.343      9.544
REMARK INTER + INTRA:         -11.085
REMARK INTER:                 -10.245
REMARK INTRA:                  -0.840
REMARK UNBOUND:                -1.658
REMARK  Name = 
REMARK  10 active torsions:
REMARK  status: ('A' for Active; 'I' for Inactive)
REMARK    1  A    between atoms: C_1  and  O_2
REMARK    2  A    between atoms: O_2  and  C_3
REMARK    3  A    between atoms: C_10  and  C_11
REMARK    4  A    between atoms: N_13  and  C_14
REMARK    5  A    between atoms: C_14  and  C_15
REMARK    6  A    between atoms: C_18  and  N_19
REMARK    7  A    between atoms: N_19  and  C_20
REMARK    8  A    between atoms: C_20  and  C_21
REMARK    9  A    between atoms: C_21  and  C_22
REMARK   10  A    between atoms: N_26  and  C_27
REMARK                            x       y       z     vdW  Elec       q    Type
REMARK                         _______ _______ _______ _____ _____    ______ ____
ROOT
ATOM      1  C   UNL     1      48.629   3.358  17.023  0.00  0.00    +0.000 A 
ATOM      2  C   UNL     1      49.444   4.343  17.584  0.00  0.00    +0.000 A 
ATOM      3  C   UNL     1      50.758   4.050  17.973  0.00  0.00    +0.000 A 
ATOM      4  C   UNL     1      51.306   2.776  17.795  0.00  0.00    +0.000 A 
ATOM      5  C   UNL     1      50.548   1.853  17.064  0.00  0.00    +0.000 A 
ATOM      6  C   UNL     1      49.215   2.125  16.708  0.00  0.00    +0.000 A 
ENDROOT
BRANCH   4   7
ATOM      7  N   UNL     1      52.589   2.404  18.229  0.00  0.00    +0.000 N 
ATOM      8  H   UNL     1      52.681   2.538  19.235  0.00  0.00    +0.000 HD
BRANCH   7   9
ATOM      9  C   UNL     1      53.132   1.121  17.780  0.00  0.00    +0.000 C 
BRANCH   9  10
ATOM     10  C   UNL     1      54.458   0.812  18.493  0.00  0.00    +0.000 C 
BRANCH  10  11
ATOM     11  C   UNL     1      55.126  -0.489  17.988  0.00  0.00    +0.000 C 
ATOM     12  C   UNL     1      55.034  -0.602  16.456  0.00  0.00    +0.000 C 
ATOM     13  C   UNL     1      55.646  -1.917  15.976  0.00  0.00    +0.000 C 
ATOM     14  C   UNL     1      55.012  -3.111  16.689  0.00  0.00    +0.000 C 
ATOM     15  N   UNL     1      55.149  -2.981  18.144  0.00  0.00    +0.000 NA
ATOM     16  C   UNL     1      54.581  -4.150  18.817  0.00  0.00    +0.000 C 
ATOM     17  C   UNL     1      54.516  -1.750  18.635  0.00  0.00    +0.000 C 
ENDBRANCH  10  11
ENDBRANCH   9  10
ENDBRANCH   7   9
ENDBRANCH   4   7
BRANCH   1  18
ATOM     18  C   UNL     1      47.150   3.605  16.841  0.00  0.00    +0.000 C 
BRANCH  18  21
ATOM     19  C   UNL     1      46.890   4.256  14.468  0.00  0.00    +0.000 C 
ATOM     20  O   UNL     1      47.183   3.121  14.087  0.00  0.00    +0.000 OA
ATOM     21  N   UNL     1      46.849   4.561  15.805  0.00  0.00    +0.000 N 
ATOM     22  H   UNL     1      46.513   5.466  16.102  0.00  0.00    +0.000 HD
BRANCH  19  30
ATOM     23  C   UNL     1      44.126   5.005  12.585  0.00  0.00    +0.000 A 
ATOM     24  N   UNL     1      43.142   5.576  11.863  0.00  0.00    +0.000 NA
ATOM     25  C   UNL     1      43.394   6.756  11.290  0.00  0.00    +0.000 A 
ATOM     26  N   UNL     1      44.541   7.432  11.319  0.00  0.00    +0.000 NA
ATOM     27  C   UNL     1      45.487   6.830  12.060  0.00  0.00    +0.000 A 
ATOM     28  S   UNL     1      47.030   7.527  12.192  0.00  0.00    +0.000 S 
ATOM     29  C   UNL     1      47.560   6.285  13.228  0.00  0.00    +0.000 A 
ATOM     30  C   UNL     1      46.584   5.334  13.512  0.00  0.00    +0.000 A 
ATOM     31  C   UNL     1      45.367   5.635  12.762  0.00  0.00    +0.000 A 
BRANCH  23  33
ATOM     32  C   UNL     1      43.594   2.759  12.213  0.00  0.00    +0.000 C 
ATOM     33  O   UNL     1      43.879   3.780  13.163  0.00  0.00    +0.000 OA
ENDBRANCH  23  33
ENDBRANCH  19  30
ENDBRANCH  18  21
ENDBRANCH   1  18
TORSDOF 8
ENDMDL
MODEL 6
REMARK VINA RESULT:    -6.364      1.734      2.011
REMARK INTER + INTRA:         -10.999
REMARK INTER:                  -9.569
REMARK INTRA:                  -1.430
REMARK UNBOUND:                -1.658
REMARK  Name = 
REMARK  10 active torsions:
REMARK  status: ('A' for Active; 'I' for Inactive)
REMARK    1  A    between atoms: C_1  and  O_2
REMARK    2  A    between atoms: O_2  and  C_3
REMARK    3  A    between atoms: C_10  and  C_11
REMARK    4  A    between atoms: N_13  and  C_14
REMARK    5  A    between atoms: C_14  and  C_15
REMARK    6  A    between atoms: C_18  and  N_19
REMARK    7  A    between atoms: N_19  and  C_20
REMARK    8  A    between atoms: C_20  and  C_21
REMARK    9  A    between atoms: C_21  and  C_22
REMARK   10  A    between atoms: N_26  and  C_27
REMARK                            x       y       z     vdW  Elec       q    Type
REMARK                         _______ _______ _______ _____ _____    ______ ____
ROOT
ATOM      1  C   UNL     1      47.888   6.812  12.909  0.00  0.00    +0.000 A 
ATOM      2  C   UNL     1      47.398   5.702  13.601  0.00  0.00    +0.000 A 
ATOM      3  C   UNL     1      46.141   5.164  13.295  0.00  0.00    +0.000 A 
ATOM      4  C   UNL     1      45.344   5.700  12.278  0.00  0.00    +0.000 A 
ATOM      5  C   UNL     1      45.921   6.688  11.471  0.00  0.00    +0.000 A 
ATOM      6  C   UNL     1      47.163   7.261  11.797  0.00  0.00    +0.000 A 
ENDROOT
BRANCH   4   7
ATOM      7  N   UNL     1      44.048   5.251  11.974  0.00  0.00    +0.000 N 
ATOM      8  H   UNL     1      43.349   5.878  12.368  0.00  0.00    +0.000 HD
BRANCH   7   9
ATOM      9  C   UNL     1      43.749   4.867  10.594  0.00  0.00    +0.000 C 
BRANCH   9  10
ATOM     10  C   UNL     1      44.086   3.387  10.355  0.00  0.00    +0.000 C 
BRANCH  10  11
ATOM     11  C   UNL     1      45.355   3.188   9.492  0.00  0.00    +0.000 C 
ATOM     12  C   UNL     1      45.435   4.240   8.373  0.00  0.00    +0.000 C 
ATOM     13  C   UNL     1      46.661   3.998   7.494  0.00  0.00    +0.000 C 
ATOM     14  C   UNL     1      46.677   2.568   6.955  0.00  0.00    +0.000 C 
ATOM     15  N   UNL     1      46.632   1.597   8.054  0.00  0.00    +0.000 NA
ATOM     16  C   UNL     1      46.694   0.231   7.531  0.00  0.00    +0.000 C 
ATOM     17  C   UNL     1      45.430   1.775   8.878  0.00  0.00    +0.000 C 
ENDBRANCH  10  11
ENDBRANCH   9  10
ENDBRANCH   7   9
ENDBRANCH   4   7
BRANCH   1  18
ATOM     18  C   UNL     1      49.116   7.538  13.405  0.00  0.00    +0.000 C 
BRANCH  18  21
ATOM     19  C   UNL     1      50.847   7.417  15.168  0.00  0.00    +0.000 C 
ATOM     20  O   UNL     1      51.361   8.471  14.786  0.00  0.00    +0.000 OA
ATOM     21  N   UNL     1      49.741   6.905  14.540  0.00  0.00    +0.000 N 
ATOM     22  H   UNL     1      49.275   6.096  14.924  0.00  0.00    +0.000 HD
BRANCH  19  30
ATOM     23  C   UNL     1      49.514   6.317  18.128  0.00  0.00    +0.000 A 
ATOM     24  N   UNL     1      49.198   5.674  19.269  0.00  0.00    +0.000 NA
ATOM     25  C   UNL     1      50.138   4.914  19.838  0.00  0.00    +0.000 A 
ATOM     26  N   UNL     1      51.390   4.740  19.418  0.00  0.00    +0.000 NA
ATOM     27  C   UNL     1      51.654   5.389  18.271  0.00  0.00    +0.000 A 
ATOM     28  S   UNL     1      53.210   5.313  17.596  0.00  0.00    +0.000 S 
ATOM     29  C   UNL     1      52.739   6.276  16.273  0.00  0.00    +0.000 A 
ATOM     30  C   UNL     1      51.401   6.657  16.301  0.00  0.00    +0.000 A 
ATOM     31  C   UNL     1      50.776   6.173  17.530  0.00  0.00    +0.000 A 
BRANCH  23  33
ATOM     32  C   UNL     1      47.705   7.750  18.496  0.00  0.00    +0.000 C 
ATOM     33  O   UNL     1      48.556   7.117  17.547  0.00  0.00    +0.000 OA
ENDBRANCH  23  33
ENDBRANCH  19  30
ENDBRANCH  18  21
ENDBRANCH   1  18
TORSDOF 8
ENDMDL
MODEL 7
REMARK VINA RESULT:    -6.364      3.479      9.069
REMARK INTER + INTRA:         -10.998
REMARK INTER:                  -9.602
REMARK INTRA:                  -1.396
REMARK UNBOUND:                -1.658
REMARK  Name = 
REMARK  10 active torsions:
REMARK  status: ('A' for Active; 'I' for Inactive)
REMARK    1  A    between atoms: C_1  and  O_2
REMARK    2  A    between atoms: O_2  and  C_3
REMARK    3  A    between atoms: C_10  and  C_11
REMARK    4  A    between atoms: N_13  and  C_14
REMARK    5  A    between atoms: C_14  and  C_15
REMARK    6  A    between atoms: C_18  and  N_19
REMARK    7  A    between atoms: N_19  and  C_20
REMARK    8  A    between atoms: C_20  and  C_21
REMARK    9  A    between atoms: C_21  and  C_22
REMARK   10  A    between atoms: N_26  and  C_27
REMARK                            x       y       z     vdW  Elec       q    Type
REMARK                         _______ _______ _______ _____ _____    ______ ____
ROOT
ATOM      1  C   UNL     1      48.636   3.287  17.039  0.00  0.00    +0.000 A 
ATOM      2  C   UNL     1      49.404   4.247  17.701  0.00  0.00    +0.000 A 
ATOM      3  C   UNL     1      50.711   3.958  18.115  0.00  0.00    +0.000 A 
ATOM      4  C   UNL     1      51.300   2.714  17.863  0.00  0.00    +0.000 A 
ATOM      5  C   UNL     1      50.592   1.830  17.039  0.00  0.00    +0.000 A 
ATOM      6  C   UNL     1      49.266   2.095  16.656  0.00  0.00    +0.000 A 
ENDROOT
BRANCH   4   7
ATOM      7  N   UNL     1      52.576   2.342  18.316  0.00  0.00    +0.000 N 
ATOM      8  H   UNL     1      53.062   1.792  17.609  0.00  0.00    +0.000 HD
BRANCH   7   9
ATOM      9  C   UNL     1      53.429   3.368  18.916  0.00  0.00    +0.000 C 
BRANCH   9  10
ATOM     10  C   UNL     1      54.358   3.990  17.862  0.00  0.00    +0.000 C 
BRANCH  10  11
ATOM     11  C   UNL     1      54.218   5.528  17.764  0.00  0.00    +0.000 C 
ATOM     12  C   UNL     1      53.590   6.109  19.043  0.00  0.00    +0.000 C 
ATOM     13  C   UNL     1      53.405   7.620  18.911  0.00  0.00    +0.000 C 
ATOM     14  C   UNL     1      52.605   7.969  17.657  0.00  0.00    +0.000 C 
ATOM     15  N   UNL     1      53.253   7.424  16.459  0.00  0.00    +0.000 NA
ATOM     16  C   UNL     1      52.506   7.801  15.258  0.00  0.00    +0.000 C 
ATOM     17  C   UNL     1      53.389   5.964  16.539  0.00  0.00    +0.000 C 
ENDBRANCH  10  11
ENDBRANCH   9  10
ENDBRANCH   7   9
ENDBRANCH   4   7
BRANCH   1  18
ATOM     18  C   UNL     1      47.158   3.510  16.822  0.00  0.00    +0.000 C 
BRANCH  18  21
ATOM     19  C   UNL     1      46.911   4.175  14.451  0.00  0.00    +0.000 C 
ATOM     20  O   UNL     1      47.198   3.039  14.066  0.00  0.00    +0.000 OA
ATOM     21  N   UNL     1      46.867   4.473  15.789  0.00  0.00    +0.000 N 
ATOM     22  H   UNL     1      46.535   5.378  16.090  0.00  0.00    +0.000 HD
BRANCH  19  30
ATOM     23  C   UNL     1      44.112   5.030  12.666  0.00  0.00    +0.000 A 
ATOM     24  N   UNL     1      43.127   5.638  11.978  0.00  0.00    +0.000 NA
ATOM     25  C   UNL     1      43.407   6.803  11.387  0.00  0.00    +0.000 A 
ATOM     26  N   UNL     1      44.582   7.431  11.369  0.00  0.00    +0.000 NA
ATOM     27  C   UNL     1      45.529   6.793  12.079  0.00  0.00    +0.000 A 
ATOM     28  S   UNL     1      47.103   7.425  12.148  0.00  0.00    +0.000 S 
ATOM     29  C   UNL     1      47.619   6.167  13.173  0.00  0.00    +0.000 A 
ATOM     30  C   UNL     1      46.615   5.259  13.500  0.00  0.00    +0.000 A 
ATOM     31  C   UNL     1      45.385   5.607  12.793  0.00  0.00    +0.000 A 
BRANCH  23  33
ATOM     32  C   UNL     1      43.672   2.760  12.327  0.00  0.00    +0.000 C 
ATOM     33  O   UNL     1      43.836   3.820  13.262  0.00  0.00    +0.000 OA
ENDBRANCH  23  33
ENDBRANCH  19  30
ENDBRANCH  18  21
ENDBRANCH   1  18
TORSDOF 8
ENDMDL
MODEL 8
REMARK VINA RESULT:    -6.144      3.240      8.328
REMARK INTER + INTRA:         -10.676
REMARK INTER:                  -9.373
REMARK INTRA:                  -1.303
REMARK UNBOUND:                -1.658
REMARK  Name = 
REMARK  10 active torsions:
REMARK  status: ('A' for Active; 'I' for Inactive)
REMARK    1  A    between atoms: C_1  and  O_2
REMARK    2  A    between atoms: O_2  and  C_3
REMARK    3  A    between atoms: C_10  and  C_11
REMARK    4  A    between atoms: N_13  and  C_14
REMARK    5  A    between atoms: C_14  and  C_15
REMARK    6  A    between atoms: C_18  and  N_19
REMARK    7  A    between atoms: N_19  and  C_20
REMARK    8  A    between atoms: C_20  and  C_21
REMARK    9  A    between atoms: C_21  and  C_22
REMARK   10  A    between atoms: N_26  and  C_27
REMARK                            x       y       z     vdW  Elec       q    Type
REMARK                         _______ _______ _______ _____ _____    ______ ____
ROOT
ATOM      1  C   UNL     1      48.871   8.148  13.136  0.00  0.00    +0.000 A 
ATOM      2  C   UNL     1      48.309   7.430  14.193  0.00  0.00    +0.000 A 
ATOM      3  C   UNL     1      49.106   6.961  15.245  0.00  0.00    +0.000 A 
ATOM      4  C   UNL     1      50.481   7.212  15.288  0.00  0.00    +0.000 A 
ATOM      5  C   UNL     1      50.999   8.088  14.326  0.00  0.00    +0.000 A 
ATOM      6  C   UNL     1      50.216   8.527  13.244  0.00  0.00    +0.000 A 
ENDROOT
BRANCH   4   7
ATOM      7  N   UNL     1      51.342   6.708  16.277  0.00  0.00    +0.000 N 
ATOM      8  H   UNL     1      52.248   7.174  16.237  0.00  0.00    +0.000 HD
BRANCH   7   9
ATOM      9  C   UNL     1      50.835   6.580  17.643  0.00  0.00    +0.000 C 
BRANCH   9  10
ATOM     10  C   UNL     1      51.540   5.431  18.381  0.00  0.00    +0.000 C 
BRANCH  10  11
ATOM     11  C   UNL     1      50.767   4.094  18.298  0.00  0.00    +0.000 C 
ATOM     12  C   UNL     1      51.479   3.099  17.365  0.00  0.00    +0.000 C 
ATOM     13  C   UNL     1      50.677   1.804  17.247  0.00  0.00    +0.000 C 
ATOM     14  C   UNL     1      49.240   2.087  16.812  0.00  0.00    +0.000 C 
ATOM     15  N   UNL     1      48.586   3.013  17.744  0.00  0.00    +0.000 NA
ATOM     16  C   UNL     1      47.196   3.241  17.346  0.00  0.00    +0.000 C 
ATOM     17  C   UNL     1      49.310   4.288  17.829  0.00  0.00    +0.000 C 
ENDBRANCH  10  11
ENDBRANCH   9  10
ENDBRANCH   7   9
ENDBRANCH   4   7
BRANCH   1  18
ATOM     18  C   UNL     1      48.064   8.430  11.890  0.00  0.00    +0.000 C 
BRANCH  18  21
ATOM     19  C   UNL     1      46.118   7.006  11.336  0.00  0.00    +0.000 C 
ATOM     20  O   UNL     1      45.339   7.807  11.857  0.00  0.00    +0.000 OA
ATOM     21  N   UNL     1      47.467   7.252  11.312  0.00  0.00    +0.000 N 
ATOM     22  H   UNL     1      48.080   6.636  10.797  0.00  0.00    +0.000 HD
BRANCH  19  30
ATOM     23  C   UNL     1      44.530   4.246  12.605  0.00  0.00    +0.000 A 
ATOM     24  N   UNL     1      43.800   3.136  12.829  0.00  0.00    +0.000 NA
ATOM     25  C   UNL     1      43.489   2.372  11.777  0.00  0.00    +0.000 A 
ATOM     26  N   UNL     1      43.854   2.566  10.511  0.00  0.00    +0.000 NA
ATOM     27  C   UNL     1      44.568   3.691  10.336  0.00  0.00    +0.000 A 
ATOM     28  S   UNL     1      45.150   4.092   8.792  0.00  0.00    +0.000 S 
ATOM     29  C   UNL     1      45.848   5.532   9.372  0.00  0.00    +0.000 A 
ATOM     30  C   UNL     1      45.642   5.751  10.731  0.00  0.00    +0.000 A 
ATOM     31  C   UNL     1      44.927   4.616  11.311  0.00  0.00    +0.000 A 
BRANCH  23  33
ATOM     32  C   UNL     1      46.152   4.718  14.220  0.00  0.00    +0.000 C 
ATOM     33  O   UNL     1      44.869   5.028  13.686  0.00  0.00    +0.000 OA
ENDBRANCH  23  33
ENDBRANCH  19  30
ENDBRANCH  18  21
ENDBRANCH   1  18
TORSDOF 8
ENDMDL
MODEL 9
REMARK VINA RESULT:    -5.990      4.052      9.717
REMARK INTER + INTRA:         -10.450
REMARK INTER:                  -9.388
REMARK INTRA:                  -1.062
REMARK UNBOUND:                -1.658
REMARK  Name = 
REMARK  10 active torsions:
REMARK  status: ('A' for Active; 'I' for Inactive)
REMARK    1  A    between atoms: C_1  and  O_2
REMARK    2  A    between atoms: O_2  and  C_3
REMARK    3  A    between atoms: C_10  and  C_11
REMARK    4  A    between atoms: N_13  and  C_14
REMARK    5  A    between atoms: C_14  and  C_15
REMARK    6  A    between atoms: C_18  and  N_19
REMARK    7  A    between atoms: N_19  and  C_20
REMARK    8  A    between atoms: C_20  and  C_21
REMARK    9  A    between atoms: C_21  and  C_22
REMARK   10  A    between atoms: N_26  and  C_27
REMARK                            x       y       z     vdW  Elec       q    Type
REMARK                         _______ _______ _______ _____ _____    ______ ____
ROOT
ATOM      1  C   UNL     1      48.316   3.949  17.736  0.00  0.00    +0.000 A 
ATOM      2  C   UNL     1      49.583   3.499  17.360  0.00  0.00    +0.000 A 
ATOM      3  C   UNL     1      50.737   4.028  17.954  0.00  0.00    +0.000 A 
ATOM      4  C   UNL     1      50.663   5.003  18.954  0.00  0.00    +0.000 A 
ATOM      5  C   UNL     1      49.391   5.308  19.453  0.00  0.00    +0.000 A 
ATOM      6  C   UNL     1      48.229   4.815  18.835  0.00  0.00    +0.000 A 
ENDROOT
BRANCH   4   7
ATOM      7  N   UNL     1      51.784   5.620  19.534  0.00  0.00    +0.000 N 
ATOM      8  H   UNL     1      51.601   6.608  19.706  0.00  0.00    +0.000 HD
BRANCH   7   9
ATOM      9  C   UNL     1      52.434   4.962  20.668  0.00  0.00    +0.000 C 
BRANCH   9  10
ATOM     10  C   UNL     1      53.857   4.517  20.297  0.00  0.00    +0.000 C 
BRANCH  10  11
ATOM     11  C   UNL     1      54.025   2.980  20.279  0.00  0.00    +0.000 C 
ATOM     12  C   UNL     1      55.412   2.567  20.801  0.00  0.00    +0.000 C 
ATOM     13  C   UNL     1      55.586   1.051  20.725  0.00  0.00    +0.000 C 
ATOM     14  C   UNL     1      55.316   0.537  19.312  0.00  0.00    +0.000 C 
ATOM     15  N   UNL     1      53.972   0.923  18.866  0.00  0.00    +0.000 NA
ATOM     16  C   UNL     1      53.704   0.387  17.530  0.00  0.00    +0.000 C 
ATOM     17  C   UNL     1      53.802   2.382  18.875  0.00  0.00    +0.000 C 
ENDBRANCH  10  11
ENDBRANCH   9  10
ENDBRANCH   7   9
ENDBRANCH   4   7
BRANCH   1  18
ATOM     18  C   UNL     1      47.099   3.568  16.926  0.00  0.00    +0.000 C 
BRANCH  18  21
ATOM     19  C   UNL     1      46.947   4.221  14.545  0.00  0.00    +0.000 C 
ATOM     20  O   UNL     1      47.361   3.119  14.179  0.00  0.00    +0.000 OA
ATOM     21  N   UNL     1      46.789   4.507  15.877  0.00  0.00    +0.000 N 
ATOM     22  H   UNL     1      46.357   5.375  16.156  0.00  0.00    +0.000 HD
BRANCH  19  30
ATOM     23  C   UNL     1      44.154   4.901  12.678  0.00  0.00    +0.000 A 
ATOM     24  N   UNL     1      43.154   5.446  11.959  0.00  0.00    +0.000 NA
ATOM     25  C   UNL     1      43.383   6.621  11.365  0.00  0.00    +0.000 A 
ATOM     26  N   UNL     1      44.520   7.315  11.372  0.00  0.00    +0.000 NA
ATOM     27  C   UNL     1      45.482   6.738  12.113  0.00  0.00    +0.000 A 
ATOM     28  S   UNL     1      47.016   7.459  12.218  0.00  0.00    +0.000 S 
ATOM     29  C   UNL     1      47.574   6.240  13.267  0.00  0.00    +0.000 A 
ATOM     30  C   UNL     1      46.616   5.279  13.576  0.00  0.00    +0.000 A 
ATOM     31  C   UNL     1      45.387   5.551  12.834  0.00  0.00    +0.000 A 
BRANCH  23  33
ATOM     32  C   UNL     1      43.550   2.666  12.356  0.00  0.00    +0.000 C 
ATOM     33  O   UNL     1      43.931   3.681  13.278  0.00  0.00    +0.000 OA
ENDBRANCH  23  33
ENDBRANCH  19  30
ENDBRANCH  18  21
ENDBRANCH   1  18
TORSDOF 8
ENDMDL
