MODEL 1
REMARK VINA RESULT:    -7.595      0.000      0.000
REMARK INTER + INTRA:         -10.570
REMARK INTER:                  -9.815
REMARK INTRA:                  -0.754
REMARK UNBOUND:                -0.754
REMARK  Name = 
REMARK  5 active torsions:
REMARK  status: ('A' for Active; 'I' for Inactive)
REMARK    1  A    between atoms: C_2  and  C_5
REMARK    2  A    between atoms: C_9  and  O_10
REMARK    3  A    between atoms: O_10  and  C_11
REMARK    4  A    between atoms: C_11  and  C_12
REMARK    5  A    between atoms: C_14  and  C_15
REMARK                            x       y       z     vdW  Elec       q    Type
REMARK                         _______ _______ _______ _____ _____    ______ ____
ROOT
ATOM      1  C   UNL     1      44.341   6.479  11.228  0.00  0.00    +0.000 C 
ENDROOT
BRANCH   1   2
ATOM      2  C   UNL     1      44.350   5.017  10.857  0.00  0.00    +0.000 A 
ATOM      3  C   UNL     1      45.128   4.574   9.789  0.00  0.00    +0.000 A 
ATOM      4  C   UNL     1      45.061   3.236   9.373  0.00  0.00    +0.000 A 
ATOM      5  C   UNL     1      44.205   2.390  10.090  0.00  0.00    +0.000 A 
ATOM      6  C   UNL     1      43.482   2.899  11.156  0.00  0.00    +0.000 A 
ATOM      7  N   UNL     1      43.534   4.186  11.551  0.00  0.00    +0.000 NA
BRANCH   4   8
ATOM      8  C   UNL     1      45.846   2.750   8.223  0.00  0.00    +0.000 A 
ATOM      9  N   UNL     1      46.018   3.590   7.180  0.00  0.00    +0.000 NA
ATOM     10  C   UNL     1      46.740   3.125   6.144  0.00  0.00    +0.000 A 
ATOM     11  C   UNL     1      47.291   1.869   6.107  0.00  0.00    +0.000 A 
ATOM     12  C   UNL     1      47.057   1.087   7.213  0.00  0.00    +0.000 A 
ATOM     13  N   UNL     1      46.343   1.497   8.278  0.00  0.00    +0.000 NA
ENDBRANCH   4   8
ENDBRANCH   1   2
BRANCH   1  14
ATOM     14  O   UNL     1      44.529   6.654  12.638  0.00  0.00    +0.000 OA
BRANCH  14  19
ATOM     15  C   UNL     1      47.299   5.196  14.356  0.00  0.00    +0.000 A 
ATOM     16  N   UNL     1      48.366   5.789  13.768  0.00  0.00    +0.000 NA
ATOM     17  C   UNL     1      48.108   6.675  12.785  0.00  0.00    +0.000 A 
ATOM     18  C   UNL     1      46.842   6.997  12.360  0.00  0.00    +0.000 A 
ATOM     19  C   UNL     1      45.824   6.353  13.015  0.00  0.00    +0.000 A 
ATOM     20  N   UNL     1      46.023   5.464  14.004  0.00  0.00    +0.000 NA
BRANCH  15  22
ATOM     21  F   UNL     1      48.653   4.361  16.203  0.00  0.00    +0.000 F 
ATOM     22  C   UNL     1      47.515   4.168  15.471  0.00  0.00    +0.000 C 
ATOM     23  F   UNL     1      47.600   2.885  15.002  0.00  0.00    +0.000 F 
ATOM     24  F   UNL     1      46.495   4.153  16.384  0.00  0.00    +0.000 F 
ENDBRANCH  15  22
ENDBRANCH  14  19
ENDBRANCH   1  14
TORSDOF 5
ENDMDL
MODEL 2
REMARK VINA RESULT:    -7.583      2.284      2.757
REMARK INTER + INTRA:         -10.554
REMARK INTER:                  -9.830
REMARK INTRA:                  -0.724
REMARK UNBOUND:                -0.754
REMARK  Name = 
REMARK  5 active torsions:
REMARK  status: ('A' for Active; 'I' for Inactive)
REMARK    1  A    between atoms: C_2  and  C_5
REMARK    2  A    between atoms: C_9  and  O_10
REMARK    3  A    between atoms: O_10  and  C_11
REMARK    4  A    between atoms: C_11  and  C_12
REMARK    5  A    between atoms: C_14  and  C_15
REMARK                            x       y       z     vdW  Elec       q    Type
REMARK                         _______ _______ _______ _____ _____    ______ ____
ROOT
ATOM      1  C   UNL     1      43.941   6.320  11.338  0.00  0.00    +0.000 C 
ENDROOT
BRANCH   1   2
ATOM      2  C   UNL     1      44.091   4.878  10.921  0.00  0.00    +0.000 A 
ATOM      3  C   UNL     1      44.904   4.549   9.838  0.00  0.00    +0.000 A 
ATOM      4  C   UNL     1      44.967   3.224   9.379  0.00  0.00    +0.000 A 
ATOM      5  C   UNL     1      44.200   2.276  10.069  0.00  0.00    +0.000 A 
ATOM      6  C   UNL     1      43.434   2.678  11.151  0.00  0.00    +0.000 A 
ATOM      7  N   UNL     1      43.362   3.950  11.588  0.00  0.00    +0.000 NA
BRANCH   4   8
ATOM      8  C   UNL     1      45.792   2.855   8.215  0.00  0.00    +0.000 A 
ATOM      9  N   UNL     1      45.946   3.772   7.237  0.00  0.00    +0.000 NA
ATOM     10  C   UNL     1      46.706   3.413   6.186  0.00  0.00    +0.000 A 
ATOM     11  C   UNL     1      47.310   2.186   6.072  0.00  0.00    +0.000 A 
ATOM     12  C   UNL     1      47.089   1.319   7.115  0.00  0.00    +0.000 A 
ATOM     13  N   UNL     1      46.340   1.622   8.191  0.00  0.00    +0.000 NA
ENDBRANCH   4   8
ENDBRANCH   1   2
BRANCH   1  14
ATOM     14  O   UNL     1      44.305   6.499  12.713  0.00  0.00    +0.000 OA
BRANCH  14  19
ATOM     15  C   UNL     1      47.839   6.986  12.571  0.00  0.00    +0.000 A 
ATOM     16  N   UNL     1      48.319   5.920  13.255  0.00  0.00    +0.000 NA
ATOM     17  C   UNL     1      47.412   5.059  13.759  0.00  0.00    +0.000 A 
ATOM     18  C   UNL     1      46.054   5.208  13.614  0.00  0.00    +0.000 A 
ATOM     19  C   UNL     1      45.660   6.311  12.903  0.00  0.00    +0.000 A 
ATOM     20  N   UNL     1      46.520   7.201  12.376  0.00  0.00    +0.000 NA
BRANCH  15  22
ATOM     21  F   UNL     1      49.625   7.525  11.002  0.00  0.00    +0.000 F 
ATOM     22  C   UNL     1      48.809   8.015  11.982  0.00  0.00    +0.000 C 
ATOM     23  F   UNL     1      49.651   8.550  12.920  0.00  0.00    +0.000 F 
ATOM     24  F   UNL     1      48.169   9.086  11.418  0.00  0.00    +0.000 F 
ENDBRANCH  15  22
ENDBRANCH  14  19
ENDBRANCH   1  14
TORSDOF 5
ENDMDL
MODEL 3
REMARK VINA RESULT:    -7.571      3.477      7.445
REMARK INTER + INTRA:         -10.538
REMARK INTER:                  -9.822
REMARK INTRA:                  -0.715
REMARK UNBOUND:                -0.754
REMARK  Name = 
REMARK  5 active torsions:
REMARK  status: ('A' for Active; 'I' for Inactive)
REMARK    1  A    between atoms: C_2  and  C_5
REMARK    2  A    between atoms: C_9  and  O_10
REMARK    3  A    between atoms: O_10  and  C_11
REMARK    4  A    between atoms: C_11  and  C_12
REMARK    5  A    between atoms: C_14  and  C_15
REMARK                            x       y       z     vdW  Elec       q    Type
REMARK                         _______ _______ _______ _____ _____    ______ ____
ROOT
ATOM      1  C   UNL     1      44.242   5.011  11.934  0.00  0.00    +0.000 C 
ENDROOT
BRANCH   1   2
ATOM      2  C   UNL     1      45.569   5.399  12.537  0.00  0.00    +0.000 A 
ATOM      3  C   UNL     1      45.985   4.821  13.735  0.00  0.00    +0.000 A 
ATOM      4  C   UNL     1      47.168   5.252  14.355  0.00  0.00    +0.000 A 
ATOM      5  C   UNL     1      47.895   6.257  13.704  0.00  0.00    +0.000 A 
ATOM      6  C   UNL     1      47.429   6.765  12.503  0.00  0.00    +0.000 A 
ATOM      7  N   UNL     1      46.288   6.362  11.910  0.00  0.00    +0.000 NA
BRANCH   4   8
ATOM      8  C   UNL     1      47.612   4.682  15.640  0.00  0.00    +0.000 A 
ATOM      9  N   UNL     1      46.855   3.710  16.191  0.00  0.00    +0.000 NA
ATOM     10  C   UNL     1      47.282   3.204  17.363  0.00  0.00    +0.000 A 
ATOM     11  C   UNL     1      48.422   3.626  18.000  0.00  0.00    +0.000 A 
ATOM     12  C   UNL     1      49.121   4.623  17.363  0.00  0.00    +0.000 A 
ATOM     13  N   UNL     1      48.743   5.168  16.192  0.00  0.00    +0.000 NA
ENDBRANCH   4   8
ENDBRANCH   1   2
BRANCH   1  14
ATOM     14  O   UNL     1      44.234   5.232  10.519  0.00  0.00    +0.000 OA
BRANCH  14  19
ATOM     15  C   UNL     1      45.826   3.091   8.146  0.00  0.00    +0.000 A 
ATOM     16  N   UNL     1      45.331   1.869   8.462  0.00  0.00    +0.000 NA
ATOM     17  C   UNL     1      44.464   1.809   9.493  0.00  0.00    +0.000 A 
ATOM     18  C   UNL     1      44.067   2.903  10.223  0.00  0.00    +0.000 A 
ATOM     19  C   UNL     1      44.614   4.097   9.829  0.00  0.00    +0.000 A 
ATOM     20  N   UNL     1      45.480   4.217   8.807  0.00  0.00    +0.000 NA
BRANCH  15  22
ATOM     21  F   UNL     1      46.325   2.911   5.767  0.00  0.00    +0.000 F 
ATOM     22  C   UNL     1      46.827   3.235   6.996  0.00  0.00    +0.000 C 
ATOM     23  F   UNL     1      47.935   2.447   7.154  0.00  0.00    +0.000 F 
ATOM     24  F   UNL     1      47.306   4.511   6.866  0.00  0.00    +0.000 F 
ENDBRANCH  15  22
ENDBRANCH  14  19
ENDBRANCH   1  14
TORSDOF 5
ENDMDL
MODEL 4
REMARK VINA RESULT:    -7.472      3.538      6.697
REMARK INTER + INTRA:         -10.411
REMARK INTER:                 -10.041
REMARK INTRA:                  -0.370
REMARK UNBOUND:                -0.754
REMARK  Name = 
REMARK  5 active torsions:
REMARK  status: ('A' for Active; 'I' for Inactive)
REMARK    1  A    between atoms: C_2  and  C_5
REMARK    2  A    between atoms: C_9  and  O_10
REMARK    3  A    between atoms: O_10  and  C_11
REMARK    4  A    between atoms: C_11  and  C_12
REMARK    5  A    between atoms: C_14  and  C_15
REMARK                            x       y       z     vdW  Elec       q    Type
REMARK                         _______ _______ _______ _____ _____    ______ ____
ROOT
ATOM      1  C   UNL     1      43.557   3.673  11.383  0.00  0.00    +0.000 C 
ENDROOT
BRANCH   1   2
ATOM      2  C   UNL     1      44.772   4.152  12.139  0.00  0.00    +0.000 A 
ATOM      3  C   UNL     1      45.236   5.453  11.959  0.00  0.00    +0.000 A 
ATOM      4  C   UNL     1      46.424   5.873  12.578  0.00  0.00    +0.000 A 
ATOM      5  C   UNL     1      47.086   4.935  13.382  0.00  0.00    +0.000 A 
ATOM      6  C   UNL     1      46.549   3.667  13.531  0.00  0.00    +0.000 A 
ATOM      7  N   UNL     1      45.415   3.257  12.929  0.00  0.00    +0.000 NA
BRANCH   4   8
ATOM      8  C   UNL     1      46.955   7.233  12.375  0.00  0.00    +0.000 A 
ATOM      9  N   UNL     1      46.142   8.273  12.653  0.00  0.00    +0.000 NA
ATOM     10  C   UNL     1      46.650   9.505  12.463  0.00  0.00    +0.000 A 
ATOM     11  C   UNL     1      47.924   9.736  12.010  0.00  0.00    +0.000 A 
ATOM     12  C   UNL     1      48.673   8.614  11.750  0.00  0.00    +0.000 A 
ATOM     13  N   UNL     1      48.219   7.359  11.921  0.00  0.00    +0.000 NA
ENDBRANCH   4   8
ENDBRANCH   1   2
BRANCH   1  14
ATOM     14  O   UNL     1      43.852   2.491  10.630  0.00  0.00    +0.000 OA
BRANCH  14  19
ATOM     15  C   UNL     1      46.135   2.155   7.905  0.00  0.00    +0.000 A 
ATOM     16  N   UNL     1      46.087   3.375   7.317  0.00  0.00    +0.000 NA
ATOM     17  C   UNL     1      45.260   4.286   7.868  0.00  0.00    +0.000 A 
ATOM     18  C   UNL     1      44.482   4.042   8.974  0.00  0.00    +0.000 A 
ATOM     19  C   UNL     1      44.600   2.784   9.505  0.00  0.00    +0.000 A 
ATOM     20  N   UNL     1      45.410   1.837   8.999  0.00  0.00    +0.000 NA
BRANCH  15  22
ATOM     21  F   UNL     1      48.371   1.375   7.326  0.00  0.00    +0.000 F 
ATOM     22  C   UNL     1      47.041   1.064   7.325  0.00  0.00    +0.000 C 
ATOM     23  F   UNL     1      46.741   0.760   6.024  0.00  0.00    +0.000 F 
ATOM     24  F   UNL     1      46.946  -0.121   8.004  0.00  0.00    +0.000 F 
ENDBRANCH  15  22
ENDBRANCH  14  19
ENDBRANCH   1  14
TORSDOF 5
ENDMDL
MODEL 5
REMARK VINA RESULT:    -7.179      1.609      2.189
REMARK INTER + INTRA:         -10.032
REMARK INTER:                  -9.392
REMARK INTRA:                  -0.640
REMARK UNBOUND:                -0.754
REMARK  Name = 
REMARK  5 active torsions:
REMARK  status: ('A' for Active; 'I' for Inactive)
REMARK    1  A    between atoms: C_2  and  C_5
REMARK    2  A    between atoms: C_9  and  O_10
REMARK    3  A    between atoms: O_10  and  C_11
REMARK    4  A    between atoms: C_11  and  C_12
REMARK    5  A    between atoms: C_14  and  C_15
REMARK                            x       y       z     vdW  Elec       q    Type
REMARK                         _______ _______ _______ _____ _____    ______ ____
ROOT
ATOM      1  C   UNL     1      45.910   6.686  13.010  0.00  0.00    +0.000 C 
ENDROOT
BRANCH   1   2
ATOM      2  C   UNL     1      45.073   5.843  12.080  0.00  0.00    +0.000 A 
ATOM      3  C   UNL     1      45.686   5.102  11.072  0.00  0.00    +0.000 A 
ATOM      4  C   UNL     1      44.909   4.398  10.140  0.00  0.00    +0.000 A 
ATOM      5  C   UNL     1      43.518   4.468  10.292  0.00  0.00    +0.000 A 
ATOM      6  C   UNL     1      42.984   5.207  11.335  0.00  0.00    +0.000 A 
ATOM      7  N   UNL     1      43.727   5.893  12.225  0.00  0.00    +0.000 NA
BRANCH   4   8
ATOM      8  C   UNL     1      45.531   3.635   9.042  0.00  0.00    +0.000 A 
ATOM      9  N   UNL     1      45.555   2.290   9.147  0.00  0.00    +0.000 NA
ATOM     10  C   UNL     1      46.125   1.615   8.132  0.00  0.00    +0.000 A 
ATOM     11  C   UNL     1      46.669   2.224   7.029  0.00  0.00    +0.000 A 
ATOM     12  C   UNL     1      46.602   3.596   7.017  0.00  0.00    +0.000 A 
ATOM     13  N   UNL     1      46.044   4.324   8.002  0.00  0.00    +0.000 NA
ENDBRANCH   4   8
ENDBRANCH   1   2
BRANCH   1  14
ATOM     14  O   UNL     1      47.291   6.311  12.944  0.00  0.00    +0.000 OA
BRANCH  14  19
ATOM     15  C   UNL     1      48.135   4.865  16.097  0.00  0.00    +0.000 A 
ATOM     16  N   UNL     1      48.864   5.841  16.693  0.00  0.00    +0.000 NA
ATOM     17  C   UNL     1      49.055   6.975  15.989  0.00  0.00    +0.000 A 
ATOM     18  C   UNL     1      48.558   7.184  14.726  0.00  0.00    +0.000 A 
ATOM     19  C   UNL     1      47.830   6.146  14.206  0.00  0.00    +0.000 A 
ATOM     20  N   UNL     1      47.604   4.994  14.862  0.00  0.00    +0.000 NA
BRANCH  15  22
ATOM     21  F   UNL     1      48.644   3.371  17.955  0.00  0.00    +0.000 F 
ATOM     22  C   UNL     1      47.889   3.542  16.830  0.00  0.00    +0.000 C 
ATOM     23  F   UNL     1      48.147   2.447  16.051  0.00  0.00    +0.000 F 
ATOM     24  F   UNL     1      46.591   3.397  17.240  0.00  0.00    +0.000 F 
ENDBRANCH  15  22
ENDBRANCH  14  19
ENDBRANCH   1  14
TORSDOF 5
ENDMDL
MODEL 6
REMARK VINA RESULT:    -7.078      3.424      6.736
REMARK INTER + INTRA:          -9.902
REMARK INTER:                  -9.122
REMARK INTRA:                  -0.779
REMARK UNBOUND:                -0.754
REMARK  Name = 
REMARK  5 active torsions:
REMARK  status: ('A' for Active; 'I' for Inactive)
REMARK    1  A    between atoms: C_2  and  C_5
REMARK    2  A    between atoms: C_9  and  O_10
REMARK    3  A    between atoms: O_10  and  C_11
REMARK    4  A    between atoms: C_11  and  C_12
REMARK    5  A    between atoms: C_14  and  C_15
REMARK                            x       y       z     vdW  Elec       q    Type
REMARK                         _______ _______ _______ _____ _____    ______ ____
ROOT
ATOM      1  C   UNL     1      43.781   4.980  11.913  0.00  0.00    +0.000 C 
ENDROOT
BRANCH   1   2
ATOM      2  C   UNL     1      45.076   5.261  12.633  0.00  0.00    +0.000 A 
ATOM      3  C   UNL     1      45.891   6.311  12.215  0.00  0.00    +0.000 A 
ATOM      4  C   UNL     1      47.145   6.514  12.813  0.00  0.00    +0.000 A 
ATOM      5  C   UNL     1      47.507   5.633  13.841  0.00  0.00    +0.000 A 
ATOM      6  C   UNL     1      46.632   4.628  14.216  0.00  0.00    +0.000 A 
ATOM      7  N   UNL     1      45.433   4.423  13.637  0.00  0.00    +0.000 NA
BRANCH   4   8
ATOM      8  C   UNL     1      48.041   7.595  12.366  0.00  0.00    +0.000 A 
ATOM      9  N   UNL     1      49.347   7.298  12.194  0.00  0.00    +0.000 NA
ATOM     10  C   UNL     1      50.145   8.301  11.783  0.00  0.00    +0.000 A 
ATOM     11  C   UNL     1      49.697   9.575  11.540  0.00  0.00    +0.000 A 
ATOM     12  C   UNL     1      48.354   9.779  11.748  0.00  0.00    +0.000 A 
ATOM     13  N   UNL     1      47.508   8.816  12.159  0.00  0.00    +0.000 NA
ENDBRANCH   4   8
ENDBRANCH   1   2
BRANCH   1  14
ATOM     14  O   UNL     1      43.916   5.206  10.504  0.00  0.00    +0.000 OA
BRANCH  14  19
ATOM     15  C   UNL     1      45.804   3.164   8.265  0.00  0.00    +0.000 A 
ATOM     16  N   UNL     1      45.402   1.910   8.587  0.00  0.00    +0.000 NA
ATOM     17  C   UNL     1      44.493   1.795   9.576  0.00  0.00    +0.000 A 
ATOM     18  C   UNL     1      43.966   2.865  10.258  0.00  0.00    +0.000 A 
ATOM     19  C   UNL     1      44.427   4.094   9.862  0.00  0.00    +0.000 A 
ATOM     20  N   UNL     1      45.329   4.269   8.880  0.00  0.00    +0.000 NA
BRANCH  15  22
ATOM     21  F   UNL     1      46.349   3.277   5.892  0.00  0.00    +0.000 F 
ATOM     22  C   UNL     1      46.845   3.372   7.161  0.00  0.00    +0.000 C 
ATOM     23  F   UNL     1      47.869   2.465   7.219  0.00  0.00    +0.000 F 
ATOM     24  F   UNL     1      47.447   4.600   7.223  0.00  0.00    +0.000 F 
ENDBRANCH  15  22
ENDBRANCH  14  19
ENDBRANCH   1  14
TORSDOF 5
ENDMDL
MODEL 7
REMARK VINA RESULT:    -6.876      3.331      7.428
REMARK INTER + INTRA:          -9.640
REMARK INTER:                  -8.938
REMARK INTRA:                  -0.702
REMARK UNBOUND:                -0.754
REMARK  Name = 
REMARK  5 active torsions:
REMARK  status: ('A' for Active; 'I' for Inactive)
REMARK    1  A    between atoms: C_2  and  C_5
REMARK    2  A    between atoms: C_9  and  O_10
REMARK    3  A    between atoms: O_10  and  C_11
REMARK    4  A    between atoms: C_11  and  C_12
REMARK    5  A    between atoms: C_14  and  C_15
REMARK                            x       y       z     vdW  Elec       q    Type
REMARK                         _______ _______ _______ _____ _____    ______ ____
ROOT
ATOM      1  C   UNL     1      46.476   6.646  11.828  0.00  0.00    +0.000 C 
ENDROOT
BRANCH   1   2
ATOM      2  C   UNL     1      47.391   6.765  13.021  0.00  0.00    +0.000 A 
ATOM      3  C   UNL     1      47.421   5.752  13.978  0.00  0.00    +0.000 A 
ATOM      4  C   UNL     1      48.190   5.902  15.143  0.00  0.00    +0.000 A 
ATOM      5  C   UNL     1      48.921   7.091  15.271  0.00  0.00    +0.000 A 
ATOM      6  C   UNL     1      48.859   8.040  14.265  0.00  0.00    +0.000 A 
ATOM      7  N   UNL     1      48.112   7.905  13.151  0.00  0.00    +0.000 NA
BRANCH   4   8
ATOM      8  C   UNL     1      48.211   4.862  16.187  0.00  0.00    +0.000 A 
ATOM      9  N   UNL     1      47.083   4.148  16.386  0.00  0.00    +0.000 NA
ATOM     10  C   UNL     1      47.128   3.203  17.342  0.00  0.00    +0.000 A 
ATOM     11  C   UNL     1      48.242   2.945  18.101  0.00  0.00    +0.000 A 
ATOM     12  C   UNL     1      49.338   3.727  17.828  0.00  0.00    +0.000 A 
ATOM     13  N   UNL     1      49.353   4.687  16.884  0.00  0.00    +0.000 NA
ENDBRANCH   4   8
ENDBRANCH   1   2
BRANCH   1  14
ATOM     14  O   UNL     1      45.152   6.273  12.229  0.00  0.00    +0.000 OA
BRANCH  14  19
ATOM     15  C   UNL     1      44.829   3.725   9.748  0.00  0.00    +0.000 A 
ATOM     16  N   UNL     1      43.869   2.919  10.265  0.00  0.00    +0.000 NA
ATOM     17  C   UNL     1      43.360   3.268  11.464  0.00  0.00    +0.000 A 
ATOM     18  C   UNL     1      43.757   4.377  12.170  0.00  0.00    +0.000 A 
ATOM     19  C   UNL     1      44.728   5.136  11.568  0.00  0.00    +0.000 A 
ATOM     20  N   UNL     1      45.269   4.838  10.374  0.00  0.00    +0.000 NA
BRANCH  15  22
ATOM     21  F   UNL     1      46.379   4.299   7.957  0.00  0.00    +0.000 F 
ATOM     22  C   UNL     1      45.465   3.384   8.397  0.00  0.00    +0.000 C 
ATOM     23  F   UNL     1      44.546   3.277   7.388  0.00  0.00    +0.000 F 
ATOM     24  F   UNL     1      46.129   2.187   8.410  0.00  0.00    +0.000 F 
ENDBRANCH  15  22
ENDBRANCH  14  19
ENDBRANCH   1  14
TORSDOF 5
ENDMDL
MODEL 8
REMARK VINA RESULT:    -6.757      2.344      3.981
REMARK INTER + INTRA:          -9.487
REMARK INTER:                  -8.804
REMARK INTRA:                  -0.683
REMARK UNBOUND:                -0.754
REMARK  Name = 
REMARK  5 active torsions:
REMARK  status: ('A' for Active; 'I' for Inactive)
REMARK    1  A    between atoms: C_2  and  C_5
REMARK    2  A    between atoms: C_9  and  O_10
REMARK    3  A    between atoms: O_10  and  C_11
REMARK    4  A    between atoms: C_11  and  C_12
REMARK    5  A    between atoms: C_14  and  C_15
REMARK                            x       y       z     vdW  Elec       q    Type
REMARK                         _______ _______ _______ _____ _____    ______ ____
ROOT
ATOM      1  C   UNL     1      48.284   7.566  13.759  0.00  0.00    +0.000 C 
ENDROOT
BRANCH   1   2
ATOM      2  C   UNL     1      47.013   7.497  12.949  0.00  0.00    +0.000 A 
ATOM      3  C   UNL     1      46.750   6.379  12.160  0.00  0.00    +0.000 A 
ATOM      4  C   UNL     1      45.622   6.352  11.325  0.00  0.00    +0.000 A 
ATOM      5  C   UNL     1      44.789   7.478  11.348  0.00  0.00    +0.000 A 
ATOM      6  C   UNL     1      45.105   8.541  12.178  0.00  0.00    +0.000 A 
ATOM      7  N   UNL     1      46.192   8.576  12.972  0.00  0.00    +0.000 NA
BRANCH   4   8
ATOM      8  C   UNL     1      45.341   5.196  10.454  0.00  0.00    +0.000 A 
ATOM      9  N   UNL     1      45.742   5.266   9.168  0.00  0.00    +0.000 NA
ATOM     10  C   UNL     1      45.477   4.199   8.393  0.00  0.00    +0.000 A 
ATOM     11  C   UNL     1      44.831   3.076   8.847  0.00  0.00    +0.000 A 
ATOM     12  C   UNL     1      44.456   3.102  10.169  0.00  0.00    +0.000 A 
ATOM     13  N   UNL     1      44.695   4.141  10.991  0.00  0.00    +0.000 NA
ENDBRANCH   4   8
ENDBRANCH   1   2
BRANCH   1  14
ATOM     14  O   UNL     1      48.757   6.254  14.089  0.00  0.00    +0.000 OA
BRANCH  14  19
ATOM     15  C   UNL     1      48.243   4.528  17.172  0.00  0.00    +0.000 A 
ATOM     16  N   UNL     1      48.362   5.514  18.094  0.00  0.00    +0.000 NA
ATOM     17  C   UNL     1      48.625   6.753  17.633  0.00  0.00    +0.000 A 
ATOM     18  C   UNL     1      48.775   7.057  16.302  0.00  0.00    +0.000 A 
ATOM     19  C   UNL     1      48.633   5.999  15.441  0.00  0.00    +0.000 A 
ATOM     20  N   UNL     1      48.367   4.745  15.844  0.00  0.00    +0.000 NA
BRANCH  15  22
ATOM     21  F   UNL     1      48.589   2.132  16.881  0.00  0.00    +0.000 F 
ATOM     22  C   UNL     1      47.959   3.091  17.622  0.00  0.00    +0.000 C 
ATOM     23  F   UNL     1      46.629   2.772  17.573  0.00  0.00    +0.000 F 
ATOM     24  F   UNL     1      48.340   2.857  18.916  0.00  0.00    +0.000 F 
ENDBRANCH  15  22
ENDBRANCH  14  19
ENDBRANCH   1  14
TORSDOF 5
ENDMDL
