MODEL 1
REMARK VINA RESULT:    -9.124      0.000      0.000
REMARK INTER + INTRA:         -14.016
REMARK INTER:                 -12.858
REMARK INTRA:                  -1.158
REMARK UNBOUND:                -1.158
REMARK  Name = 
REMARK  7 active torsions:
REMARK  status: ('A' for Active; 'I' for Inactive)
REMARK    1  A    between atoms: C_2  and  C_4
REMARK    2  A    between atoms: C_7  and  O_8
REMARK    3  A    between atoms: O_8  and  C_9
REMARK    4  A    between atoms: C_9  and  C_10
REMARK    5  A    between atoms: C_10  and  C_13
REMARK    6  A    between atoms: C_18  and  O_19
REMARK    7  A    between atoms: O_19  and  C_20
REMARK                            x       y       z     vdW  Elec       q    Type
REMARK                         _______ _______ _______ _____ _____    ______ ____
ROOT
ATOM      1  C   UNL     1      43.890   4.635  12.501  0.00  0.00    +0.000 C 
ATOM      2  F   UNL     1      42.983   5.304  13.271  0.00  0.00    +0.000 F 
ATOM      3  F   UNL     1      43.794   3.325  12.876  0.00  0.00    +0.000 F 
ENDROOT
BRANCH   1   4
ATOM      4  C   UNL     1      45.295   5.172  12.706  0.00  0.00    +0.000 A 
ATOM      5  C   UNL     1      45.888   6.008  11.752  0.00  0.00    +0.000 A 
ATOM      6  C   UNL     1      47.171   6.504  11.967  0.00  0.00    +0.000 A 
ATOM      7  F   UNL     1      47.718   7.314  11.053  0.00  0.00    +0.000 F 
ATOM      8  C   UNL     1      47.894   6.180  13.113  0.00  0.00    +0.000 A 
ATOM      9  C   UNL     1      47.321   5.338  14.059  0.00  0.00    +0.000 A 
ATOM     10  C   UNL     1      46.027   4.843  13.860  0.00  0.00    +0.000 A 
BRANCH   9  11
ATOM     11  O   UNL     1      47.910   4.958  15.238  0.00  0.00    +0.000 OA
BRANCH  11  12
ATOM     12  C   UNL     1      47.252   3.979  16.073  0.00  0.00    +0.000 C 
ATOM     13  C   UNL     1      47.151   4.267  17.577  0.00  0.00    +0.000 C 
ATOM     14  O   UNL     1      47.892   3.074  17.916  0.00  0.00    +0.000 OA
ATOM     15  C   UNL     1      48.137   2.804  16.517  0.00  0.00    +0.000 C 
ENDBRANCH  11  12
ENDBRANCH   9  11
ENDBRANCH   1   4
BRANCH   1  16
ATOM     16  C   UNL     1      43.473   4.760  11.025  0.00  0.00    +0.000 C 
BRANCH  16  17
ATOM     17  O   UNL     1      43.515   3.477  10.384  0.00  0.00    +0.000 OA
BRANCH  17  21
ATOM     18  C   UNL     1      46.453   2.636   7.545  0.00  0.00    +0.000 A 
ATOM     19  C   UNL     1      46.002   3.955   7.667  0.00  0.00    +0.000 A 
ATOM     20  C   UNL     1      45.016   4.280   8.608  0.00  0.00    +0.000 A 
ATOM     21  C   UNL     1      44.477   3.290   9.432  0.00  0.00    +0.000 A 
ATOM     22  C   UNL     1      44.923   1.971   9.300  0.00  0.00    +0.000 A 
ATOM     23  C   UNL     1      45.902   1.642   8.359  0.00  0.00    +0.000 A 
BRANCH  18  25
ATOM     24  N   UNL     1      47.540   2.981   5.393  0.00  0.00    +0.000 N 
ATOM     25  C   UNL     1      47.488   2.255   6.552  0.00  0.00    +0.000 C 
ATOM     26  O   UNL     1      48.289   1.354   6.768  0.00  0.00    +0.000 OA
ATOM     27  H   UNL     1      48.319   2.780   4.778  0.00  0.00    +0.000 HD
ATOM     28  H   UNL     1      47.088   3.878   5.298  0.00  0.00    +0.000 HD
ENDBRANCH  18  25
ENDBRANCH  17  21
ENDBRANCH  16  17
ENDBRANCH   1  16
TORSDOF 7
ENDMDL
MODEL 2
REMARK VINA RESULT:    -7.285      2.254      3.324
REMARK INTER + INTRA:         -11.425
REMARK INTER:                 -10.639
REMARK INTRA:                  -0.785
REMARK UNBOUND:                -1.158
REMARK  Name = 
REMARK  7 active torsions:
REMARK  status: ('A' for Active; 'I' for Inactive)
REMARK    1  A    between atoms: C_2  and  C_4
REMARK    2  A    between atoms: C_7  and  O_8
REMARK    3  A    between atoms: O_8  and  C_9
REMARK    4  A    between atoms: C_9  and  C_10
REMARK    5  A    between atoms: C_10  and  C_13
REMARK    6  A    between atoms: C_18  and  O_19
REMARK    7  A    between atoms: O_19  and  C_20
REMARK                            x       y       z     vdW  Elec       q    Type
REMARK                         _______ _______ _______ _____ _____    ______ ____
ROOT
ATOM      1  C   UNL     1      44.330   5.510  12.004  0.00  0.00    +0.000 C 
ATOM      2  F   UNL     1      44.364   6.299  10.889  0.00  0.00    +0.000 F 
ATOM      3  F   UNL     1      43.202   5.879  12.679  0.00  0.00    +0.000 F 
ENDROOT
BRANCH   1   4
ATOM      4  C   UNL     1      45.575   5.695  12.851  0.00  0.00    +0.000 A 
ATOM      5  C   UNL     1      45.991   4.696  13.740  0.00  0.00    +0.000 A 
ATOM      6  C   UNL     1      47.145   4.879  14.496  0.00  0.00    +0.000 A 
ATOM      7  F   UNL     1      47.539   3.908  15.331  0.00  0.00    +0.000 F 
ATOM      8  C   UNL     1      47.902   6.045  14.401  0.00  0.00    +0.000 A 
ATOM      9  C   UNL     1      47.489   7.049  13.534  0.00  0.00    +0.000 A 
ATOM     10  C   UNL     1      46.337   6.872  12.759  0.00  0.00    +0.000 A 
BRANCH   9  11
ATOM     11  O   UNL     1      48.150   8.233  13.326  0.00  0.00    +0.000 OA
BRANCH  11  12
ATOM     12  C   UNL     1      49.042   8.732  14.348  0.00  0.00    +0.000 C 
ATOM     13  C   UNL     1      49.205  10.252  14.482  0.00  0.00    +0.000 C 
ATOM     14  O   UNL     1      50.624  10.183  14.220  0.00  0.00    +0.000 OA
ATOM     15  C   UNL     1      50.527   8.766  13.953  0.00  0.00    +0.000 C 
ENDBRANCH  11  12
ENDBRANCH   9  11
ENDBRANCH   1   4
BRANCH   1  16
ATOM     16  C   UNL     1      44.187   4.042  11.565  0.00  0.00    +0.000 C 
BRANCH  16  17
ATOM     17  O   UNL     1      43.778   3.969  10.192  0.00  0.00    +0.000 OA
BRANCH  17  21
ATOM     18  C   UNL     1      46.640   2.610   7.478  0.00  0.00    +0.000 A 
ATOM     19  C   UNL     1      46.402   3.986   7.563  0.00  0.00    +0.000 A 
ATOM     20  C   UNL     1      45.449   4.484   8.461  0.00  0.00    +0.000 A 
ATOM     21  C   UNL     1      44.730   3.610   9.279  0.00  0.00    +0.000 A 
ATOM     22  C   UNL     1      44.963   2.235   9.184  0.00  0.00    +0.000 A 
ATOM     23  C   UNL     1      45.908   1.734   8.286  0.00  0.00    +0.000 A 
BRANCH  18  25
ATOM     24  N   UNL     1      47.977   2.819   5.453  0.00  0.00    +0.000 N 
ATOM     25  C   UNL     1      47.634   2.048   6.529  0.00  0.00    +0.000 C 
ATOM     26  O   UNL     1      48.155   0.956   6.715  0.00  0.00    +0.000 OA
ATOM     27  H   UNL     1      48.734   2.468   4.879  0.00  0.00    +0.000 HD
ATOM     28  H   UNL     1      47.778   3.807   5.412  0.00  0.00    +0.000 HD
ENDBRANCH  18  25
ENDBRANCH  17  21
ENDBRANCH  16  17
ENDBRANCH   1  16
TORSDOF 7
ENDMDL
MODEL 3
REMARK VINA RESULT:    -7.167      3.136      7.829
REMARK INTER + INTRA:         -11.258
REMARK INTER:                 -10.347
REMARK INTRA:                  -0.912
REMARK UNBOUND:                -1.158
REMARK  Name = 
REMARK  7 active torsions:
REMARK  status: ('A' for Active; 'I' for Inactive)
REMARK    1  A    between atoms: C_2  and  C_4
REMARK    2  A    between atoms: C_7  and  O_8
REMARK    3  A    between atoms: O_8  and  C_9
REMARK    4  A    between atoms: C_9  and  C_10
REMARK    5  A    between atoms: C_10  and  C_13
REMARK    6  A    between atoms: C_18  and  O_19
REMARK    7  A    between atoms: O_19  and  C_20
REMARK                            x       y       z     vdW  Elec       q    Type
REMARK                         _______ _______ _______ _____ _____    ______ ____
ROOT
ATOM      1  C   UNL     1      45.173   6.635  11.577  0.00  0.00    +0.000 C 
ATOM      2  F   UNL     1      44.450   6.586  12.735  0.00  0.00    +0.000 F 
ATOM      3  F   UNL     1      44.693   7.714  10.891  0.00  0.00    +0.000 F 
ENDROOT
BRANCH   1   4
ATOM      4  C   UNL     1      45.025   5.354  10.778  0.00  0.00    +0.000 A 
ATOM      5  C   UNL     1      44.267   4.285  11.272  0.00  0.00    +0.000 A 
ATOM      6  C   UNL     1      44.130   3.125  10.516  0.00  0.00    +0.000 A 
ATOM      7  F   UNL     1      43.391   2.117  10.995  0.00  0.00    +0.000 F 
ATOM      8  C   UNL     1      44.740   2.991   9.270  0.00  0.00    +0.000 A 
ATOM      9  C   UNL     1      45.507   4.040   8.777  0.00  0.00    +0.000 A 
ATOM     10  C   UNL     1      45.642   5.216   9.523  0.00  0.00    +0.000 A 
BRANCH   9  11
ATOM     11  O   UNL     1      46.142   4.050   7.561  0.00  0.00    +0.000 OA
BRANCH  11  12
ATOM     12  C   UNL     1      46.292   2.810   6.833  0.00  0.00    +0.000 C 
ATOM     13  C   UNL     1      47.436   1.872   7.238  0.00  0.00    +0.000 C 
ATOM     14  O   UNL     1      48.035   1.938   5.925  0.00  0.00    +0.000 OA
ATOM     15  C   UNL     1      47.064   2.924   5.509  0.00  0.00    +0.000 C 
ENDBRANCH  11  12
ENDBRANCH   9  11
ENDBRANCH   1   4
BRANCH   1  16
ATOM     16  C   UNL     1      46.650   6.888  11.927  0.00  0.00    +0.000 C 
BRANCH  16  17
ATOM     17  O   UNL     1      47.289   5.662  12.308  0.00  0.00    +0.000 OA
BRANCH  17  21
ATOM     18  C   UNL     1      47.956   5.205  16.400  0.00  0.00    +0.000 A 
ATOM     19  C   UNL     1      47.148   4.266  15.747  0.00  0.00    +0.000 A 
ATOM     20  C   UNL     1      46.900   4.383  14.374  0.00  0.00    +0.000 A 
ATOM     21  C   UNL     1      47.455   5.438  13.646  0.00  0.00    +0.000 A 
ATOM     22  C   UNL     1      48.253   6.379  14.304  0.00  0.00    +0.000 A 
ATOM     23  C   UNL     1      48.499   6.269  15.674  0.00  0.00    +0.000 A 
BRANCH  18  25
ATOM     24  N   UNL     1      47.153   5.017  18.692  0.00  0.00    +0.000 N 
ATOM     25  C   UNL     1      48.231   5.117  17.856  0.00  0.00    +0.000 C 
ATOM     26  O   UNL     1      49.374   5.098  18.296  0.00  0.00    +0.000 OA
ATOM     27  H   UNL     1      47.362   4.848  19.669  0.00  0.00    +0.000 HD
ATOM     28  H   UNL     1      46.234   4.764  18.360  0.00  0.00    +0.000 HD
ENDBRANCH  18  25
ENDBRANCH  17  21
ENDBRANCH  16  17
ENDBRANCH   1  16
TORSDOF 7
ENDMDL
MODEL 4
REMARK VINA RESULT:    -6.306      3.654      7.818
REMARK INTER + INTRA:         -10.044
REMARK INTER:                  -9.437
REMARK INTRA:                  -0.607
REMARK UNBOUND:                -1.158
REMARK  Name = 
REMARK  7 active torsions:
REMARK  status: ('A' for Active; 'I' for Inactive)
REMARK    1  A    between atoms: C_2  and  C_4
REMARK    2  A    between atoms: C_7  and  O_8
REMARK    3  A    between atoms: O_8  and  C_9
REMARK    4  A    between atoms: C_9  and  C_10
REMARK    5  A    between atoms: C_10  and  C_13
REMARK    6  A    between atoms: C_18  and  O_19
REMARK    7  A    between atoms: O_19  and  C_20
REMARK                            x       y       z     vdW  Elec       q    Type
REMARK                         _______ _______ _______ _____ _____    ______ ____
ROOT
ATOM      1  C   UNL     1      45.206   6.334  11.604  0.00  0.00    +0.000 C 
ATOM      2  F   UNL     1      44.222   6.428  12.547  0.00  0.00    +0.000 F 
ATOM      3  F   UNL     1      45.111   7.476  10.861  0.00  0.00    +0.000 F 
ENDROOT
BRANCH   1   4
ATOM      4  C   UNL     1      45.035   5.094  10.747  0.00  0.00    +0.000 A 
ATOM      5  C   UNL     1      44.275   4.009  11.200  0.00  0.00    +0.000 A 
ATOM      6  C   UNL     1      44.117   2.887  10.392  0.00  0.00    +0.000 A 
ATOM      7  F   UNL     1      43.375   1.864  10.833  0.00  0.00    +0.000 F 
ATOM      8  C   UNL     1      44.708   2.807   9.132  0.00  0.00    +0.000 A 
ATOM      9  C   UNL     1      45.478   3.873   8.679  0.00  0.00    +0.000 A 
ATOM     10  C   UNL     1      45.633   5.011   9.478  0.00  0.00    +0.000 A 
BRANCH   9  11
ATOM     11  O   UNL     1      46.094   3.936   7.455  0.00  0.00    +0.000 OA
BRANCH  11  12
ATOM     12  C   UNL     1      46.319   2.714   6.714  0.00  0.00    +0.000 C 
ATOM     13  C   UNL     1      47.476   1.808   7.154  0.00  0.00    +0.000 C 
ATOM     14  O   UNL     1      48.129   1.918   5.870  0.00  0.00    +0.000 OA
ATOM     15  C   UNL     1      47.143   2.878   5.428  0.00  0.00    +0.000 C 
ENDBRANCH  11  12
ENDBRANCH   9  11
ENDBRANCH   1   4
BRANCH   1  16
ATOM     16  C   UNL     1      46.571   6.318  12.314  0.00  0.00    +0.000 C 
BRANCH  16  17
ATOM     17  O   UNL     1      47.514   7.131  11.602  0.00  0.00    +0.000 OA
BRANCH  17  21
ATOM     18  C   UNL     1      51.135   8.224  13.360  0.00  0.00    +0.000 A 
ATOM     19  C   UNL     1      50.102   7.771  14.188  0.00  0.00    +0.000 A 
ATOM     20  C   UNL     1      48.871   7.394  13.638  0.00  0.00    +0.000 A 
ATOM     21  C   UNL     1      48.664   7.468  12.259  0.00  0.00    +0.000 A 
ATOM     22  C   UNL     1      49.695   7.931  11.436  0.00  0.00    +0.000 A 
ATOM     23  C   UNL     1      50.923   8.313  11.981  0.00  0.00    +0.000 A 
BRANCH  18  25
ATOM     24  N   UNL     1      53.303   7.651  14.312  0.00  0.00    +0.000 N 
ATOM     25  C   UNL     1      52.449   8.642  13.911  0.00  0.00    +0.000 C 
ATOM     26  O   UNL     1      52.776   9.820  13.974  0.00  0.00    +0.000 OA
ATOM     27  H   UNL     1      54.233   7.948  14.581  0.00  0.00    +0.000 HD
ATOM     28  H   UNL     1      53.181   6.689  14.033  0.00  0.00    +0.000 HD
ENDBRANCH  18  25
ENDBRANCH  17  21
ENDBRANCH  16  17
ENDBRANCH   1  16
TORSDOF 7
ENDMDL
MODEL 5
REMARK VINA RESULT:    -6.231      3.258      4.793
REMARK INTER + INTRA:          -9.938
REMARK INTER:                  -8.755
REMARK INTRA:                  -1.183
REMARK UNBOUND:                -1.158
REMARK  Name = 
REMARK  7 active torsions:
REMARK  status: ('A' for Active; 'I' for Inactive)
REMARK    1  A    between atoms: C_2  and  C_4
REMARK    2  A    between atoms: C_7  and  O_8
REMARK    3  A    between atoms: O_8  and  C_9
REMARK    4  A    between atoms: C_9  and  C_10
REMARK    5  A    between atoms: C_10  and  C_13
REMARK    6  A    between atoms: C_18  and  O_19
REMARK    7  A    between atoms: O_19  and  C_20
REMARK                            x       y       z     vdW  Elec       q    Type
REMARK                         _______ _______ _______ _____ _____    ______ ____
ROOT
ATOM      1  C   UNL     1      48.335   8.338  12.565  0.00  0.00    +0.000 C 
ATOM      2  F   UNL     1      48.732   7.269  11.814  0.00  0.00    +0.000 F 
ATOM      3  F   UNL     1      49.116   9.382  12.157  0.00  0.00    +0.000 F 
ENDROOT
BRANCH   1   4
ATOM      4  C   UNL     1      48.500   8.064  14.048  0.00  0.00    +0.000 A 
ATOM      5  C   UNL     1      48.442   9.108  14.980  0.00  0.00    +0.000 A 
ATOM      6  C   UNL     1      48.578   8.833  16.338  0.00  0.00    +0.000 A 
ATOM      7  F   UNL     1      48.506   9.840  17.218  0.00  0.00    +0.000 F 
ATOM      8  C   UNL     1      48.782   7.535  16.802  0.00  0.00    +0.000 A 
ATOM      9  C   UNL     1      48.857   6.493  15.884  0.00  0.00    +0.000 A 
ATOM     10  C   UNL     1      48.709   6.756  14.517  0.00  0.00    +0.000 A 
BRANCH   9  11
ATOM     11  O   UNL     1      49.032   5.171  16.204  0.00  0.00    +0.000 OA
BRANCH  11  12
ATOM     12  C   UNL     1      47.876   4.305  16.279  0.00  0.00    +0.000 C 
ATOM     13  C   UNL     1      47.107   4.247  17.606  0.00  0.00    +0.000 C 
ATOM     14  O   UNL     1      47.345   2.829  17.750  0.00  0.00    +0.000 OA
ATOM     15  C   UNL     1      48.189   2.830  16.577  0.00  0.00    +0.000 C 
ENDBRANCH  11  12
ENDBRANCH   9  11
ENDBRANCH   1   4
BRANCH   1  16
ATOM     16  C   UNL     1      46.867   8.659  12.233  0.00  0.00    +0.000 C 
BRANCH  16  17
ATOM     17  O   UNL     1      45.988   7.849  13.026  0.00  0.00    +0.000 OA
BRANCH  17  21
ATOM     18  C   UNL     1      44.507   4.255  11.510  0.00  0.00    +0.000 A 
ATOM     19  C   UNL     1      44.723   5.315  10.622  0.00  0.00    +0.000 A 
ATOM     20  C   UNL     1      45.219   6.538  11.090  0.00  0.00    +0.000 A 
ATOM     21  C   UNL     1      45.502   6.710  12.447  0.00  0.00    +0.000 A 
ATOM     22  C   UNL     1      45.276   5.652  13.332  0.00  0.00    +0.000 A 
ATOM     23  C   UNL     1      44.776   4.432  12.871  0.00  0.00    +0.000 A 
BRANCH  18  25
ATOM     24  N   UNL     1      44.654   2.311  10.051  0.00  0.00    +0.000 N 
ATOM     25  C   UNL     1      43.972   2.949  11.050  0.00  0.00    +0.000 C 
ATOM     26  O   UNL     1      42.983   2.441  11.562  0.00  0.00    +0.000 OA
ATOM     27  H   UNL     1      44.339   1.375   9.826  0.00  0.00    +0.000 HD
ATOM     28  H   UNL     1      45.598   2.561   9.797  0.00  0.00    +0.000 HD
ENDBRANCH  18  25
ENDBRANCH  17  21
ENDBRANCH  16  17
ENDBRANCH   1  16
TORSDOF 7
ENDMDL
MODEL 6
REMARK VINA RESULT:    -6.172      3.139      7.526
REMARK INTER + INTRA:          -9.856
REMARK INTER:                  -8.940
REMARK INTRA:                  -0.916
REMARK UNBOUND:                -1.158
REMARK  Name = 
REMARK  7 active torsions:
REMARK  status: ('A' for Active; 'I' for Inactive)
REMARK    1  A    between atoms: C_2  and  C_4
REMARK    2  A    between atoms: C_7  and  O_8
REMARK    3  A    between atoms: O_8  and  C_9
REMARK    4  A    between atoms: C_9  and  C_10
REMARK    5  A    between atoms: C_10  and  C_13
REMARK    6  A    between atoms: C_18  and  O_19
REMARK    7  A    between atoms: O_19  and  C_20
REMARK                            x       y       z     vdW  Elec       q    Type
REMARK                         _______ _______ _______ _____ _____    ______ ____
ROOT
ATOM      1  C   UNL     1      45.656   7.643  12.165  0.00  0.00    +0.000 C 
ATOM      2  F   UNL     1      45.282   8.250  13.329  0.00  0.00    +0.000 F 
ATOM      3  F   UNL     1      45.397   8.552  11.179  0.00  0.00    +0.000 F 
ENDROOT
BRANCH   1   4
ATOM      4  C   UNL     1      44.896   6.349  11.945  0.00  0.00    +0.000 A 
ATOM      5  C   UNL     1      44.120   5.791  12.969  0.00  0.00    +0.000 A 
ATOM      6  C   UNL     1      43.417   4.611  12.742  0.00  0.00    +0.000 A 
ATOM      7  F   UNL     1      42.668   4.099  13.725  0.00  0.00    +0.000 F 
ATOM      8  C   UNL     1      43.471   3.956  11.513  0.00  0.00    +0.000 A 
ATOM      9  C   UNL     1      44.251   4.493  10.495  0.00  0.00    +0.000 A 
ATOM     10  C   UNL     1      44.952   5.685  10.708  0.00  0.00    +0.000 A 
BRANCH   9  11
ATOM     11  O   UNL     1      44.375   3.965   9.235  0.00  0.00    +0.000 OA
BRANCH  11  12
ATOM     12  C   UNL     1      45.660   3.465   8.803  0.00  0.00    +0.000 C 
ATOM     13  C   UNL     1      45.998   3.543   7.308  0.00  0.00    +0.000 C 
ATOM     14  O   UNL     1      46.156   2.111   7.207  0.00  0.00    +0.000 OA
ATOM     15  C   UNL     1      45.723   1.946   8.576  0.00  0.00    +0.000 C 
ENDBRANCH  11  12
ENDBRANCH   9  11
ENDBRANCH   1   4
BRANCH   1  16
ATOM     16  C   UNL     1      47.172   7.380  12.210  0.00  0.00    +0.000 C 
BRANCH  16  17
ATOM     17  O   UNL     1      47.431   6.021  12.589  0.00  0.00    +0.000 OA
BRANCH  17  21
ATOM     18  C   UNL     1      48.090   5.073  16.597  0.00  0.00    +0.000 A 
ATOM     19  C   UNL     1      48.689   6.227  16.078  0.00  0.00    +0.000 A 
ATOM     20  C   UNL     1      48.492   6.581  14.738  0.00  0.00    +0.000 A 
ATOM     21  C   UNL     1      47.699   5.785  13.908  0.00  0.00    +0.000 A 
ATOM     22  C   UNL     1      47.111   4.628  14.428  0.00  0.00    +0.000 A 
ATOM     23  C   UNL     1      47.309   4.268  15.763  0.00  0.00    +0.000 A 
BRANCH  18  25
ATOM     24  N   UNL     1      48.231   5.644  18.961  0.00  0.00    +0.000 N 
ATOM     25  C   UNL     1      48.286   4.662  18.010  0.00  0.00    +0.000 C 
ATOM     26  O   UNL     1      48.455   3.490  18.324  0.00  0.00    +0.000 OA
ATOM     27  H   UNL     1      48.257   5.332  19.924  0.00  0.00    +0.000 HD
ATOM     28  H   UNL     1      47.836   6.554  18.774  0.00  0.00    +0.000 HD
ENDBRANCH  18  25
ENDBRANCH  17  21
ENDBRANCH  16  17
ENDBRANCH   1  16
TORSDOF 7
ENDMDL
MODEL 7
REMARK VINA RESULT:    -6.157      3.573      5.581
REMARK INTER + INTRA:          -9.834
REMARK INTER:                  -9.166
REMARK INTRA:                  -0.668
REMARK UNBOUND:                -1.158
REMARK  Name = 
REMARK  7 active torsions:
REMARK  status: ('A' for Active; 'I' for Inactive)
REMARK    1  A    between atoms: C_2  and  C_4
REMARK    2  A    between atoms: C_7  and  O_8
REMARK    3  A    between atoms: O_8  and  C_9
REMARK    4  A    between atoms: C_9  and  C_10
REMARK    5  A    between atoms: C_10  and  C_13
REMARK    6  A    between atoms: C_18  and  O_19
REMARK    7  A    between atoms: O_19  and  C_20
REMARK                            x       y       z     vdW  Elec       q    Type
REMARK                         _______ _______ _______ _____ _____    ______ ____
ROOT
ATOM      1  C   UNL     1      49.221   7.847  14.530  0.00  0.00    +0.000 C 
ATOM      2  F   UNL     1      49.977   8.952  14.262  0.00  0.00    +0.000 F 
ATOM      3  F   UNL     1      48.022   8.323  14.978  0.00  0.00    +0.000 F 
ENDROOT
BRANCH   1   4
ATOM      4  C   UNL     1      49.888   6.955  15.561  0.00  0.00    +0.000 A 
ATOM      5  C   UNL     1      51.274   6.999  15.756  0.00  0.00    +0.000 A 
ATOM      6  C   UNL     1      51.864   6.185  16.718  0.00  0.00    +0.000 A 
ATOM      7  F   UNL     1      53.188   6.249  16.903  0.00  0.00    +0.000 F 
ATOM      8  C   UNL     1      51.108   5.310  17.496  0.00  0.00    +0.000 A 
ATOM      9  C   UNL     1      49.733   5.247  17.299  0.00  0.00    +0.000 A 
ATOM     10  C   UNL     1      49.127   6.070  16.343  0.00  0.00    +0.000 A 
BRANCH   9  11
ATOM     11  O   UNL     1      48.870   4.450  18.007  0.00  0.00    +0.000 OA
BRANCH  11  12
ATOM     12  C   UNL     1      48.875   3.023  17.775  0.00  0.00    +0.000 C 
ATOM     13  C   UNL     1      50.173   2.382  17.266  0.00  0.00    +0.000 C 
ATOM     14  O   UNL     1      49.533   1.900  16.063  0.00  0.00    +0.000 OA
ATOM     15  C   UNL     1      48.310   2.586  16.414  0.00  0.00    +0.000 C 
ENDBRANCH  11  12
ENDBRANCH   9  11
ENDBRANCH   1   4
BRANCH   1  16
ATOM     16  C   UNL     1      48.989   7.078  13.217  0.00  0.00    +0.000 C 
BRANCH  16  17
ATOM     17  O   UNL     1      47.699   7.393  12.675  0.00  0.00    +0.000 OA
BRANCH  17  21
ATOM     18  C   UNL     1      45.011   4.308  11.865  0.00  0.00    +0.000 A 
ATOM     19  C   UNL     1      45.563   4.392  13.148  0.00  0.00    +0.000 A 
ATOM     20  C   UNL     1      46.469   5.412  13.461  0.00  0.00    +0.000 A 
ATOM     21  C   UNL     1      46.830   6.354  12.495  0.00  0.00    +0.000 A 
ATOM     22  C   UNL     1      46.284   6.261  11.211  0.00  0.00    +0.000 A 
ATOM     23  C   UNL     1      45.384   5.242  10.893  0.00  0.00    +0.000 A 
BRANCH  18  25
ATOM     24  N   UNL     1      43.731   2.326  12.466  0.00  0.00    +0.000 N 
ATOM     25  C   UNL     1      44.056   3.233  11.496  0.00  0.00    +0.000 C 
ATOM     26  O   UNL     1      43.549   3.175  10.382  0.00  0.00    +0.000 OA
ATOM     27  H   UNL     1      42.997   1.668  12.231  0.00  0.00    +0.000 HD
ATOM     28  H   UNL     1      43.912   2.493  13.444  0.00  0.00    +0.000 HD
ENDBRANCH  18  25
ENDBRANCH  17  21
ENDBRANCH  16  17
ENDBRANCH   1  16
TORSDOF 7
ENDMDL
