MODEL 1
REMARK VINA RESULT:    -7.545      0.000      0.000
REMARK INTER + INTRA:          -9.707
REMARK INTER:                  -9.309
REMARK INTRA:                  -0.398
REMARK UNBOUND:                -0.398
REMARK  Name = 
REMARK  4 active torsions:
REMARK  status: ('A' for Active; 'I' for Inactive)
REMARK    1  A    between atoms: C_2  and  C_4
REMARK    2  A    between atoms: C_7  and  N_8
REMARK    3  A    between atoms: N_8  and  C_9
REMARK    4  A    between atoms: C_9  and  C_10
REMARK                            x       y       z     vdW  Elec       q    Type
REMARK                         _______ _______ _______ _____ _____    ______ ____
ROOT
ATOM      1  C   UNL     1      46.482   2.708   7.519  0.00  0.00    +0.000 A 
ATOM      2  N   UNL     1      46.125   4.014   7.533  0.00  0.00    +0.000 NA
ATOM      3  C   UNL     1      45.209   4.344   8.470  0.00  0.00    +0.000 A 
ATOM      4  C   UNL     1      44.624   3.457   9.363  0.00  0.00    +0.000 A 
ATOM      5  C   UNL     1      45.114   2.165   9.262  0.00  0.00    +0.000 A 
ATOM      6  N   UNL     1      46.024   1.758   8.355  0.00  0.00    +0.000 NA
ENDROOT
BRANCH   1   8
ATOM      7  N   UNL     1      47.470   3.000   5.298  0.00  0.00    +0.000 N 
ATOM      8  C   UNL     1      47.501   2.295   6.481  0.00  0.00    +0.000 C 
ATOM      9  O   UNL     1      48.317   1.398   6.645  0.00  0.00    +0.000 OA
ATOM     10  H   UNL     1      48.143   2.775   4.580  0.00  0.00    +0.000 HD
ATOM     11  H   UNL     1      46.801   3.749   5.166  0.00  0.00    +0.000 HD
ENDBRANCH   1   8
BRANCH   4  12
ATOM     12  N   UNL     1      43.717   3.914  10.320  0.00  0.00    +0.000 N 
ATOM     13  H   UNL     1      42.758   3.807   9.985  0.00  0.00    +0.000 HD
BRANCH  12  14
ATOM     14  C   UNL     1      43.930   5.252  10.875  0.00  0.00    +0.000 C 
BRANCH  14  15
ATOM     15  C   UNL     1      45.073   5.239  11.855  0.00  0.00    +0.000 A 
ATOM     16  C   UNL     1      45.000   4.463  13.008  0.00  0.00    +0.000 A 
ATOM     17  N   UNL     1      45.950   4.436  13.972  0.00  0.00    +0.000 NA
ATOM     18  C   UNL     1      47.028   5.234  13.786  0.00  0.00    +0.000 A 
ATOM     19  C   UNL     1      47.191   6.057  12.684  0.00  0.00    +0.000 A 
ATOM     20 BR   UNL     1      48.717   7.148  12.502  0.00  0.00    +0.000 Br
ATOM     21  C   UNL     1      46.196   6.067  11.713  0.00  0.00    +0.000 A 
ENDBRANCH  14  15
ENDBRANCH  12  14
ENDBRANCH   4  12
TORSDOF 4
ENDMDL
MODEL 2
REMARK VINA RESULT:    -7.276      1.559      2.070
REMARK INTER + INTRA:          -9.375
REMARK INTER:                  -9.018
REMARK INTRA:                  -0.357
REMARK UNBOUND:                -0.398
REMARK  Name = 
REMARK  4 active torsions:
REMARK  status: ('A' for Active; 'I' for Inactive)
REMARK    1  A    between atoms: C_2  and  C_4
REMARK    2  A    between atoms: C_7  and  N_8
REMARK    3  A    between atoms: N_8  and  C_9
REMARK    4  A    between atoms: C_9  and  C_10
REMARK                            x       y       z     vdW  Elec       q    Type
REMARK                         _______ _______ _______ _____ _____    ______ ____
ROOT
ATOM      1  C   UNL     1      46.252   2.217   7.948  0.00  0.00    +0.000 A 
ATOM      2  N   UNL     1      45.410   1.705   8.875  0.00  0.00    +0.000 NA
ATOM      3  C   UNL     1      44.607   2.610   9.478  0.00  0.00    +0.000 A 
ATOM      4  C   UNL     1      44.613   3.975   9.228  0.00  0.00    +0.000 A 
ATOM      5  C   UNL     1      45.495   4.351   8.228  0.00  0.00    +0.000 A 
ATOM      6  N   UNL     1      46.328   3.510   7.582  0.00  0.00    +0.000 NA
ENDROOT
BRANCH   1   8
ATOM      7  N   UNL     1      48.299   1.785   6.677  0.00  0.00    +0.000 N 
ATOM      8  C   UNL     1      47.172   1.240   7.253  0.00  0.00    +0.000 C 
ATOM      9  O   UNL     1      46.965   0.036   7.186  0.00  0.00    +0.000 OA
ATOM     10  H   UNL     1      48.955   1.171   6.217  0.00  0.00    +0.000 HD
ATOM     11  H   UNL     1      48.476   2.780   6.741  0.00  0.00    +0.000 HD
ENDBRANCH   1   8
BRANCH   4  12
ATOM     12  N   UNL     1      43.710   4.816   9.879  0.00  0.00    +0.000 N 
ATOM     13  H   UNL     1      43.902   5.793   9.651  0.00  0.00    +0.000 HD
BRANCH  12  14
ATOM     14  C   UNL     1      43.538   4.643  11.323  0.00  0.00    +0.000 C 
BRANCH  14  15
ATOM     15  C   UNL     1      44.713   5.221  12.065  0.00  0.00    +0.000 A 
ATOM     16  C   UNL     1      45.334   6.378  11.604  0.00  0.00    +0.000 A 
ATOM     17  N   UNL     1      46.431   6.934  12.171  0.00  0.00    +0.000 NA
ATOM     18  C   UNL     1      46.948   6.297  13.249  0.00  0.00    +0.000 A 
ATOM     19  C   UNL     1      46.417   5.132  13.777  0.00  0.00    +0.000 A 
ATOM     20 BR   UNL     1      47.201   4.300  15.275  0.00  0.00    +0.000 Br
ATOM     21  C   UNL     1      45.294   4.582  13.171  0.00  0.00    +0.000 A 
ENDBRANCH  14  15
ENDBRANCH  12  14
ENDBRANCH   4  12
TORSDOF 4
ENDMDL
MODEL 3
REMARK VINA RESULT:    -7.013      3.329      6.304
REMARK INTER + INTRA:          -9.050
REMARK INTER:                  -8.797
REMARK INTRA:                  -0.253
REMARK UNBOUND:                -0.398
REMARK  Name = 
REMARK  4 active torsions:
REMARK  status: ('A' for Active; 'I' for Inactive)
REMARK    1  A    between atoms: C_2  and  C_4
REMARK    2  A    between atoms: C_7  and  N_8
REMARK    3  A    between atoms: N_8  and  C_9
REMARK    4  A    between atoms: C_9  and  C_10
REMARK                            x       y       z     vdW  Elec       q    Type
REMARK                         _______ _______ _______ _____ _____    ______ ____
ROOT
ATOM      1  C   UNL     1      46.384   4.732  13.500  0.00  0.00    +0.000 A 
ATOM      2  N   UNL     1      45.943   3.460  13.363  0.00  0.00    +0.000 NA
ATOM      3  C   UNL     1      45.146   3.244  12.293  0.00  0.00    +0.000 A 
ATOM      4  C   UNL     1      44.755   4.215  11.381  0.00  0.00    +0.000 A 
ATOM      5  C   UNL     1      45.314   5.459  11.621  0.00  0.00    +0.000 A 
ATOM      6  N   UNL     1      46.115   5.753  12.665  0.00  0.00    +0.000 NA
ENDROOT
BRANCH   1   8
ATOM      7  N   UNL     1      46.936   4.373  15.857  0.00  0.00    +0.000 N 
ATOM      8  C   UNL     1      47.274   5.017  14.688  0.00  0.00    +0.000 C 
ATOM      9  O   UNL     1      48.242   5.766  14.652  0.00  0.00    +0.000 OA
ATOM     10  H   UNL     1      47.510   4.516  16.675  0.00  0.00    +0.000 HD
ATOM     11  H   UNL     1      46.141   3.746  15.884  0.00  0.00    +0.000 HD
ENDBRANCH   1   8
BRANCH   4  12
ATOM     12  N   UNL     1      43.961   3.874  10.284  0.00  0.00    +0.000 N 
ATOM     13  H   UNL     1      43.733   2.879  10.303  0.00  0.00    +0.000 HD
BRANCH  12  14
ATOM     14  C   UNL     1      44.428   4.276   8.956  0.00  0.00    +0.000 C 
BRANCH  14  15
ATOM     15  C   UNL     1      45.239   3.173   8.328  0.00  0.00    +0.000 A 
ATOM     16  C   UNL     1      45.274   1.909   8.910  0.00  0.00    +0.000 A 
ATOM     17  N   UNL     1      46.021   0.878   8.451  0.00  0.00    +0.000 NA
ATOM     18  C   UNL     1      46.786   1.119   7.360  0.00  0.00    +0.000 A 
ATOM     19  C   UNL     1      46.837   2.343   6.716  0.00  0.00    +0.000 A 
ATOM     20 BR   UNL     1      47.936   2.603   5.207  0.00  0.00    +0.000 Br
ATOM     21  C   UNL     1      46.063   3.385   7.213  0.00  0.00    +0.000 A 
ENDBRANCH  14  15
ENDBRANCH  12  14
ENDBRANCH   4  12
TORSDOF 4
ENDMDL
MODEL 4
REMARK VINA RESULT:    -6.957      3.308      6.359
REMARK INTER + INTRA:          -8.982
REMARK INTER:                  -8.555
REMARK INTRA:                  -0.427
REMARK UNBOUND:                -0.398
REMARK  Name = 
REMARK  4 active torsions:
REMARK  status: ('A' for Active; 'I' for Inactive)
REMARK    1  A    between atoms: C_2  and  C_4
REMARK    2  A    between atoms: C_7  and  N_8
REMARK    3  A    between atoms: N_8  and  C_9
REMARK    4  A    between atoms: C_9  and  C_10
REMARK                            x       y       z     vdW  Elec       q    Type
REMARK                         _______ _______ _______ _____ _____    ______ ____
ROOT
ATOM      1  C   UNL     1      46.622   4.874  13.985  0.00  0.00    +0.000 A 
ATOM      2  N   UNL     1      47.026   5.807  13.092  0.00  0.00    +0.000 NA
ATOM      3  C   UNL     1      46.250   5.917  11.991  0.00  0.00    +0.000 A 
ATOM      4  C   UNL     1      45.127   5.146  11.726  0.00  0.00    +0.000 A 
ATOM      5  C   UNL     1      44.807   4.262  12.744  0.00  0.00    +0.000 A 
ATOM      6  N   UNL     1      45.530   4.094  13.869  0.00  0.00    +0.000 NA
ENDROOT
BRANCH   1   8
ATOM      7  N   UNL     1      47.163   3.628  16.021  0.00  0.00    +0.000 N 
ATOM      8  C   UNL     1      47.465   4.714  15.229  0.00  0.00    +0.000 C 
ATOM      9  O   UNL     1      48.366   5.479  15.546  0.00  0.00    +0.000 OA
ATOM     10  H   UNL     1      47.710   3.467  16.854  0.00  0.00    +0.000 HD
ATOM     11  H   UNL     1      46.424   2.989  15.754  0.00  0.00    +0.000 HD
ENDBRANCH   1   8
BRANCH   4  12
ATOM     12  N   UNL     1      44.371   5.372  10.574  0.00  0.00    +0.000 N 
ATOM     13  H   UNL     1      43.581   5.985  10.779  0.00  0.00    +0.000 HD
BRANCH  12  14
ATOM     14  C   UNL     1      43.939   4.204   9.804  0.00  0.00    +0.000 C 
BRANCH  14  15
ATOM     15  C   UNL     1      45.055   3.715   8.919  0.00  0.00    +0.000 A 
ATOM     16  C   UNL     1      45.784   4.616   8.147  0.00  0.00    +0.000 A 
ATOM     17  N   UNL     1      46.761   4.261   7.280  0.00  0.00    +0.000 NA
ATOM     18  C   UNL     1      47.020   2.937   7.163  0.00  0.00    +0.000 A 
ATOM     19  C   UNL     1      46.343   1.958   7.872  0.00  0.00    +0.000 A 
ATOM     20 BR   UNL     1      46.756   0.134   7.647  0.00  0.00    +0.000 Br
ATOM     21  C   UNL     1      45.341   2.352   8.752  0.00  0.00    +0.000 A 
ENDBRANCH  14  15
ENDBRANCH  12  14
ENDBRANCH   4  12
TORSDOF 4
ENDMDL
MODEL 5
REMARK VINA RESULT:    -6.190      3.738      6.794
REMARK INTER + INTRA:          -8.035
REMARK INTER:                  -7.773
REMARK INTRA:                  -0.262
REMARK UNBOUND:                -0.398
REMARK  Name = 
REMARK  4 active torsions:
REMARK  status: ('A' for Active; 'I' for Inactive)
REMARK    1  A    between atoms: C_2  and  C_4
REMARK    2  A    between atoms: C_7  and  N_8
REMARK    3  A    between atoms: N_8  and  C_9
REMARK    4  A    between atoms: C_9  and  C_10
REMARK                            x       y       z     vdW  Elec       q    Type
REMARK                         _______ _______ _______ _____ _____    ______ ____
ROOT
ATOM      1  C   UNL     1      47.647   4.384  15.646  0.00  0.00    +0.000 A 
ATOM      2  N   UNL     1      48.095   5.633  15.381  0.00  0.00    +0.000 NA
ATOM      3  C   UNL     1      47.745   6.120  14.170  0.00  0.00    +0.000 A 
ATOM      4  C   UNL     1      47.003   5.434  13.218  0.00  0.00    +0.000 A 
ATOM      5  C   UNL     1      46.577   4.186  13.641  0.00  0.00    +0.000 A 
ATOM      6  N   UNL     1      46.886   3.631  14.830  0.00  0.00    +0.000 NA
ENDROOT
BRANCH   1   8
ATOM      7  N   UNL     1      47.286   4.247  18.063  0.00  0.00    +0.000 N 
ATOM      8  C   UNL     1      48.022   3.799  16.988  0.00  0.00    +0.000 C 
ATOM      9  O   UNL     1      48.915   2.977  17.149  0.00  0.00    +0.000 OA
ATOM     10  H   UNL     1      47.485   3.872  18.978  0.00  0.00    +0.000 HD
ATOM     11  H   UNL     1      46.541   4.919  17.928  0.00  0.00    +0.000 HD
ENDBRANCH   1   8
BRANCH   4  12
ATOM     12  N   UNL     1      46.660   6.050  12.013  0.00  0.00    +0.000 N 
ATOM     13  H   UNL     1      47.051   6.992  11.968  0.00  0.00    +0.000 HD
BRANCH  12  14
ATOM     14  C   UNL     1      45.247   6.053  11.628  0.00  0.00    +0.000 C 
BRANCH  14  15
ATOM     15  C   UNL     1      44.961   4.927  10.669  0.00  0.00    +0.000 A 
ATOM     16  C   UNL     1      44.057   3.926  11.012  0.00  0.00    +0.000 A 
ATOM     17  N   UNL     1      43.784   2.847  10.241  0.00  0.00    +0.000 NA
ATOM     18  C   UNL     1      44.457   2.751   9.069  0.00  0.00    +0.000 A 
ATOM     19  C   UNL     1      45.389   3.682   8.642  0.00  0.00    +0.000 A 
ATOM     20 BR   UNL     1      46.292   3.471   7.002  0.00  0.00    +0.000 Br
ATOM     21  C   UNL     1      45.652   4.777   9.458  0.00  0.00    +0.000 A 
ENDBRANCH  14  15
ENDBRANCH  12  14
ENDBRANCH   4  12
TORSDOF 4
ENDMDL
MODEL 6
REMARK VINA RESULT:    -5.880      3.882      5.862
REMARK INTER + INTRA:          -7.653
REMARK INTER:                  -7.321
REMARK INTRA:                  -0.332
REMARK UNBOUND:                -0.398
REMARK  Name = 
REMARK  4 active torsions:
REMARK  status: ('A' for Active; 'I' for Inactive)
REMARK    1  A    between atoms: C_2  and  C_4
REMARK    2  A    between atoms: C_7  and  N_8
REMARK    3  A    between atoms: N_8  and  C_9
REMARK    4  A    between atoms: C_9  and  C_10
REMARK                            x       y       z     vdW  Elec       q    Type
REMARK                         _______ _______ _______ _____ _____    ______ ____
ROOT
ATOM      1  C   UNL     1      45.144   4.238  11.800  0.00  0.00    +0.000 A 
ATOM      2  N   UNL     1      45.624   3.219  12.551  0.00  0.00    +0.000 NA
ATOM      3  C   UNL     1      46.334   3.596  13.637  0.00  0.00    +0.000 A 
ATOM      4  C   UNL     1      46.606   4.909  13.997  0.00  0.00    +0.000 A 
ATOM      5  C   UNL     1      46.018   5.846  13.163  0.00  0.00    +0.000 A 
ATOM      6  N   UNL     1      45.299   5.549  12.062  0.00  0.00    +0.000 NA
ENDROOT
BRANCH   1   8
ATOM      7  N   UNL     1      44.327   4.796   9.562  0.00  0.00    +0.000 N 
ATOM      8  C   UNL     1      44.349   3.859  10.572  0.00  0.00    +0.000 C 
ATOM      9  O   UNL     1      43.750   2.800  10.446  0.00  0.00    +0.000 OA
ATOM     10  H   UNL     1      43.825   4.583   8.712  0.00  0.00    +0.000 HD
ATOM     11  H   UNL     1      44.830   5.669   9.662  0.00  0.00    +0.000 HD
ENDBRANCH   1   8
BRANCH   4  12
ATOM     12  N   UNL     1      47.315   5.188  15.166  0.00  0.00    +0.000 N 
ATOM     13  H   UNL     1      48.302   5.348  14.956  0.00  0.00    +0.000 HD
BRANCH  12  14
ATOM     14  C   UNL     1      47.166   4.262  16.291  0.00  0.00    +0.000 C 
BRANCH  14  15
ATOM     15  C   UNL     1      48.492   3.638  16.637  0.00  0.00    +0.000 A 
ATOM     16  C   UNL     1      48.776   2.332  16.250  0.00  0.00    +0.000 A 
ATOM     17  N   UNL     1      49.914   1.672  16.568  0.00  0.00    +0.000 NA
ATOM     18  C   UNL     1      50.815   2.342  17.326  0.00  0.00    +0.000 A 
ATOM     19  C   UNL     1      50.623   3.637  17.778  0.00  0.00    +0.000 A 
ATOM     20 BR   UNL     1      51.922   4.498  18.837  0.00  0.00    +0.000 Br
ATOM     21  C   UNL     1      49.443   4.288  17.438  0.00  0.00    +0.000 A 
ENDBRANCH  14  15
ENDBRANCH  12  14
ENDBRANCH   4  12
TORSDOF 4
ENDMDL
MODEL 7
REMARK VINA RESULT:    -5.614      3.808      6.538
REMARK INTER + INTRA:          -7.324
REMARK INTER:                  -7.005
REMARK INTRA:                  -0.320
REMARK UNBOUND:                -0.398
REMARK  Name = 
REMARK  4 active torsions:
REMARK  status: ('A' for Active; 'I' for Inactive)
REMARK    1  A    between atoms: C_2  and  C_4
REMARK    2  A    between atoms: C_7  and  N_8
REMARK    3  A    between atoms: N_8  and  C_9
REMARK    4  A    between atoms: C_9  and  C_10
REMARK                            x       y       z     vdW  Elec       q    Type
REMARK                         _______ _______ _______ _____ _____    ______ ____
ROOT
ATOM      1  C   UNL     1      47.741   7.498  13.727  0.00  0.00    +0.000 A 
ATOM      2  N   UNL     1      47.801   6.414  12.919  0.00  0.00    +0.000 NA
ATOM      3  C   UNL     1      46.785   6.304  12.035  0.00  0.00    +0.000 A 
ATOM      4  C   UNL     1      45.720   7.188  11.929  0.00  0.00    +0.000 A 
ATOM      5  C   UNL     1      45.811   8.271  12.789  0.00  0.00    +0.000 A 
ATOM      6  N   UNL     1      46.790   8.450  13.697  0.00  0.00    +0.000 NA
ENDROOT
BRANCH   1   8
ATOM      7  N   UNL     1      48.465   7.985  16.014  0.00  0.00    +0.000 N 
ATOM      8  C   UNL     1      48.856   7.655  14.735  0.00  0.00    +0.000 C 
ATOM      9  O   UNL     1      50.042   7.507  14.471  0.00  0.00    +0.000 OA
ATOM     10  H   UNL     1      49.171   8.083  16.728  0.00  0.00    +0.000 HD
ATOM     11  H   UNL     1      47.483   8.098  16.235  0.00  0.00    +0.000 HD
ENDBRANCH   1   8
BRANCH   4  12
ATOM     12  N   UNL     1      44.743   7.003  10.950  0.00  0.00    +0.000 N 
ATOM     13  H   UNL     1      44.331   7.899  10.682  0.00  0.00    +0.000 HD
BRANCH  12  14
ATOM     14  C   UNL     1      43.702   6.007  11.207  0.00  0.00    +0.000 C 
BRANCH  14  15
ATOM     15  C   UNL     1      44.010   4.725  10.478  0.00  0.00    +0.000 A 
ATOM     16  C   UNL     1      43.595   3.503  11.000  0.00  0.00    +0.000 A 
ATOM     17  N   UNL     1      43.878   2.301  10.446  0.00  0.00    +0.000 NA
ATOM     18  C   UNL     1      44.627   2.312   9.317  0.00  0.00    +0.000 A 
ATOM     19  C   UNL     1      45.103   3.470   8.725  0.00  0.00    +0.000 A 
ATOM     20 BR   UNL     1      46.148   3.401   7.158  0.00  0.00    +0.000 Br
ATOM     21  C   UNL     1      44.800   4.690   9.319  0.00  0.00    +0.000 A 
ENDBRANCH  14  15
ENDBRANCH  12  14
ENDBRANCH   4  12
TORSDOF 4
ENDMDL
MODEL 8
REMARK VINA RESULT:    -5.545      4.947      7.958
REMARK INTER + INTRA:          -7.239
REMARK INTER:                  -6.927
REMARK INTRA:                  -0.312
REMARK UNBOUND:                -0.398
REMARK  Name = 
REMARK  4 active torsions:
REMARK  status: ('A' for Active; 'I' for Inactive)
REMARK    1  A    between atoms: C_2  and  C_4
REMARK    2  A    between atoms: C_7  and  N_8
REMARK    3  A    between atoms: N_8  and  C_9
REMARK    4  A    between atoms: C_9  and  C_10
REMARK                            x       y       z     vdW  Elec       q    Type
REMARK                         _______ _______ _______ _____ _____    ______ ____
ROOT
ATOM      1  C   UNL     1      50.297   2.489  17.137  0.00  0.00    +0.000 A 
ATOM      2  N   UNL     1      49.474   1.761  16.346  0.00  0.00    +0.000 NA
ATOM      3  C   UNL     1      48.393   2.426  15.882  0.00  0.00    +0.000 A 
ATOM      4  C   UNL     1      48.082   3.747  16.174  0.00  0.00    +0.000 A 
ATOM      5  C   UNL     1      49.032   4.380  16.959  0.00  0.00    +0.000 A 
ATOM      6  N   UNL     1      50.133   3.786  17.461  0.00  0.00    +0.000 NA
ENDROOT
BRANCH   1   8
ATOM      7  N   UNL     1      51.343   0.452  18.001  0.00  0.00    +0.000 N 
ATOM      8  C   UNL     1      51.516   1.781  17.682  0.00  0.00    +0.000 C 
ATOM      9  O   UNL     1      52.603   2.319  17.844  0.00  0.00    +0.000 OA
ATOM     10  H   UNL     1      52.132  -0.070  18.352  0.00  0.00    +0.000 HD
ATOM     11  H   UNL     1      50.446   0.005  17.858  0.00  0.00    +0.000 HD
ENDBRANCH   1   8
BRANCH   4  12
ATOM     12  N   UNL     1      46.960   4.351  15.605  0.00  0.00    +0.000 N 
ATOM     13  H   UNL     1      46.356   3.649  15.173  0.00  0.00    +0.000 HD
BRANCH  12  14
ATOM     14  C   UNL     1      47.180   5.478  14.697  0.00  0.00    +0.000 C 
BRANCH  14  15
ATOM     15  C   UNL     1      46.445   5.260  13.401  0.00  0.00    +0.000 A 
ATOM     16  C   UNL     1      46.641   6.126  12.329  0.00  0.00    +0.000 A 
ATOM     17  N   UNL     1      45.980   6.043  11.150  0.00  0.00    +0.000 NA
ATOM     18  C   UNL     1      45.064   5.052  11.035  0.00  0.00    +0.000 A 
ATOM     19  C   UNL     1      44.781   4.149  12.045  0.00  0.00    +0.000 A 
ATOM     20 BR   UNL     1      43.483   2.802  11.810  0.00  0.00    +0.000 Br
ATOM     21  C   UNL     1      45.472   4.261  13.246  0.00  0.00    +0.000 A 
ENDBRANCH  14  15
ENDBRANCH  12  14
ENDBRANCH   4  12
TORSDOF 4
ENDMDL
MODEL 9
REMARK VINA RESULT:    -5.388      4.181      6.165
REMARK INTER + INTRA:          -7.046
REMARK INTER:                  -6.792
REMARK INTRA:                  -0.254
REMARK UNBOUND:                -0.398
REMARK  Name = 
REMARK  4 active torsions:
REMARK  status: ('A' for Active; 'I' for Inactive)
REMARK    1  A    between atoms: C_2  and  C_4
REMARK    2  A    between atoms: C_7  and  N_8
REMARK    3  A    between atoms: N_8  and  C_9
REMARK    4  A    between atoms: C_9  and  C_10
REMARK                            x       y       z     vdW  Elec       q    Type
REMARK                         _______ _______ _______ _____ _____    ______ ____
ROOT
ATOM      1  C   UNL     1      44.959   4.301  11.896  0.00  0.00    +0.000 A 
ATOM      2  N   UNL     1      45.549   3.247  12.507  0.00  0.00    +0.000 NA
ATOM      3  C   UNL     1      46.331   3.564  13.563  0.00  0.00    +0.000 A 
ATOM      4  C   UNL     1      46.570   4.852  14.021  0.00  0.00    +0.000 A 
ATOM      5  C   UNL     1      45.869   5.826  13.328  0.00  0.00    +0.000 A 
ATOM      6  N   UNL     1      45.073   5.590  12.266  0.00  0.00    +0.000 NA
ENDROOT
BRANCH   1   8
ATOM      7  N   UNL     1      44.013   4.971   9.740  0.00  0.00    +0.000 N 
ATOM      8  C   UNL     1      44.080   3.991  10.706  0.00  0.00    +0.000 C 
ATOM      9  O   UNL     1      43.453   2.949  10.573  0.00  0.00    +0.000 OA
ATOM     10  H   UNL     1      43.455   4.805   8.916  0.00  0.00    +0.000 HD
ATOM     11  H   UNL     1      44.540   5.830   9.846  0.00  0.00    +0.000 HD
ENDBRANCH   1   8
BRANCH   4  12
ATOM     12  N   UNL     1      47.363   5.064  15.150  0.00  0.00    +0.000 N 
ATOM     13  H   UNL     1      48.275   5.435  14.881  0.00  0.00    +0.000 HD
BRANCH  12  14
ATOM     14  C   UNL     1      47.508   3.957  16.097  0.00  0.00    +0.000 C 
BRANCH  14  15
ATOM     15  C   UNL     1      48.235   4.415  17.333  0.00  0.00    +0.000 A 
ATOM     16  C   UNL     1      49.533   3.980  17.586  0.00  0.00    +0.000 A 
ATOM     17  N   UNL     1      50.239   4.292  18.698  0.00  0.00    +0.000 NA
ATOM     18  C   UNL     1      49.616   5.068  19.617  0.00  0.00    +0.000 A 
ATOM     19  C   UNL     1      48.322   5.539  19.471  0.00  0.00    +0.000 A 
ATOM     20 BR   UNL     1      47.522   6.608  20.801  0.00  0.00    +0.000 Br
ATOM     21  C   UNL     1      47.620   5.199  18.321  0.00  0.00    +0.000 A 
ENDBRANCH  14  15
ENDBRANCH  12  14
ENDBRANCH   4  12
TORSDOF 4
ENDMDL
