MODEL 1
REMARK VINA RESULT:    -8.362      0.000      0.000
REMARK INTER + INTRA:         -11.785
REMARK INTER:                 -11.784
REMARK INTRA:                  -0.002
REMARK UNBOUND:                -0.002
REMARK  Name = 
REMARK  9 active torsions:
REMARK  status: ('A' for Active; 'I' for Inactive)
REMARK    1  A    between atoms: C_1  and  O_2
REMARK    2  A    between atoms: O_2  and  C_3
REMARK    3  A    between atoms: C_6  and  C_7
REMARK    4  A    between atoms: C_11  and  O_12
REMARK    5  A    between atoms: O_12  and  C_13
REMARK    6  A    between atoms: C_13  and  C_14
REMARK    7  A    between atoms: C_18  and  C_19
REMARK    8  A    between atoms: C_23  and  C_24
REMARK    9  A    between atoms: C_28  and  C_29
REMARK                            x       y       z     vdW  Elec       q    Type
REMARK                         _______ _______ _______ _____ _____    ______ ____
ROOT
ATOM      1  C   UNL     1      46.265   6.212  11.722  0.00  0.00    +0.000 A 
ATOM      2  N   UNL     1      47.051   7.072  11.023  0.00  0.00    +0.000 NA
ATOM      3  C   UNL     1      48.157   7.536  11.616  0.00  0.00    +0.000 A 
ATOM      4  C   UNL     1      48.550   7.164  12.886  0.00  0.00    +0.000 A 
ATOM      5  C   UNL     1      47.762   6.277  13.646  0.00  0.00    +0.000 A 
ATOM      6  C   UNL     1      46.558   5.808  13.049  0.00  0.00    +0.000 A 
ATOM      7  C   UNL     1      45.576   4.911  13.766  0.00  0.00    +0.000 C 
ENDROOT
BRANCH   5   8
ATOM      8  C   UNL     1      48.239   5.917  15.011  0.00  0.00    +0.000 A 
ATOM      9  C   UNL     1      49.216   6.671  15.676  0.00  0.00    +0.000 A 
ATOM     10  N   UNL     1      49.711   6.410  16.912  0.00  0.00    +0.000 NA
ATOM     11  C   UNL     1      49.181   5.353  17.566  0.00  0.00    +0.000 A 
ATOM     12  C   UNL     1      48.204   4.532  17.031  0.00  0.00    +0.000 A 
ATOM     13  C   UNL     1      47.775   4.801  15.722  0.00  0.00    +0.000 A 
BRANCH  12  14
ATOM     14  C   UNL     1      47.555   3.428  17.779  0.00  0.00    +0.000 C 
ATOM     15  N   UNL     1      48.119   2.987  18.943  0.00  0.00    +0.000 N 
ATOM     16  O   UNL     1      46.511   2.925  17.381  0.00  0.00    +0.000 OA
ATOM     17  H   UNL     1      48.969   3.329  19.363  0.00  0.00    +0.000 HD
ATOM     18  H   UNL     1      47.626   2.247  19.429  0.00  0.00    +0.000 HD
ENDBRANCH  12  14
ENDBRANCH   5   8
BRANCH   1  19
ATOM     19  C   UNL     1      45.017   5.769  10.977  0.00  0.00    +0.000 C 
BRANCH  19  20
ATOM     20  O   UNL     1      45.292   5.483   9.604  0.00  0.00    +0.000 OA
BRANCH  20  26
ATOM     21  C   UNL     1      44.462   3.122   9.679  0.00  0.00    +0.000 A 
ATOM     22  C   UNL     1      44.646   1.826   9.182  0.00  0.00    +0.000 A 
ATOM     23  C   UNL     1      45.641   1.554   8.244  0.00  0.00    +0.000 A 
ATOM     24  C   UNL     1      46.469   2.573   7.766  0.00  0.00    +0.000 A 
ATOM     25  C   UNL     1      46.292   3.872   8.258  0.00  0.00    +0.000 A 
ATOM     26  C   UNL     1      45.296   4.159   9.215  0.00  0.00    +0.000 A 
BRANCH  24  27
ATOM     27  C   UNL     1      47.497   2.190   6.752  0.00  0.00    +0.000 C 
ATOM     28  N   UNL     1      47.816   3.082   5.768  0.00  0.00    +0.000 N 
ATOM     29  O   UNL     1      48.054   1.098   6.786  0.00  0.00    +0.000 OA
ATOM     30  H   UNL     1      47.393   3.990   5.648  0.00  0.00    +0.000 HD
ATOM     31  H   UNL     1      48.503   2.784   5.093  0.00  0.00    +0.000 HD
ENDBRANCH  24  27
BRANCH  21  33
ATOM     32  C   UNL     1      43.311   2.572  11.698  0.00  0.00    +0.000 C 
ATOM     33  O   UNL     1      43.461   3.416  10.563  0.00  0.00    +0.000 OA
ENDBRANCH  21  33
ENDBRANCH  20  26
ENDBRANCH  19  20
ENDBRANCH   1  19
TORSDOF 7
ENDMDL
MODEL 2
REMARK VINA RESULT:    -7.982      2.513      8.258
REMARK INTER + INTRA:         -11.250
REMARK INTER:                 -10.165
REMARK INTRA:                  -1.085
REMARK UNBOUND:                -0.002
REMARK  Name = 
REMARK  9 active torsions:
REMARK  status: ('A' for Active; 'I' for Inactive)
REMARK    1  A    between atoms: C_1  and  O_2
REMARK    2  A    between atoms: O_2  and  C_3
REMARK    3  A    between atoms: C_6  and  C_7
REMARK    4  A    between atoms: C_11  and  O_12
REMARK    5  A    between atoms: O_12  and  C_13
REMARK    6  A    between atoms: C_13  and  C_14
REMARK    7  A    between atoms: C_18  and  C_19
REMARK    8  A    between atoms: C_23  and  C_24
REMARK    9  A    between atoms: C_28  and  C_29
REMARK                            x       y       z     vdW  Elec       q    Type
REMARK                         _______ _______ _______ _____ _____    ______ ____
ROOT
ATOM      1  C   UNL     1      48.132   7.224  14.381  0.00  0.00    +0.000 A 
ATOM      2  N   UNL     1      48.139   8.563  14.146  0.00  0.00    +0.000 NA
ATOM      3  C   UNL     1      47.294   9.043  13.226  0.00  0.00    +0.000 A 
ATOM      4  C   UNL     1      46.402   8.254  12.529  0.00  0.00    +0.000 A 
ATOM      5  C   UNL     1      46.364   6.861  12.741  0.00  0.00    +0.000 A 
ATOM      6  C   UNL     1      47.287   6.326  13.683  0.00  0.00    +0.000 A 
ATOM      7  C   UNL     1      47.415   4.847  13.964  0.00  0.00    +0.000 C 
ENDROOT
BRANCH   5   8
ATOM      8  C   UNL     1      45.380   6.064  11.955  0.00  0.00    +0.000 A 
ATOM      9  C   UNL     1      44.068   5.861  12.402  0.00  0.00    +0.000 A 
ATOM     10  N   UNL     1      43.114   5.146  11.755  0.00  0.00    +0.000 NA
ATOM     11  C   UNL     1      43.458   4.620  10.557  0.00  0.00    +0.000 A 
ATOM     12  C   UNL     1      44.716   4.754   9.995  0.00  0.00    +0.000 A 
ATOM     13  C   UNL     1      45.688   5.444  10.736  0.00  0.00    +0.000 A 
BRANCH  12  14
ATOM     14  C   UNL     1      45.070   4.259   8.643  0.00  0.00    +0.000 C 
ATOM     15  N   UNL     1      44.316   3.273   8.073  0.00  0.00    +0.000 N 
ATOM     16  O   UNL     1      46.013   4.738   8.023  0.00  0.00    +0.000 OA
ATOM     17  H   UNL     1      43.520   2.812   8.488  0.00  0.00    +0.000 HD
ATOM     18  H   UNL     1      44.584   2.985   7.139  0.00  0.00    +0.000 HD
ENDBRANCH  12  14
ENDBRANCH   5   8
BRANCH   1  19
ATOM     19  C   UNL     1      49.149   6.773  15.416  0.00  0.00    +0.000 C 
BRANCH  19  20
ATOM     20  O   UNL     1      48.653   6.920  16.748  0.00  0.00    +0.000 OA
BRANCH  20  26
ATOM     21  C   UNL     1      48.149   5.685  18.868  0.00  0.00    +0.000 A 
ATOM     22  C   UNL     1      48.270   4.462  19.538  0.00  0.00    +0.000 A 
ATOM     23  C   UNL     1      48.879   3.368  18.926  0.00  0.00    +0.000 A 
ATOM     24  C   UNL     1      49.371   3.462  17.621  0.00  0.00    +0.000 A 
ATOM     25  C   UNL     1      49.254   4.682  16.944  0.00  0.00    +0.000 A 
ATOM     26  C   UNL     1      48.650   5.800  17.556  0.00  0.00    +0.000 A 
BRANCH  24  27
ATOM     27  C   UNL     1      49.995   2.234  17.043  0.00  0.00    +0.000 C 
ATOM     28  N   UNL     1      50.967   1.592  17.755  0.00  0.00    +0.000 N 
ATOM     29  O   UNL     1      49.653   1.798  15.950  0.00  0.00    +0.000 OA
ATOM     30  H   UNL     1      51.327   1.892  18.648  0.00  0.00    +0.000 HD
ATOM     31  H   UNL     1      51.376   0.775  17.327  0.00  0.00    +0.000 HD
ENDBRANCH  24  27
BRANCH  21  33
ATOM     32  C   UNL     1      47.573   6.887  20.849  0.00  0.00    +0.000 C 
ATOM     33  O   UNL     1      47.512   6.755  19.435  0.00  0.00    +0.000 OA
ENDBRANCH  21  33
ENDBRANCH  20  26
ENDBRANCH  19  20
ENDBRANCH   1  19
TORSDOF 7
ENDMDL
MODEL 3
REMARK VINA RESULT:    -7.892      2.599      8.245
REMARK INTER + INTRA:         -11.123
REMARK INTER:                  -9.945
REMARK INTRA:                  -1.178
REMARK UNBOUND:                -0.002
REMARK  Name = 
REMARK  9 active torsions:
REMARK  status: ('A' for Active; 'I' for Inactive)
REMARK    1  A    between atoms: C_1  and  O_2
REMARK    2  A    between atoms: O_2  and  C_3
REMARK    3  A    between atoms: C_6  and  C_7
REMARK    4  A    between atoms: C_11  and  O_12
REMARK    5  A    between atoms: O_12  and  C_13
REMARK    6  A    between atoms: C_13  and  C_14
REMARK    7  A    between atoms: C_18  and  C_19
REMARK    8  A    between atoms: C_23  and  C_24
REMARK    9  A    between atoms: C_28  and  C_29
REMARK                            x       y       z     vdW  Elec       q    Type
REMARK                         _______ _______ _______ _____ _____    ______ ____
ROOT
ATOM      1  C   UNL     1      47.434   7.671  13.530  0.00  0.00    +0.000 A 
ATOM      2  N   UNL     1      46.761   8.824  13.276  0.00  0.00    +0.000 NA
ATOM      3  C   UNL     1      45.571   8.736  12.670  0.00  0.00    +0.000 A 
ATOM      4  C   UNL     1      44.985   7.537  12.319  0.00  0.00    +0.000 A 
ATOM      5  C   UNL     1      45.650   6.319  12.563  0.00  0.00    +0.000 A 
ATOM      6  C   UNL     1      46.937   6.395  13.165  0.00  0.00    +0.000 A 
ATOM      7  C   UNL     1      47.800   5.182  13.423  0.00  0.00    +0.000 C 
ENDROOT
BRANCH   5   8
ATOM      8  C   UNL     1      44.965   5.059  12.158  0.00  0.00    +0.000 A 
ATOM      9  C   UNL     1      44.100   4.376  13.024  0.00  0.00    +0.000 A 
ATOM     10  N   UNL     1      43.444   3.223  12.739  0.00  0.00    +0.000 NA
ATOM     11  C   UNL     1      43.615   2.719  11.496  0.00  0.00    +0.000 A 
ATOM     12  C   UNL     1      44.431   3.299  10.541  0.00  0.00    +0.000 A 
ATOM     13  C   UNL     1      45.143   4.452  10.907  0.00  0.00    +0.000 A 
BRANCH  12  14
ATOM     14  C   UNL     1      44.550   2.802   9.148  0.00  0.00    +0.000 C 
ATOM     15  N   UNL     1      44.223   3.630   8.112  0.00  0.00    +0.000 N 
ATOM     16  O   UNL     1      44.959   1.669   8.916  0.00  0.00    +0.000 OA
ATOM     17  H   UNL     1      43.882   4.575   8.187  0.00  0.00    +0.000 HD
ATOM     18  H   UNL     1      44.343   3.251   7.180  0.00  0.00    +0.000 HD
ENDBRANCH  12  14
ENDBRANCH   5   8
BRANCH   1  19
ATOM     19  C   UNL     1      48.788   7.878  14.189  0.00  0.00    +0.000 C 
BRANCH  19  20
ATOM     20  O   UNL     1      48.695   7.856  15.614  0.00  0.00    +0.000 OA
BRANCH  20  26
ATOM     21  C   UNL     1      50.662   6.579  16.492  0.00  0.00    +0.000 A 
ATOM     22  C   UNL     1      51.068   5.420  17.164  0.00  0.00    +0.000 A 
ATOM     23  C   UNL     1      50.134   4.489  17.615  0.00  0.00    +0.000 A 
ATOM     24  C   UNL     1      48.766   4.697  17.419  0.00  0.00    +0.000 A 
ATOM     25  C   UNL     1      48.351   5.854  16.747  0.00  0.00    +0.000 A 
ATOM     26  C   UNL     1      49.287   6.799  16.277  0.00  0.00    +0.000 A 
BRANCH  24  27
ATOM     27  C   UNL     1      47.839   3.652  17.948  0.00  0.00    +0.000 C 
ATOM     28  N   UNL     1      48.181   2.986  19.090  0.00  0.00    +0.000 N 
ATOM     29  O   UNL     1      46.787   3.384  17.379  0.00  0.00    +0.000 OA
ATOM     30  H   UNL     1      49.035   3.123  19.609  0.00  0.00    +0.000 HD
ATOM     31  H   UNL     1      47.539   2.278  19.409  0.00  0.00    +0.000 HD
ENDBRANCH  24  27
BRANCH  21  33
ATOM     32  C   UNL     1      51.766   8.650  16.933  0.00  0.00    +0.000 C 
ATOM     33  O   UNL     1      51.561   7.526  16.086  0.00  0.00    +0.000 OA
ENDBRANCH  21  33
ENDBRANCH  20  26
ENDBRANCH  19  20
ENDBRANCH   1  19
TORSDOF 7
ENDMDL
MODEL 4
REMARK VINA RESULT:    -7.393      2.568      3.757
REMARK INTER + INTRA:         -10.421
REMARK INTER:                 -10.074
REMARK INTRA:                  -0.347
REMARK UNBOUND:                -0.002
REMARK  Name = 
REMARK  9 active torsions:
REMARK  status: ('A' for Active; 'I' for Inactive)
REMARK    1  A    between atoms: C_1  and  O_2
REMARK    2  A    between atoms: O_2  and  C_3
REMARK    3  A    between atoms: C_6  and  C_7
REMARK    4  A    between atoms: C_11  and  O_12
REMARK    5  A    between atoms: O_12  and  C_13
REMARK    6  A    between atoms: C_13  and  C_14
REMARK    7  A    between atoms: C_18  and  C_19
REMARK    8  A    between atoms: C_23  and  C_24
REMARK    9  A    between atoms: C_28  and  C_29
REMARK                            x       y       z     vdW  Elec       q    Type
REMARK                         _______ _______ _______ _____ _____    ______ ____
ROOT
ATOM      1  C   UNL     1      45.712   5.793  12.266  0.00  0.00    +0.000 A 
ATOM      2  N   UNL     1      45.854   4.589  12.880  0.00  0.00    +0.000 NA
ATOM      3  C   UNL     1      46.812   4.465  13.806  0.00  0.00    +0.000 A 
ATOM      4  C   UNL     1      47.639   5.503  14.185  0.00  0.00    +0.000 A 
ATOM      5  C   UNL     1      47.527   6.767  13.571  0.00  0.00    +0.000 A 
ATOM      6  C   UNL     1      46.544   6.904  12.552  0.00  0.00    +0.000 A 
ATOM      7  C   UNL     1      46.353   8.174  11.755  0.00  0.00    +0.000 C 
ENDROOT
BRANCH   5   8
ATOM      8  C   UNL     1      48.451   7.844  14.024  0.00  0.00    +0.000 A 
ATOM      9  C   UNL     1      48.075   8.783  14.994  0.00  0.00    +0.000 A 
ATOM     10  N   UNL     1      48.849   9.796  15.456  0.00  0.00    +0.000 NA
ATOM     11  C   UNL     1      50.104   9.876  14.959  0.00  0.00    +0.000 A 
ATOM     12  C   UNL     1      50.606   9.008  14.005  0.00  0.00    +0.000 A 
ATOM     13  C   UNL     1      49.743   8.019  13.507  0.00  0.00    +0.000 A 
BRANCH  12  14
ATOM     14  C   UNL     1      52.009   9.036  13.524  0.00  0.00    +0.000 C 
ATOM     15  N   UNL     1      52.744   7.884  13.541  0.00  0.00    +0.000 N 
ATOM     16  O   UNL     1      52.508  10.069  13.093  0.00  0.00    +0.000 OA
ATOM     17  H   UNL     1      52.436   6.982  13.868  0.00  0.00    +0.000 HD
ATOM     18  H   UNL     1      53.689   7.949  13.180  0.00  0.00    +0.000 HD
ENDBRANCH  12  14
ENDBRANCH   5   8
BRANCH   1  19
ATOM     19  C   UNL     1      44.622   5.822  11.208  0.00  0.00    +0.000 C 
BRANCH  19  20
ATOM     20  O   UNL     1      45.152   5.641   9.893  0.00  0.00    +0.000 OA
BRANCH  20  26
ATOM     21  C   UNL     1      44.402   3.254   9.784  0.00  0.00    +0.000 A 
ATOM     22  C   UNL     1      44.616   2.012   9.173  0.00  0.00    +0.000 A 
ATOM     23  C   UNL     1      45.593   1.856   8.191  0.00  0.00    +0.000 A 
ATOM     24  C   UNL     1      46.374   2.941   7.783  0.00  0.00    +0.000 A 
ATOM     25  C   UNL     1      46.168   4.187   8.390  0.00  0.00    +0.000 A 
ATOM     26  C   UNL     1      45.189   4.355   9.392  0.00  0.00    +0.000 A 
BRANCH  24  27
ATOM     27  C   UNL     1      47.387   2.682   6.715  0.00  0.00    +0.000 C 
ATOM     28  N   UNL     1      47.244   3.304   5.508  0.00  0.00    +0.000 N 
ATOM     29  O   UNL     1      48.334   1.927   6.902  0.00  0.00    +0.000 OA
ATOM     30  H   UNL     1      46.485   3.920   5.258  0.00  0.00    +0.000 HD
ATOM     31  H   UNL     1      47.938   3.095   4.807  0.00  0.00    +0.000 HD
ENDBRANCH  24  27
BRANCH  21  33
ATOM     32  C   UNL     1      43.336   2.503  11.785  0.00  0.00    +0.000 C 
ATOM     33  O   UNL     1      43.416   3.436  10.714  0.00  0.00    +0.000 OA
ENDBRANCH  21  33
ENDBRANCH  20  26
ENDBRANCH  19  20
ENDBRANCH   1  19
TORSDOF 7
ENDMDL
MODEL 5
REMARK VINA RESULT:    -7.055      3.366      8.820
REMARK INTER + INTRA:          -9.944
REMARK INTER:                  -9.342
REMARK INTRA:                  -0.602
REMARK UNBOUND:                -0.002
REMARK  Name = 
REMARK  9 active torsions:
REMARK  status: ('A' for Active; 'I' for Inactive)
REMARK    1  A    between atoms: C_1  and  O_2
REMARK    2  A    between atoms: O_2  and  C_3
REMARK    3  A    between atoms: C_6  and  C_7
REMARK    4  A    between atoms: C_11  and  O_12
REMARK    5  A    between atoms: O_12  and  C_13
REMARK    6  A    between atoms: C_13  and  C_14
REMARK    7  A    between atoms: C_18  and  C_19
REMARK    8  A    between atoms: C_23  and  C_24
REMARK    9  A    between atoms: C_28  and  C_29
REMARK                            x       y       z     vdW  Elec       q    Type
REMARK                         _______ _______ _______ _____ _____    ______ ____
ROOT
ATOM      1  C   UNL     1      49.240   6.779  15.867  0.00  0.00    +0.000 A 
ATOM      2  N   UNL     1      49.832   7.725  15.092  0.00  0.00    +0.000 NA
ATOM      3  C   UNL     1      49.474   7.796  13.804  0.00  0.00    +0.000 A 
ATOM      4  C   UNL     1      48.518   6.978  13.236  0.00  0.00    +0.000 A 
ATOM      5  C   UNL     1      47.882   5.983  14.005  0.00  0.00    +0.000 A 
ATOM      6  C   UNL     1      48.282   5.862  15.365  0.00  0.00    +0.000 A 
ATOM      7  C   UNL     1      47.744   4.798  16.293  0.00  0.00    +0.000 C 
ENDROOT
BRANCH   5   8
ATOM      8  C   UNL     1      46.861   5.131  13.332  0.00  0.00    +0.000 A 
ATOM      9  C   UNL     1      46.763   3.755  13.582  0.00  0.00    +0.000 A 
ATOM     10  N   UNL     1      45.871   2.909  13.010  0.00  0.00    +0.000 NA
ATOM     11  C   UNL     1      44.978   3.456  12.155  0.00  0.00    +0.000 A 
ATOM     12  C   UNL     1      44.956   4.801  11.828  0.00  0.00    +0.000 A 
ATOM     13  C   UNL     1      45.943   5.623  12.393  0.00  0.00    +0.000 A 
BRANCH  12  14
ATOM     14  C   UNL     1      43.923   5.421  10.963  0.00  0.00    +0.000 C 
ATOM     15  N   UNL     1      43.785   4.992   9.673  0.00  0.00    +0.000 N 
ATOM     16  O   UNL     1      43.177   6.292  11.398  0.00  0.00    +0.000 OA
ATOM     17  H   UNL     1      44.337   4.284   9.216  0.00  0.00    +0.000 HD
ATOM     18  H   UNL     1      43.049   5.430   9.131  0.00  0.00    +0.000 HD
ENDBRANCH  12  14
ENDBRANCH   5   8
BRANCH   1  19
ATOM     19  C   UNL     1      49.737   6.756  17.303  0.00  0.00    +0.000 C 
BRANCH  19  20
ATOM     20  O   UNL     1      51.163   6.698  17.371  0.00  0.00    +0.000 OA
BRANCH  20  26
ATOM     21  C   UNL     1      52.801   5.449  18.795  0.00  0.00    +0.000 A 
ATOM     22  C   UNL     1      53.260   4.181  19.171  0.00  0.00    +0.000 A 
ATOM     23  C   UNL     1      52.675   3.026  18.653  0.00  0.00    +0.000 A 
ATOM     24  C   UNL     1      51.607   3.108  17.756  0.00  0.00    +0.000 A 
ATOM     25  C   UNL     1      51.143   4.373  17.374  0.00  0.00    +0.000 A 
ATOM     26  C   UNL     1      51.732   5.549  17.883  0.00  0.00    +0.000 A 
BRANCH  24  27
ATOM     27  C   UNL     1      51.036   1.817  17.264  0.00  0.00    +0.000 C 
ATOM     28  N   UNL     1      51.511   0.647  17.783  0.00  0.00    +0.000 N 
ATOM     29  O   UNL     1      50.158   1.792  16.410  0.00  0.00    +0.000 OA
ATOM     30  H   UNL     1      52.247   0.573  18.469  0.00  0.00    +0.000 HD
ATOM     31  H   UNL     1      51.113  -0.204  17.418  0.00  0.00    +0.000 HD
ENDBRANCH  24  27
BRANCH  21  33
ATOM     32  C   UNL     1      54.649   6.956  18.940  0.00  0.00    +0.000 C 
ATOM     33  O   UNL     1      53.330   6.592  19.330  0.00  0.00    +0.000 OA
ENDBRANCH  21  33
ENDBRANCH  20  26
ENDBRANCH  19  20
ENDBRANCH   1  19
TORSDOF 7
ENDMDL
MODEL 6
REMARK VINA RESULT:    -6.978      2.599      8.787
REMARK INTER + INTRA:          -9.835
REMARK INTER:                  -9.698
REMARK INTRA:                  -0.137
REMARK UNBOUND:                -0.002
REMARK  Name = 
REMARK  9 active torsions:
REMARK  status: ('A' for Active; 'I' for Inactive)
REMARK    1  A    between atoms: C_1  and  O_2
REMARK    2  A    between atoms: O_2  and  C_3
REMARK    3  A    between atoms: C_6  and  C_7
REMARK    4  A    between atoms: C_11  and  O_12
REMARK    5  A    between atoms: O_12  and  C_13
REMARK    6  A    between atoms: C_13  and  C_14
REMARK    7  A    between atoms: C_18  and  C_19
REMARK    8  A    between atoms: C_23  and  C_24
REMARK    9  A    between atoms: C_28  and  C_29
REMARK                            x       y       z     vdW  Elec       q    Type
REMARK                         _______ _______ _______ _____ _____    ______ ____
ROOT
ATOM      1  C   UNL     1      48.112   6.955  14.012  0.00  0.00    +0.000 A 
ATOM      2  N   UNL     1      48.448   7.881  13.076  0.00  0.00    +0.000 NA
ATOM      3  C   UNL     1      47.847   7.815  11.883  0.00  0.00    +0.000 A 
ATOM      4  C   UNL     1      46.888   6.874  11.567  0.00  0.00    +0.000 A 
ATOM      5  C   UNL     1      46.512   5.894  12.508  0.00  0.00    +0.000 A 
ATOM      6  C   UNL     1      47.174   5.920  13.768  0.00  0.00    +0.000 A 
ATOM      7  C   UNL     1      46.931   4.894  14.850  0.00  0.00    +0.000 C 
ENDROOT
BRANCH   5   8
ATOM      8  C   UNL     1      45.473   4.905  12.106  0.00  0.00    +0.000 A 
ATOM      9  C   UNL     1      44.378   4.605  12.928  0.00  0.00    +0.000 A 
ATOM     10  N   UNL     1      43.395   3.716  12.642  0.00  0.00    +0.000 NA
ATOM     11  C   UNL     1      43.464   3.100  11.440  0.00  0.00    +0.000 A 
ATOM     12  C   UNL     1      44.484   3.311  10.530  0.00  0.00    +0.000 A 
ATOM     13  C   UNL     1      45.516   4.188  10.901  0.00  0.00    +0.000 A 
BRANCH  12  14
ATOM     14  C   UNL     1      44.516   2.708   9.175  0.00  0.00    +0.000 C 
ATOM     15  N   UNL     1      44.290   3.500   8.085  0.00  0.00    +0.000 N 
ATOM     16  O   UNL     1      44.766   1.518   9.021  0.00  0.00    +0.000 OA
ATOM     17  H   UNL     1      44.081   4.486   8.094  0.00  0.00    +0.000 HD
ATOM     18  H   UNL     1      44.346   3.046   7.181  0.00  0.00    +0.000 HD
ENDBRANCH  12  14
ENDBRANCH   5   8
BRANCH   1  19
ATOM     19  C   UNL     1      48.873   7.093  15.320  0.00  0.00    +0.000 C 
BRANCH  19  20
ATOM     20  O   UNL     1      49.449   5.853  15.734  0.00  0.00    +0.000 OA
BRANCH  20  26
ATOM     21  C   UNL     1      49.881   4.381  17.714  0.00  0.00    +0.000 A 
ATOM     22  C   UNL     1      49.658   4.210  19.085  0.00  0.00    +0.000 A 
ATOM     23  C   UNL     1      48.933   5.150  19.815  0.00  0.00    +0.000 A 
ATOM     24  C   UNL     1      48.422   6.294  19.196  0.00  0.00    +0.000 A 
ATOM     25  C   UNL     1      48.639   6.473  17.824  0.00  0.00    +0.000 A 
ATOM     26  C   UNL     1      49.363   5.524  17.072  0.00  0.00    +0.000 A 
BRANCH  24  27
ATOM     27  C   UNL     1      47.669   7.253  20.061  0.00  0.00    +0.000 C 
ATOM     28  N   UNL     1      47.521   8.543  19.639  0.00  0.00    +0.000 N 
ATOM     29  O   UNL     1      47.188   6.904  21.133  0.00  0.00    +0.000 OA
ATOM     30  H   UNL     1      47.903   8.923  18.786  0.00  0.00    +0.000 HD
ATOM     31  H   UNL     1      47.020   9.165  20.255  0.00  0.00    +0.000 HD
ENDBRANCH  24  27
BRANCH  21  33
ATOM     32  C   UNL     1      50.291   2.115  17.080  0.00  0.00    +0.000 C 
ATOM     33  O   UNL     1      50.631   3.493  16.992  0.00  0.00    +0.000 OA
ENDBRANCH  21  33
ENDBRANCH  20  26
ENDBRANCH  19  20
ENDBRANCH   1  19
TORSDOF 7
ENDMDL
MODEL 7
REMARK VINA RESULT:    -6.861      3.721      7.937
REMARK INTER + INTRA:          -9.670
REMARK INTER:                  -8.294
REMARK INTRA:                  -1.377
REMARK UNBOUND:                -0.002
REMARK  Name = 
REMARK  9 active torsions:
REMARK  status: ('A' for Active; 'I' for Inactive)
REMARK    1  A    between atoms: C_1  and  O_2
REMARK    2  A    between atoms: O_2  and  C_3
REMARK    3  A    between atoms: C_6  and  C_7
REMARK    4  A    between atoms: C_11  and  O_12
REMARK    5  A    between atoms: O_12  and  C_13
REMARK    6  A    between atoms: C_13  and  C_14
REMARK    7  A    between atoms: C_18  and  C_19
REMARK    8  A    between atoms: C_23  and  C_24
REMARK    9  A    between atoms: C_28  and  C_29
REMARK                            x       y       z     vdW  Elec       q    Type
REMARK                         _______ _______ _______ _____ _____    ______ ____
ROOT
ATOM      1  C   UNL     1      47.867   9.316  12.253  0.00  0.00    +0.000 A 
ATOM      2  N   UNL     1      46.904  10.271  12.183  0.00  0.00    +0.000 NA
ATOM      3  C   UNL     1      45.630   9.873  12.077  0.00  0.00    +0.000 A 
ATOM      4  C   UNL     1      45.249   8.547  12.063  0.00  0.00    +0.000 A 
ATOM      5  C   UNL     1      46.217   7.525  12.130  0.00  0.00    +0.000 A 
ATOM      6  C   UNL     1      47.580   7.929  12.198  0.00  0.00    +0.000 A 
ATOM      7  C   UNL     1      48.732   6.951  12.203  0.00  0.00    +0.000 C 
ENDROOT
BRANCH   5   8
ATOM      8  C   UNL     1      45.741   6.113  12.108  0.00  0.00    +0.000 A 
ATOM      9  C   UNL     1      45.585   5.366  13.283  0.00  0.00    +0.000 A 
ATOM     10  N   UNL     1      45.165   4.077  13.351  0.00  0.00    +0.000 NA
ATOM     11  C   UNL     1      44.834   3.485  12.182  0.00  0.00    +0.000 A 
ATOM     12  C   UNL     1      44.931   4.111  10.952  0.00  0.00    +0.000 A 
ATOM     13  C   UNL     1      45.436   5.420  10.927  0.00  0.00    +0.000 A 
BRANCH  12  14
ATOM     14  C   UNL     1      44.482   3.497   9.678  0.00  0.00    +0.000 C 
ATOM     15  N   UNL     1      44.107   4.304   8.642  0.00  0.00    +0.000 N 
ATOM     16  O   UNL     1      44.467   2.279   9.537  0.00  0.00    +0.000 OA
ATOM     17  H   UNL     1      44.085   5.312   8.646  0.00  0.00    +0.000 HD
ATOM     18  H   UNL     1      43.832   3.837   7.786  0.00  0.00    +0.000 HD
ENDBRANCH  12  14
ENDBRANCH   5   8
BRANCH   1  19
ATOM     19  C   UNL     1      49.281   9.868  12.337  0.00  0.00    +0.000 C 
BRANCH  19  20
ATOM     20  O   UNL     1      49.645  10.192  13.680  0.00  0.00    +0.000 OA
BRANCH  20  26
ATOM     21  C   UNL     1      49.663   8.471  15.499  0.00  0.00    +0.000 A 
ATOM     22  C   UNL     1      50.442   7.522  16.172  0.00  0.00    +0.000 A 
ATOM     23  C   UNL     1      51.768   7.296  15.807  0.00  0.00    +0.000 A 
ATOM     24  C   UNL     1      52.348   8.004  14.750  0.00  0.00    +0.000 A 
ATOM     25  C   UNL     1      51.575   8.956  14.072  0.00  0.00    +0.000 A 
ATOM     26  C   UNL     1      50.235   9.201  14.438  0.00  0.00    +0.000 A 
BRANCH  24  27
ATOM     27  C   UNL     1      53.770   7.685  14.422  0.00  0.00    +0.000 C 
ATOM     28  N   UNL     1      54.091   7.355  13.136  0.00  0.00    +0.000 N 
ATOM     29  O   UNL     1      54.646   7.713  15.279  0.00  0.00    +0.000 OA
ATOM     30  H   UNL     1      53.434   7.284  12.374  0.00  0.00    +0.000 HD
ATOM     31  H   UNL     1      55.057   7.133  12.954  0.00  0.00    +0.000 HD
ENDBRANCH  24  27
BRANCH  21  33
ATOM     32  C   UNL     1      48.050   9.502  16.928  0.00  0.00    +0.000 C 
ATOM     33  O   UNL     1      48.346   8.671  15.812  0.00  0.00    +0.000 OA
ENDBRANCH  21  33
ENDBRANCH  20  26
ENDBRANCH  19  20
ENDBRANCH   1  19
TORSDOF 7
ENDMDL
MODEL 8
REMARK VINA RESULT:    -6.836      4.098      7.698
REMARK INTER + INTRA:          -9.635
REMARK INTER:                  -8.653
REMARK INTRA:                  -0.982
REMARK UNBOUND:                -0.002
REMARK  Name = 
REMARK  9 active torsions:
REMARK  status: ('A' for Active; 'I' for Inactive)
REMARK    1  A    between atoms: C_1  and  O_2
REMARK    2  A    between atoms: O_2  and  C_3
REMARK    3  A    between atoms: C_6  and  C_7
REMARK    4  A    between atoms: C_11  and  O_12
REMARK    5  A    between atoms: O_12  and  C_13
REMARK    6  A    between atoms: C_13  and  C_14
REMARK    7  A    between atoms: C_18  and  C_19
REMARK    8  A    between atoms: C_23  and  C_24
REMARK    9  A    between atoms: C_28  and  C_29
REMARK                            x       y       z     vdW  Elec       q    Type
REMARK                         _______ _______ _______ _____ _____    ______ ____
ROOT
ATOM      1  C   UNL     1      47.376   8.450  12.671  0.00  0.00    +0.000 A 
ATOM      2  N   UNL     1      46.582   9.502  12.337  0.00  0.00    +0.000 NA
ATOM      3  C   UNL     1      45.354   9.239  11.874  0.00  0.00    +0.000 A 
ATOM      4  C   UNL     1      44.849   7.961  11.746  0.00  0.00    +0.000 A 
ATOM      5  C   UNL     1      45.641   6.844  12.078  0.00  0.00    +0.000 A 
ATOM      6  C   UNL     1      46.965   7.101  12.529  0.00  0.00    +0.000 A 
ATOM      7  C   UNL     1      47.955   6.006  12.854  0.00  0.00    +0.000 C 
ENDROOT
BRANCH   5   8
ATOM      8  C   UNL     1      45.038   5.491  11.915  0.00  0.00    +0.000 A 
ATOM      9  C   UNL     1      44.386   4.838  12.970  0.00  0.00    +0.000 A 
ATOM     10  N   UNL     1      43.818   3.608  12.910  0.00  0.00    +0.000 NA
ATOM     11  C   UNL     1      43.855   2.982  11.712  0.00  0.00    +0.000 A 
ATOM     12  C   UNL     1      44.457   3.516  10.586  0.00  0.00    +0.000 A 
ATOM     13  C   UNL     1      45.092   4.761  10.718  0.00  0.00    +0.000 A 
BRANCH  12  14
ATOM     14  C   UNL     1      44.420   2.874   9.250  0.00  0.00    +0.000 C 
ATOM     15  N   UNL     1      44.251   3.652   8.139  0.00  0.00    +0.000 N 
ATOM     16  O   UNL     1      44.563   1.663   9.128  0.00  0.00    +0.000 OA
ATOM     17  H   UNL     1      44.129   4.652   8.122  0.00  0.00    +0.000 HD
ATOM     18  H   UNL     1      44.257   3.169   7.248  0.00  0.00    +0.000 HD
ENDBRANCH  12  14
ENDBRANCH   5   8
BRANCH   1  19
ATOM     19  C   UNL     1      48.761   8.850  13.153  0.00  0.00    +0.000 C 
BRANCH  19  20
ATOM     20  O   UNL     1      49.527   9.468  12.117  0.00  0.00    +0.000 OA
BRANCH  20  26
ATOM     21  C   UNL     1      51.925   9.748  12.781  0.00  0.00    +0.000 A 
ATOM     22  C   UNL     1      53.237   9.323  12.543  0.00  0.00    +0.000 A 
ATOM     23  C   UNL     1      53.509   8.336  11.597  0.00  0.00    +0.000 A 
ATOM     24  C   UNL     1      52.475   7.738  10.871  0.00  0.00    +0.000 A 
ATOM     25  C   UNL     1      51.159   8.160  11.102  0.00  0.00    +0.000 A 
ATOM     26  C   UNL     1      50.872   9.164  12.050  0.00  0.00    +0.000 A 
BRANCH  24  27
ATOM     27  C   UNL     1      52.861   6.681   9.888  0.00  0.00    +0.000 C 
ATOM     28  N   UNL     1      53.259   5.461  10.356  0.00  0.00    +0.000 N 
ATOM     29  O   UNL     1      52.828   6.889   8.681  0.00  0.00    +0.000 OA
ATOM     30  H   UNL     1      53.339   5.211  11.329  0.00  0.00    +0.000 HD
ATOM     31  H   UNL     1      53.525   4.777   9.664  0.00  0.00    +0.000 HD
ENDBRANCH  24  27
BRANCH  21  33
ATOM     32  C   UNL     1      52.725  11.296  14.414  0.00  0.00    +0.000 C 
ATOM     33  O   UNL     1      51.635  10.680  13.739  0.00  0.00    +0.000 OA
ENDBRANCH  21  33
ENDBRANCH  20  26
ENDBRANCH  19  20
ENDBRANCH   1  19
TORSDOF 7
ENDMDL
MODEL 9
REMARK VINA RESULT:    -6.833      2.909      8.436
REMARK INTER + INTRA:          -9.631
REMARK INTER:                  -8.943
REMARK INTRA:                  -0.688
REMARK UNBOUND:                -0.002
REMARK  Name = 
REMARK  9 active torsions:
REMARK  status: ('A' for Active; 'I' for Inactive)
REMARK    1  A    between atoms: C_1  and  O_2
REMARK    2  A    between atoms: O_2  and  C_3
REMARK    3  A    between atoms: C_6  and  C_7
REMARK    4  A    between atoms: C_11  and  O_12
REMARK    5  A    between atoms: O_12  and  C_13
REMARK    6  A    between atoms: C_13  and  C_14
REMARK    7  A    between atoms: C_18  and  C_19
REMARK    8  A    between atoms: C_23  and  C_24
REMARK    9  A    between atoms: C_28  and  C_29
REMARK                            x       y       z     vdW  Elec       q    Type
REMARK                         _______ _______ _______ _____ _____    ______ ____
ROOT
ATOM      1  C   UNL     1      46.198   8.196  13.022  0.00  0.00    +0.000 A 
ATOM      2  N   UNL     1      45.490   9.262  12.563  0.00  0.00    +0.000 NA
ATOM      3  C   UNL     1      44.624   9.057  11.563  0.00  0.00    +0.000 A 
ATOM      4  C   UNL     1      44.396   7.818  10.999  0.00  0.00    +0.000 A 
ATOM      5  C   UNL     1      45.111   6.688  11.445  0.00  0.00    +0.000 A 
ATOM      6  C   UNL     1      46.069   6.895  12.476  0.00  0.00    +0.000 A 
ATOM      7  C   UNL     1      46.961   5.797  13.007  0.00  0.00    +0.000 C 
ENDROOT
BRANCH   5   8
ATOM      8  C   UNL     1      44.820   5.380  10.794  0.00  0.00    +0.000 A 
ATOM      9  C   UNL     1      43.787   4.544  11.239  0.00  0.00    +0.000 A 
ATOM     10  N   UNL     1      43.461   3.339  10.710  0.00  0.00    +0.000 NA
ATOM     11  C   UNL     1      44.175   2.935   9.635  0.00  0.00    +0.000 A 
ATOM     12  C   UNL     1      45.214   3.667   9.087  0.00  0.00    +0.000 A 
ATOM     13  C   UNL     1      45.558   4.875   9.713  0.00  0.00    +0.000 A 
BRANCH  12  14
ATOM     14  C   UNL     1      45.938   3.272   7.855  0.00  0.00    +0.000 C 
ATOM     15  N   UNL     1      46.389   1.989   7.726  0.00  0.00    +0.000 N 
ATOM     16  O   UNL     1      46.116   4.073   6.944  0.00  0.00    +0.000 OA
ATOM     17  H   UNL     1      46.295   1.250   8.406  0.00  0.00    +0.000 HD
ATOM     18  H   UNL     1      46.856   1.762   6.856  0.00  0.00    +0.000 HD
ENDBRANCH  12  14
ENDBRANCH   5   8
BRANCH   1  19
ATOM     19  C   UNL     1      47.178   8.538  14.133  0.00  0.00    +0.000 C 
BRANCH  19  20
ATOM     20  O   UNL     1      48.534   8.440  13.693  0.00  0.00    +0.000 OA
BRANCH  20  26
ATOM     21  C   UNL     1      50.851   8.036  14.555  0.00  0.00    +0.000 A 
ATOM     22  C   UNL     1      51.616   7.361  15.513  0.00  0.00    +0.000 A 
ATOM     23  C   UNL     1      51.010   6.547  16.468  0.00  0.00    +0.000 A 
ATOM     24  C   UNL     1      49.621   6.396  16.500  0.00  0.00    +0.000 A 
ATOM     25  C   UNL     1      48.848   7.067  15.544  0.00  0.00    +0.000 A 
ATOM     26  C   UNL     1      49.449   7.886  14.566  0.00  0.00    +0.000 A 
BRANCH  24  27
ATOM     27  C   UNL     1      49.059   5.514  17.568  0.00  0.00    +0.000 C 
ATOM     28  N   UNL     1      47.753   5.673  17.933  0.00  0.00    +0.000 N 
ATOM     29  O   UNL     1      49.745   4.660  18.117  0.00  0.00    +0.000 OA
ATOM     30  H   UNL     1      47.124   6.363  17.554  0.00  0.00    +0.000 HD
ATOM     31  H   UNL     1      47.413   5.070  18.667  0.00  0.00    +0.000 HD
ENDBRANCH  24  27
BRANCH  21  33
ATOM     32  C   UNL     1      51.204  10.273  13.797  0.00  0.00    +0.000 C 
ATOM     33  O   UNL     1      51.424   8.877  13.640  0.00  0.00    +0.000 OA
ENDBRANCH  21  33
ENDBRANCH  20  26
ENDBRANCH  19  20
ENDBRANCH   1  19
TORSDOF 7
ENDMDL
