MODEL 1
REMARK VINA RESULT:    -7.196      0.000      0.000
REMARK INTER + INTRA:          -9.557
REMARK INTER:                  -9.089
REMARK INTRA:                  -0.467
REMARK UNBOUND:                -0.467
REMARK  Name = 
REMARK  5 active torsions:
REMARK  status: ('A' for Active; 'I' for Inactive)
REMARK    1  A    between atoms: N_1  and  C_2
REMARK    2  A    between atoms: C_2  and  C_3
REMARK    3  A    between atoms: C_5  and  C_6
REMARK    4  A    between atoms: C_6  and  N_7
REMARK    5  A    between atoms: C_14  and  C_15
REMARK                            x       y       z     vdW  Elec       q    Type
REMARK                         _______ _______ _______ _____ _____    ______ ____
ROOT
ATOM      1  N   UNL     1      44.597   4.678  10.952  0.00  0.00    +0.000 N 
ATOM      2  C   UNL     1      43.317   5.140  10.771  0.00  0.00    +0.000 A 
ATOM      3  C   UNL     1      43.228   6.388  11.344  0.00  0.00    +0.000 A 
ATOM      4  C   UNL     1      44.502   6.707  11.886  0.00  0.00    +0.000 A 
ATOM      5  C   UNL     1      45.000   7.801  12.616  0.00  0.00    +0.000 A 
ATOM      6  C   UNL     1      46.334   7.796  13.037  0.00  0.00    +0.000 A 
ATOM      7  F   UNL     1      46.753   8.834  13.781  0.00  0.00    +0.000 F 
ATOM      8  C   UNL     1      47.196   6.755  12.709  0.00  0.00    +0.000 A 
ATOM      9  C   UNL     1      46.723   5.687  11.926  0.00  0.00    +0.000 A 
ATOM     10  C   UNL     1      45.362   5.651  11.571  0.00  0.00    +0.000 A 
ENDROOT
BRANCH   8  11
ATOM     11  C   UNL     1      48.602   6.684  13.191  0.00  0.00    +0.000 C 
ATOM     12  N   UNL     1      49.597   7.080  12.346  0.00  0.00    +0.000 N 
ATOM     13  O   UNL     1      48.867   6.305  14.326  0.00  0.00    +0.000 OA
ATOM     14  H   UNL     1      49.422   7.430  11.412  0.00  0.00    +0.000 HD
ATOM     15  H   UNL     1      50.549   7.068  12.687  0.00  0.00    +0.000 HD
ENDBRANCH   8  11
BRANCH   1  16
ATOM     16  C   UNL     1      45.038   3.342  10.569  0.00  0.00    +0.000 C 
BRANCH  16  19
ATOM     17  C   UNL     1      46.392   1.891   8.242  0.00  0.00    +0.000 C 
ATOM     18  C   UNL     1      45.009   1.514   8.751  0.00  0.00    +0.000 C 
ATOM     19  C   UNL     1      44.475   2.858   9.214  0.00  0.00    +0.000 C 
ATOM     20  C   UNL     1      44.980   3.740   8.076  0.00  0.00    +0.000 C 
ATOM     21  O   UNL     1      46.240   3.195   7.639  0.00  0.00    +0.000 OA
BRANCH  17  22
ATOM     22  C   UNL     1      47.042   0.876   7.297  0.00  0.00    +0.000 C 
BRANCH  22  23
ATOM     23  N   UNL     1      46.793  -0.513   7.691  0.00  0.00    +0.000 NA
ATOM     24  H   UNL     1      47.647  -1.051   7.548  0.00  0.00    +0.000 HD
ATOM     25  H   UNL     1      46.104  -0.893   7.041  0.00  0.00    +0.000 HD
ENDBRANCH  22  23
ENDBRANCH  17  22
ENDBRANCH  16  19
ENDBRANCH   1  16
TORSDOF 5
ENDMDL
MODEL 2
REMARK VINA RESULT:    -6.553      3.030      4.191
REMARK INTER + INTRA:          -8.745
REMARK INTER:                  -8.070
REMARK INTRA:                  -0.675
REMARK UNBOUND:                -0.467
REMARK  Name = 
REMARK  5 active torsions:
REMARK  status: ('A' for Active; 'I' for Inactive)
REMARK    1  A    between atoms: N_1  and  C_2
REMARK    2  A    between atoms: C_2  and  C_3
REMARK    3  A    between atoms: C_5  and  C_6
REMARK    4  A    between atoms: C_6  and  N_7
REMARK    5  A    between atoms: C_14  and  C_15
REMARK                            x       y       z     vdW  Elec       q    Type
REMARK                         _______ _______ _______ _____ _____    ______ ____
ROOT
ATOM      1  N   UNL     1      45.795   5.579  13.327  0.00  0.00    +0.000 N 
ATOM      2  C   UNL     1      47.026   5.136  13.745  0.00  0.00    +0.000 A 
ATOM      3  C   UNL     1      47.933   6.154  13.558  0.00  0.00    +0.000 A 
ATOM      4  C   UNL     1      47.230   7.264  13.017  0.00  0.00    +0.000 A 
ATOM      5  C   UNL     1      47.623   8.544  12.585  0.00  0.00    +0.000 A 
ATOM      6  C   UNL     1      46.664   9.417  12.061  0.00  0.00    +0.000 A 
ATOM      7  F   UNL     1      47.091  10.607  11.607  0.00  0.00    +0.000 F 
ATOM      8  C   UNL     1      45.319   9.068  12.004  0.00  0.00    +0.000 A 
ATOM      9  C   UNL     1      44.907   7.815  12.492  0.00  0.00    +0.000 A 
ATOM     10  C   UNL     1      45.882   6.906  12.943  0.00  0.00    +0.000 A 
ENDROOT
BRANCH   8  11
ATOM     11  C   UNL     1      44.279   9.944  11.398  0.00  0.00    +0.000 C 
ATOM     12  N   UNL     1      43.736   9.573  10.203  0.00  0.00    +0.000 N 
ATOM     13  O   UNL     1      43.897  10.963  11.963  0.00  0.00    +0.000 OA
ATOM     14  H   UNL     1      43.999   8.725   9.716  0.00  0.00    +0.000 HD
ATOM     15  H   UNL     1      43.004  10.149   9.810  0.00  0.00    +0.000 HD
ENDBRANCH   8  11
BRANCH   1  16
ATOM     16  C   UNL     1      44.606   4.737  13.277  0.00  0.00    +0.000 C 
BRANCH  16  19
ATOM     17  C   UNL     1      44.304   4.199  10.281  0.00  0.00    +0.000 C 
ATOM     18  C   UNL     1      45.449   3.632  11.105  0.00  0.00    +0.000 C 
ATOM     19  C   UNL     1      44.788   3.439  12.459  0.00  0.00    +0.000 C 
ATOM     20  C   UNL     1      43.437   2.894  12.008  0.00  0.00    +0.000 C 
ATOM     21  O   UNL     1      43.117   3.526  10.753  0.00  0.00    +0.000 OA
BRANCH  17  22
ATOM     22  C   UNL     1      44.476   4.097   8.762  0.00  0.00    +0.000 C 
BRANCH  22  23
ATOM     23  N   UNL     1      45.630   4.850   8.265  0.00  0.00    +0.000 NA
ATOM     24  H   UNL     1      45.429   5.846   8.346  0.00  0.00    +0.000 HD
ATOM     25  H   UNL     1      45.711   4.655   7.266  0.00  0.00    +0.000 HD
ENDBRANCH  22  23
ENDBRANCH  17  22
ENDBRANCH  16  19
ENDBRANCH   1  16
TORSDOF 5
ENDMDL
MODEL 3
REMARK VINA RESULT:    -6.471      2.512      6.134
REMARK INTER + INTRA:          -8.641
REMARK INTER:                  -8.300
REMARK INTRA:                  -0.341
REMARK UNBOUND:                -0.467
REMARK  Name = 
REMARK  5 active torsions:
REMARK  status: ('A' for Active; 'I' for Inactive)
REMARK    1  A    between atoms: N_1  and  C_2
REMARK    2  A    between atoms: C_2  and  C_3
REMARK    3  A    between atoms: C_5  and  C_6
REMARK    4  A    between atoms: C_6  and  N_7
REMARK    5  A    between atoms: C_14  and  C_15
REMARK                            x       y       z     vdW  Elec       q    Type
REMARK                         _______ _______ _______ _____ _____    ______ ____
ROOT
ATOM      1  N   UNL     1      44.419   5.978  11.783  0.00  0.00    +0.000 N 
ATOM      2  C   UNL     1      43.560   5.628  12.795  0.00  0.00    +0.000 A 
ATOM      3  C   UNL     1      43.176   4.321  12.598  0.00  0.00    +0.000 A 
ATOM      4  C   UNL     1      43.832   3.849  11.429  0.00  0.00    +0.000 A 
ATOM      5  C   UNL     1      43.798   2.635  10.720  0.00  0.00    +0.000 A 
ATOM      6  C   UNL     1      44.563   2.496   9.558  0.00  0.00    +0.000 A 
ATOM      7  F   UNL     1      44.458   1.341   8.880  0.00  0.00    +0.000 F 
ATOM      8  C   UNL     1      45.399   3.515   9.112  0.00  0.00    +0.000 A 
ATOM      9  C   UNL     1      45.487   4.709   9.850  0.00  0.00    +0.000 A 
ATOM     10  C   UNL     1      44.657   4.881  10.972  0.00  0.00    +0.000 A 
ENDROOT
BRANCH   8  11
ATOM     11  C   UNL     1      46.180   3.427   7.848  0.00  0.00    +0.000 C 
ATOM     12  N   UNL     1      46.810   2.253   7.557  0.00  0.00    +0.000 N 
ATOM     13  O   UNL     1      46.241   4.373   7.071  0.00  0.00    +0.000 OA
ATOM     14  H   UNL     1      46.761   1.436   8.154  0.00  0.00    +0.000 HD
ATOM     15  H   UNL     1      47.309   2.182   6.680  0.00  0.00    +0.000 HD
ENDBRANCH   8  11
BRANCH   1  16
ATOM     16  C   UNL     1      44.952   7.322  11.600  0.00  0.00    +0.000 C 
BRANCH  16  19
ATOM     17  C   UNL     1      47.999   7.576  11.648  0.00  0.00    +0.000 C 
ATOM     18  C   UNL     1      47.079   8.625  12.251  0.00  0.00    +0.000 C 
ATOM     19  C   UNL     1      45.910   7.776  12.723  0.00  0.00    +0.000 C 
ATOM     20  C   UNL     1      46.675   6.585  13.292  0.00  0.00    +0.000 C 
ATOM     21  O   UNL     1      47.855   6.408  12.486  0.00  0.00    +0.000 OA
BRANCH  17  22
ATOM     22  C   UNL     1      49.460   8.004  11.479  0.00  0.00    +0.000 C 
BRANCH  22  23
ATOM     23  N   UNL     1      50.389   7.190  12.267  0.00  0.00    +0.000 NA
ATOM     24  H   UNL     1      51.308   7.629  12.244  0.00  0.00    +0.000 HD
ATOM     25  H   UNL     1      50.488   6.293  11.787  0.00  0.00    +0.000 HD
ENDBRANCH  22  23
ENDBRANCH  17  22
ENDBRANCH  16  19
ENDBRANCH   1  16
TORSDOF 5
ENDMDL
MODEL 4
REMARK VINA RESULT:    -6.320      3.948      7.044
REMARK INTER + INTRA:          -8.450
REMARK INTER:                  -8.090
REMARK INTRA:                  -0.361
REMARK UNBOUND:                -0.467
REMARK  Name = 
REMARK  5 active torsions:
REMARK  status: ('A' for Active; 'I' for Inactive)
REMARK    1  A    between atoms: N_1  and  C_2
REMARK    2  A    between atoms: C_2  and  C_3
REMARK    3  A    between atoms: C_5  and  C_6
REMARK    4  A    between atoms: C_6  and  N_7
REMARK    5  A    between atoms: C_14  and  C_15
REMARK                            x       y       z     vdW  Elec       q    Type
REMARK                         _______ _______ _______ _____ _____    ______ ____
ROOT
ATOM      1  N   UNL     1      47.058   5.189  14.140  0.00  0.00    +0.000 N 
ATOM      2  C   UNL     1      47.755   6.371  14.076  0.00  0.00    +0.000 A 
ATOM      3  C   UNL     1      47.520   6.940  12.845  0.00  0.00    +0.000 A 
ATOM      4  C   UNL     1      46.638   6.083  12.134  0.00  0.00    +0.000 A 
ATOM      5  C   UNL     1      46.090   6.114  10.839  0.00  0.00    +0.000 A 
ATOM      6  C   UNL     1      45.255   5.073  10.421  0.00  0.00    +0.000 A 
ATOM      7  F   UNL     1      44.799   5.112   9.158  0.00  0.00    +0.000 F 
ATOM      8  C   UNL     1      44.911   4.031  11.276  0.00  0.00    +0.000 A 
ATOM      9  C   UNL     1      45.403   4.025  12.593  0.00  0.00    +0.000 A 
ATOM     10  C   UNL     1      46.308   5.027  12.987  0.00  0.00    +0.000 A 
ENDROOT
BRANCH   8  11
ATOM     11  C   UNL     1      44.075   2.875  10.848  0.00  0.00    +0.000 C 
ATOM     12  N   UNL     1      44.531   2.087   9.832  0.00  0.00    +0.000 N 
ATOM     13  O   UNL     1      43.015   2.616  11.406  0.00  0.00    +0.000 OA
ATOM     14  H   UNL     1      45.416   2.246   9.365  0.00  0.00    +0.000 HD
ATOM     15  H   UNL     1      43.982   1.281   9.568  0.00  0.00    +0.000 HD
ENDBRANCH   8  11
BRANCH   1  16
ATOM     16  C   UNL     1      47.146   4.255  15.255  0.00  0.00    +0.000 C 
BRANCH  16  19
ATOM     17  C   UNL     1      49.297   3.161  17.134  0.00  0.00    +0.000 C 
ATOM     18  C   UNL     1      49.266   4.612  16.678  0.00  0.00    +0.000 C 
ATOM     19  C   UNL     1      47.774   4.857  16.531  0.00  0.00    +0.000 C 
ATOM     20  C   UNL     1      47.273   4.126  17.774  0.00  0.00    +0.000 C 
ATOM     21  O   UNL     1      48.144   3.000  17.990  0.00  0.00    +0.000 OA
BRANCH  17  22
ATOM     22  C   UNL     1      50.598   2.713  17.807  0.00  0.00    +0.000 C 
BRANCH  22  23
ATOM     23  N   UNL     1      50.951   1.324  17.499  0.00  0.00    +0.000 NA
ATOM     24  H   UNL     1      50.367   1.001  16.730  0.00  0.00    +0.000 HD
ATOM     25  H   UNL     1      50.694   0.760  18.311  0.00  0.00    +0.000 HD
ENDBRANCH  22  23
ENDBRANCH  17  22
ENDBRANCH  16  19
ENDBRANCH   1  16
TORSDOF 5
ENDMDL
MODEL 5
REMARK VINA RESULT:    -6.236      3.119      4.033
REMARK INTER + INTRA:          -8.344
REMARK INTER:                  -8.055
REMARK INTRA:                  -0.289
REMARK UNBOUND:                -0.467
REMARK  Name = 
REMARK  5 active torsions:
REMARK  status: ('A' for Active; 'I' for Inactive)
REMARK    1  A    between atoms: N_1  and  C_2
REMARK    2  A    between atoms: C_2  and  C_3
REMARK    3  A    between atoms: C_5  and  C_6
REMARK    4  A    between atoms: C_6  and  N_7
REMARK    5  A    between atoms: C_14  and  C_15
REMARK                            x       y       z     vdW  Elec       q    Type
REMARK                         _______ _______ _______ _____ _____    ______ ____
ROOT
ATOM      1  N   UNL     1      45.836   5.915  12.883  0.00  0.00    +0.000 N 
ATOM      2  C   UNL     1      46.255   7.036  12.210  0.00  0.00    +0.000 A 
ATOM      3  C   UNL     1      47.382   7.517  12.838  0.00  0.00    +0.000 A 
ATOM      4  C   UNL     1      47.670   6.653  13.928  0.00  0.00    +0.000 A 
ATOM      5  C   UNL     1      48.650   6.659  14.937  0.00  0.00    +0.000 A 
ATOM      6  C   UNL     1      48.643   5.651  15.907  0.00  0.00    +0.000 A 
ATOM      7  F   UNL     1      49.561   5.725  16.886  0.00  0.00    +0.000 F 
ATOM      8  C   UNL     1      47.719   4.611  15.868  0.00  0.00    +0.000 A 
ATOM      9  C   UNL     1      46.776   4.563  14.826  0.00  0.00    +0.000 A 
ATOM     10  C   UNL     1      46.730   5.620  13.898  0.00  0.00    +0.000 A 
ENDROOT
BRANCH   8  11
ATOM     11  C   UNL     1      47.642   3.557  16.915  0.00  0.00    +0.000 C 
ATOM     12  N   UNL     1      48.800   2.958  17.318  0.00  0.00    +0.000 N 
ATOM     13  O   UNL     1      46.573   3.245  17.427  0.00  0.00    +0.000 OA
ATOM     14  H   UNL     1      49.709   3.206  16.945  0.00  0.00    +0.000 HD
ATOM     15  H   UNL     1      48.751   2.268  18.056  0.00  0.00    +0.000 HD
ENDBRANCH   8  11
BRANCH   1  16
ATOM     16  C   UNL     1      44.610   5.193  12.570  0.00  0.00    +0.000 C 
BRANCH  16  19
ATOM     17  C   UNL     1      44.327   3.351  10.144  0.00  0.00    +0.000 C 
ATOM     18  C   UNL     1      45.466   3.224  11.143  0.00  0.00    +0.000 C 
ATOM     19  C   UNL     1      44.797   3.666  12.433  0.00  0.00    +0.000 C 
ATOM     20  C   UNL     1      43.447   2.971  12.271  0.00  0.00    +0.000 C 
ATOM     21  O   UNL     1      43.136   2.964  10.865  0.00  0.00    +0.000 OA
BRANCH  17  22
ATOM     22  C   UNL     1      44.507   2.570   8.840  0.00  0.00    +0.000 C 
BRANCH  22  23
ATOM     23  N   UNL     1      45.491   1.490   8.951  0.00  0.00    +0.000 NA
ATOM     24  H   UNL     1      46.016   1.436   8.080  0.00  0.00    +0.000 HD
ATOM     25  H   UNL     1      44.971   0.614   9.028  0.00  0.00    +0.000 HD
ENDBRANCH  22  23
ENDBRANCH  17  22
ENDBRANCH  16  19
ENDBRANCH   1  16
TORSDOF 5
ENDMDL
MODEL 6
REMARK VINA RESULT:    -6.134      4.350      7.641
REMARK INTER + INTRA:          -8.215
REMARK INTER:                  -7.714
REMARK INTRA:                  -0.502
REMARK UNBOUND:                -0.467
REMARK  Name = 
REMARK  5 active torsions:
REMARK  status: ('A' for Active; 'I' for Inactive)
REMARK    1  A    between atoms: N_1  and  C_2
REMARK    2  A    between atoms: C_2  and  C_3
REMARK    3  A    between atoms: C_5  and  C_6
REMARK    4  A    between atoms: C_6  and  N_7
REMARK    5  A    between atoms: C_14  and  C_15
REMARK                            x       y       z     vdW  Elec       q    Type
REMARK                         _______ _______ _______ _____ _____    ______ ____
ROOT
ATOM      1  N   UNL     1      47.572   5.248  14.656  0.00  0.00    +0.000 N 
ATOM      2  C   UNL     1      48.140   6.497  14.586  0.00  0.00    +0.000 A 
ATOM      3  C   UNL     1      47.609   7.148  13.496  0.00  0.00    +0.000 A 
ATOM      4  C   UNL     1      46.674   6.271  12.883  0.00  0.00    +0.000 A 
ATOM      5  C   UNL     1      45.869   6.361  11.732  0.00  0.00    +0.000 A 
ATOM      6  C   UNL     1      45.056   5.281  11.377  0.00  0.00    +0.000 A 
ATOM      7  F   UNL     1      44.347   5.385  10.240  0.00  0.00    +0.000 F 
ATOM      8  C   UNL     1      44.984   4.135  12.163  0.00  0.00    +0.000 A 
ATOM      9  C   UNL     1      45.737   4.062  13.348  0.00  0.00    +0.000 A 
ATOM     10  C   UNL     1      46.617   5.113  13.663  0.00  0.00    +0.000 A 
ENDROOT
BRANCH   8  11
ATOM     11  C   UNL     1      44.179   2.942  11.785  0.00  0.00    +0.000 C 
ATOM     12  N   UNL     1      44.376   2.391  10.552  0.00  0.00    +0.000 N 
ATOM     13  O   UNL     1      43.374   2.444  12.564  0.00  0.00    +0.000 OA
ATOM     14  H   UNL     1      45.052   2.750   9.889  0.00  0.00    +0.000 HD
ATOM     15  H   UNL     1      43.855   1.559  10.310  0.00  0.00    +0.000 HD
ENDBRANCH   8  11
BRANCH   1  16
ATOM     16  C   UNL     1      47.968   4.232  15.623  0.00  0.00    +0.000 C 
BRANCH  16  19
ATOM     17  C   UNL     1      48.690   4.392  18.591  0.00  0.00    +0.000 C 
ATOM     18  C   UNL     1      47.499   5.128  17.995  0.00  0.00    +0.000 C 
ATOM     19  C   UNL     1      47.077   4.182  16.884  0.00  0.00    +0.000 C 
ATOM     20  C   UNL     1      47.244   2.849  17.608  0.00  0.00    +0.000 C 
ATOM     21  O   UNL     1      48.355   2.989  18.514  0.00  0.00    +0.000 OA
BRANCH  17  22
ATOM     22  C   UNL     1      49.088   4.827  20.004  0.00  0.00    +0.000 C 
BRANCH  22  23
ATOM     23  N   UNL     1      48.423   4.046  21.051  0.00  0.00    +0.000 NA
ATOM     24  H   UNL     1      48.963   4.128  21.912  0.00  0.00    +0.000 HD
ATOM     25  H   UNL     1      48.472   3.065  20.774  0.00  0.00    +0.000 HD
ENDBRANCH  22  23
ENDBRANCH  17  22
ENDBRANCH  16  19
ENDBRANCH   1  16
TORSDOF 5
ENDMDL
MODEL 7
REMARK VINA RESULT:    -6.018      3.421      5.214
REMARK INTER + INTRA:          -8.069
REMARK INTER:                  -7.423
REMARK INTRA:                  -0.645
REMARK UNBOUND:                -0.467
REMARK  Name = 
REMARK  5 active torsions:
REMARK  status: ('A' for Active; 'I' for Inactive)
REMARK    1  A    between atoms: N_1  and  C_2
REMARK    2  A    between atoms: C_2  and  C_3
REMARK    3  A    between atoms: C_5  and  C_6
REMARK    4  A    between atoms: C_6  and  N_7
REMARK    5  A    between atoms: C_14  and  C_15
REMARK                            x       y       z     vdW  Elec       q    Type
REMARK                         _______ _______ _______ _____ _____    ______ ____
ROOT
ATOM      1  N   UNL     1      47.547   6.753  13.333  0.00  0.00    +0.000 N 
ATOM      2  C   UNL     1      48.088   8.009  13.204  0.00  0.00    +0.000 A 
ATOM      3  C   UNL     1      48.771   8.302  14.362  0.00  0.00    +0.000 A 
ATOM      4  C   UNL     1      48.654   7.181  15.228  0.00  0.00    +0.000 A 
ATOM      5  C   UNL     1      49.094   6.917  16.537  0.00  0.00    +0.000 A 
ATOM      6  C   UNL     1      48.782   5.691  17.133  0.00  0.00    +0.000 A 
ATOM      7  F   UNL     1      49.172   5.501  18.405  0.00  0.00    +0.000 F 
ATOM      8  C   UNL     1      48.088   4.703  16.441  0.00  0.00    +0.000 A 
ATOM      9  C   UNL     1      47.699   4.934  15.110  0.00  0.00    +0.000 A 
ATOM     10  C   UNL     1      47.941   6.197  14.538  0.00  0.00    +0.000 A 
ENDROOT
BRANCH   8  11
ATOM     11  C   UNL     1      47.683   3.412  17.061  0.00  0.00    +0.000 C 
ATOM     12  N   UNL     1      48.660   2.520  17.395  0.00  0.00    +0.000 N 
ATOM     13  O   UNL     1      46.507   3.157  17.292  0.00  0.00    +0.000 OA
ATOM     14  H   UNL     1      49.647   2.702  17.251  0.00  0.00    +0.000 HD
ATOM     15  H   UNL     1      48.388   1.659  17.850  0.00  0.00    +0.000 HD
ENDBRANCH   8  11
BRANCH   1  16
ATOM     16  C   UNL     1      46.666   6.145  12.345  0.00  0.00    +0.000 C 
BRANCH  16  19
ATOM     17  C   UNL     1      44.430   4.231  11.510  0.00  0.00    +0.000 C 
ATOM     18  C   UNL     1      44.654   4.652  12.954  0.00  0.00    +0.000 C 
ATOM     19  C   UNL     1      45.188   6.064  12.785  0.00  0.00    +0.000 C 
ATOM     20  C   UNL     1      44.266   6.552  11.670  0.00  0.00    +0.000 C 
ATOM     21  O   UNL     1      43.978   5.421  10.826  0.00  0.00    +0.000 OA
BRANCH  17  22
ATOM     22  C   UNL     1      43.486   3.042  11.311  0.00  0.00    +0.000 C 
BRANCH  22  23
ATOM     23  N   UNL     1      43.482   2.119  12.449  0.00  0.00    +0.000 NA
ATOM     24  H   UNL     1      44.045   2.521  13.198  0.00  0.00    +0.000 HD
ATOM     25  H   UNL     1      43.966   1.270  12.151  0.00  0.00    +0.000 HD
ENDBRANCH  22  23
ENDBRANCH  17  22
ENDBRANCH  16  19
ENDBRANCH   1  16
TORSDOF 5
ENDMDL
MODEL 8
REMARK VINA RESULT:    -5.317      3.413      4.417
REMARK INTER + INTRA:          -7.183
REMARK INTER:                  -6.393
REMARK INTRA:                  -0.790
REMARK UNBOUND:                -0.467
REMARK  Name = 
REMARK  5 active torsions:
REMARK  status: ('A' for Active; 'I' for Inactive)
REMARK    1  A    between atoms: N_1  and  C_2
REMARK    2  A    between atoms: C_2  and  C_3
REMARK    3  A    between atoms: C_5  and  C_6
REMARK    4  A    between atoms: C_6  and  N_7
REMARK    5  A    between atoms: C_14  and  C_15
REMARK                            x       y       z     vdW  Elec       q    Type
REMARK                         _______ _______ _______ _____ _____    ______ ____
ROOT
ATOM      1  N   UNL     1      45.594   6.969  11.403  0.00  0.00    +0.000 N 
ATOM      2  C   UNL     1      44.480   7.771  11.346  0.00  0.00    +0.000 A 
ATOM      3  C   UNL     1      44.855   9.049  11.693  0.00  0.00    +0.000 A 
ATOM      4  C   UNL     1      46.251   9.033  11.960  0.00  0.00    +0.000 A 
ATOM      5  C   UNL     1      47.168  10.008  12.393  0.00  0.00    +0.000 A 
ATOM      6  C   UNL     1      48.505   9.653  12.592  0.00  0.00    +0.000 A 
ATOM      7  F   UNL     1      49.335  10.600  13.061  0.00  0.00    +0.000 F 
ATOM      8  C   UNL     1      48.964   8.367  12.324  0.00  0.00    +0.000 A 
ATOM      9  C   UNL     1      48.067   7.402  11.830  0.00  0.00    +0.000 A 
ATOM     10  C   UNL     1      46.706   7.736  11.707  0.00  0.00    +0.000 A 
ENDROOT
BRANCH   8  11
ATOM     11  C   UNL     1      50.364   7.936  12.582  0.00  0.00    +0.000 C 
ATOM     12  N   UNL     1      51.107   7.483  11.531  0.00  0.00    +0.000 N 
ATOM     13  O   UNL     1      50.855   8.005  13.703  0.00  0.00    +0.000 OA
ATOM     14  H   UNL     1      50.753   7.439  10.583  0.00  0.00    +0.000 HD
ATOM     15  H   UNL     1      52.070   7.226  11.700  0.00  0.00    +0.000 HD
ENDBRANCH   8  11
BRANCH   1  16
ATOM     16  C   UNL     1      45.564   5.526  11.201  0.00  0.00    +0.000 C 
BRANCH  16  19
ATOM     17  C   UNL     1      46.621   4.373  13.830  0.00  0.00    +0.000 C 
ATOM     18  C   UNL     1      45.294   5.109  13.731  0.00  0.00    +0.000 C 
ATOM     19  C   UNL     1      44.845   4.749  12.325  0.00  0.00    +0.000 C 
ATOM     20  C   UNL     1      45.243   3.276  12.301  0.00  0.00    +0.000 C 
ATOM     21  O   UNL     1      46.434   3.141  13.099  0.00  0.00    +0.000 OA
BRANCH  17  22
ATOM     22  C   UNL     1      47.139   4.142  15.252  0.00  0.00    +0.000 C 
BRANCH  22  23
ATOM     23  N   UNL     1      47.930   5.266  15.762  0.00  0.00    +0.000 NA
ATOM     24  H   UNL     1      48.598   4.912  16.445  0.00  0.00    +0.000 HD
ATOM     25  H   UNL     1      47.292   5.876  16.275  0.00  0.00    +0.000 HD
ENDBRANCH  22  23
ENDBRANCH  17  22
ENDBRANCH  16  19
ENDBRANCH   1  16
TORSDOF 5
ENDMDL
MODEL 9
REMARK VINA RESULT:    -5.242      2.240      3.054
REMARK INTER + INTRA:          -7.088
REMARK INTER:                  -7.314
REMARK INTRA:                   0.226
REMARK UNBOUND:                -0.467
REMARK  Name = 
REMARK  5 active torsions:
REMARK  status: ('A' for Active; 'I' for Inactive)
REMARK    1  A    between atoms: N_1  and  C_2
REMARK    2  A    between atoms: C_2  and  C_3
REMARK    3  A    between atoms: C_5  and  C_6
REMARK    4  A    between atoms: C_6  and  N_7
REMARK    5  A    between atoms: C_14  and  C_15
REMARK                            x       y       z     vdW  Elec       q    Type
REMARK                         _______ _______ _______ _____ _____    ______ ____
ROOT
ATOM      1  N   UNL     1      44.896   4.062  11.282  0.00  0.00    +0.000 N 
ATOM      2  C   UNL     1      45.685   3.270  12.081  0.00  0.00    +0.000 A 
ATOM      3  C   UNL     1      46.342   4.084  12.975  0.00  0.00    +0.000 A 
ATOM      4  C   UNL     1      45.932   5.421  12.723  0.00  0.00    +0.000 A 
ATOM      5  C   UNL     1      46.290   6.666  13.274  0.00  0.00    +0.000 A 
ATOM      6  C   UNL     1      45.707   7.833  12.770  0.00  0.00    +0.000 A 
ATOM      7  F   UNL     1      46.119   9.004  13.285  0.00  0.00    +0.000 F 
ATOM      8  C   UNL     1      44.743   7.790  11.768  0.00  0.00    +0.000 A 
ATOM      9  C   UNL     1      44.333   6.546  11.255  0.00  0.00    +0.000 A 
ATOM     10  C   UNL     1      44.977   5.378  11.704  0.00  0.00    +0.000 A 
ENDROOT
BRANCH   8  11
ATOM     11  C   UNL     1      44.147   9.012  11.164  0.00  0.00    +0.000 C 
ATOM     12  N   UNL     1      42.872   8.941  10.684  0.00  0.00    +0.000 N 
ATOM     13  O   UNL     1      44.769  10.067  11.117  0.00  0.00    +0.000 OA
ATOM     14  H   UNL     1      42.310   8.100  10.730  0.00  0.00    +0.000 HD
ATOM     15  H   UNL     1      42.454   9.782  10.308  0.00  0.00    +0.000 HD
ENDBRANCH   8  11
BRANCH   1  16
ATOM     16  C   UNL     1      44.132   3.561  10.147  0.00  0.00    +0.000 C 
BRANCH  16  19
ATOM     17  C   UNL     1      45.968   2.684   7.864  0.00  0.00    +0.000 C 
ATOM     18  C   UNL     1      44.598   3.298   7.625  0.00  0.00    +0.000 C 
ATOM     19  C   UNL     1      44.474   4.246   8.806  0.00  0.00    +0.000 C 
ATOM     20  C   UNL     1      45.895   4.803   8.834  0.00  0.00    +0.000 C 
ATOM     21  O   UNL     1      46.778   3.747   8.412  0.00  0.00    +0.000 OA
BRANCH  17  22
ATOM     22  C   UNL     1      46.612   2.021   6.642  0.00  0.00    +0.000 C 
BRANCH  22  23
ATOM     23  N   UNL     1      47.979   1.560   6.897  0.00  0.00    +0.000 NA
ATOM     24  H   UNL     1      48.595   1.958   6.189  0.00  0.00    +0.000 HD
ATOM     25  H   UNL     1      47.990   0.549   6.749  0.00  0.00    +0.000 HD
ENDBRANCH  22  23
ENDBRANCH  17  22
ENDBRANCH  16  19
ENDBRANCH   1  16
TORSDOF 5
ENDMDL
