MODEL 1
REMARK VINA RESULT:    -6.950      0.000      0.000
REMARK INTER + INTRA:          -8.646
REMARK INTER:                  -8.982
REMARK INTRA:                   0.336
REMARK UNBOUND:                 0.336
REMARK  Name = 
REMARK  7 active torsions:
REMARK  status: ('A' for Active; 'I' for Inactive)
REMARK    1  A    between atoms: C_1  and  C_2
REMARK    2  A    between atoms: C_2  and  C_3
REMARK    3  A    between atoms: C_6  and  O_7
REMARK    4  A    between atoms: O_7  and  C_8
REMARK    5  A    between atoms: C_15  and  C_16
REMARK    6  A    between atoms: C_15  and  C_17
REMARK    7  A    between atoms: C_21  and  C_22
REMARK                            x       y       z     vdW  Elec       q    Type
REMARK                         _______ _______ _______ _____ _____    ______ ____
ROOT
ATOM      1  C   UNL     1      45.618   6.967  12.732  0.00  0.00    +0.000 C 
ATOM      2  C   UNL     1      45.488   5.470  12.536  0.00  0.00    +0.000 C 
ATOM      3  C   UNL     1      44.702   4.706  13.583  0.00  0.00    +0.000 C 
ATOM      4  C   UNL     1      46.200   4.506  13.536  0.00  0.00    +0.000 C 
ATOM      5  C   UNL     1      46.659   3.126  13.088  0.00  0.00    +0.000 C 
ENDROOT
BRANCH   2   6
ATOM      6  C   UNL     1      45.341   5.045  11.082  0.00  0.00    +0.000 A 
ATOM      7  C   UNL     1      46.012   5.700  10.052  0.00  0.00    +0.000 A 
ATOM      8  C   UNL     1      45.964   5.213   8.745  0.00  0.00    +0.000 A 
ATOM      9  C   UNL     1      45.259   4.047   8.480  0.00  0.00    +0.000 A 
ATOM     10  N   UNL     1      44.498   3.458   9.427  0.00  0.00    +0.000 NA
ATOM     11  C   UNL     1      44.550   3.972  10.681  0.00  0.00    +0.000 A 
BRANCH   9  12
ATOM     12  O   UNL     1      45.184   3.436   7.281  0.00  0.00    +0.000 OA
BRANCH  12  13
ATOM     13  C   UNL     1      46.345   2.778   6.813  0.00  0.00    +0.000 C 
ATOM     14  F   UNL     1      47.514   3.370   7.144  0.00  0.00    +0.000 F 
ATOM     15  F   UNL     1      46.376   1.517   7.301  0.00  0.00    +0.000 F 
ATOM     16  F   UNL     1      46.282   2.701   5.464  0.00  0.00    +0.000 F 
ENDBRANCH  12  13
ENDBRANCH   9  12
ENDBRANCH   2   6
BRANCH   4  17
ATOM     17  C   UNL     1      47.110   5.119  14.606  0.00  0.00    +0.000 A 
ATOM     18  C   UNL     1      47.956   6.211  14.361  0.00  0.00    +0.000 A 
ATOM     19  C   UNL     1      48.731   6.731  15.390  0.00  0.00    +0.000 A 
ATOM     20  N   UNL     1      48.714   6.274  16.658  0.00  0.00    +0.000 NA
ATOM     21  C   UNL     1      47.879   5.227  16.895  0.00  0.00    +0.000 A 
ATOM     22  C   UNL     1      47.094   4.625  15.919  0.00  0.00    +0.000 A 
BRANCH  21  23
ATOM     23  C   UNL     1      47.785   4.738  18.307  0.00  0.00    +0.000 C 
ATOM     24  N   UNL     1      46.840   5.351  19.090  0.00  0.00    +0.000 N 
ATOM     25  O   UNL     1      48.486   3.834  18.743  0.00  0.00    +0.000 OA
ATOM     26  H   UNL     1      46.244   6.069  18.691  0.00  0.00    +0.000 HD
ATOM     27  H   UNL     1      46.692   5.024  20.032  0.00  0.00    +0.000 HD
ENDBRANCH  21  23
ENDBRANCH   4  17
TORSDOF 5
ENDMDL
MODEL 2
REMARK VINA RESULT:    -6.600      1.423      2.387
REMARK INTER + INTRA:          -8.193
REMARK INTER:                  -8.471
REMARK INTRA:                   0.278
REMARK UNBOUND:                 0.336
REMARK  Name = 
REMARK  7 active torsions:
REMARK  status: ('A' for Active; 'I' for Inactive)
REMARK    1  A    between atoms: C_1  and  C_2
REMARK    2  A    between atoms: C_2  and  C_3
REMARK    3  A    between atoms: C_6  and  O_7
REMARK    4  A    between atoms: O_7  and  C_8
REMARK    5  A    between atoms: C_15  and  C_16
REMARK    6  A    between atoms: C_15  and  C_17
REMARK    7  A    between atoms: C_21  and  C_22
REMARK                            x       y       z     vdW  Elec       q    Type
REMARK                         _______ _______ _______ _____ _____    ______ ____
ROOT
ATOM      1  C   UNL     1      45.635   7.022  12.871  0.00  0.00    +0.000 C 
ATOM      2  C   UNL     1      45.507   5.533  12.624  0.00  0.00    +0.000 C 
ATOM      3  C   UNL     1      44.723   4.732  13.644  0.00  0.00    +0.000 C 
ATOM      4  C   UNL     1      46.220   4.535  13.590  0.00  0.00    +0.000 C 
ATOM      5  C   UNL     1      46.681   3.172  13.094  0.00  0.00    +0.000 C 
ENDROOT
BRANCH   2   6
ATOM      6  C   UNL     1      45.360   5.157  11.156  0.00  0.00    +0.000 A 
ATOM      7  C   UNL     1      46.064   5.818  10.152  0.00  0.00    +0.000 A 
ATOM      8  C   UNL     1      46.011   5.374   8.830  0.00  0.00    +0.000 A 
ATOM      9  C   UNL     1      45.268   4.242   8.524  0.00  0.00    +0.000 A 
ATOM     10  N   UNL     1      44.476   3.652   9.445  0.00  0.00    +0.000 NA
ATOM     11  C   UNL     1      44.534   4.126  10.715  0.00  0.00    +0.000 A 
BRANCH   9  12
ATOM     12  O   UNL     1      45.183   3.670   7.306  0.00  0.00    +0.000 OA
BRANCH  12  13
ATOM     13  C   UNL     1      46.284   2.896   6.874  0.00  0.00    +0.000 C 
ATOM     14  F   UNL     1      46.299   2.603   5.555  0.00  0.00    +0.000 F 
ATOM     15  F   UNL     1      47.434   3.549   7.158  0.00  0.00    +0.000 F 
ATOM     16  F   UNL     1      46.286   1.731   7.562  0.00  0.00    +0.000 F 
ENDBRANCH  12  13
ENDBRANCH   9  12
ENDBRANCH   2   6
BRANCH   4  17
ATOM     17  C   UNL     1      47.131   5.113  14.679  0.00  0.00    +0.000 A 
ATOM     18  C   UNL     1      47.156   4.627  15.995  0.00  0.00    +0.000 A 
ATOM     19  C   UNL     1      48.030   5.183  16.922  0.00  0.00    +0.000 A 
ATOM     20  N   UNL     1      48.909   6.166  16.640  0.00  0.00    +0.000 NA
ATOM     21  C   UNL     1      48.893   6.621  15.359  0.00  0.00    +0.000 A 
ATOM     22  C   UNL     1      48.030   6.145  14.378  0.00  0.00    +0.000 A 
BRANCH  21  23
ATOM     23  C   UNL     1      49.902   7.665  14.995  0.00  0.00    +0.000 C 
ATOM     24  N   UNL     1      50.461   7.548  13.747  0.00  0.00    +0.000 N 
ATOM     25  O   UNL     1      50.204   8.583  15.745  0.00  0.00    +0.000 OA
ATOM     26  H   UNL     1      50.161   6.801  13.130  0.00  0.00    +0.000 HD
ATOM     27  H   UNL     1      51.103   8.255  13.426  0.00  0.00    +0.000 HD
ENDBRANCH  21  23
ENDBRANCH   4  17
TORSDOF 5
ENDMDL
MODEL 3
REMARK VINA RESULT:    -6.496      4.370      8.117
REMARK INTER + INTRA:          -8.058
REMARK INTER:                  -7.668
REMARK INTRA:                  -0.390
REMARK UNBOUND:                 0.336
REMARK  Name = 
REMARK  7 active torsions:
REMARK  status: ('A' for Active; 'I' for Inactive)
REMARK    1  A    between atoms: C_1  and  C_2
REMARK    2  A    between atoms: C_2  and  C_3
REMARK    3  A    between atoms: C_6  and  O_7
REMARK    4  A    between atoms: O_7  and  C_8
REMARK    5  A    between atoms: C_15  and  C_16
REMARK    6  A    between atoms: C_15  and  C_17
REMARK    7  A    between atoms: C_21  and  C_22
REMARK                            x       y       z     vdW  Elec       q    Type
REMARK                         _______ _______ _______ _____ _____    ______ ____
ROOT
ATOM      1  C   UNL     1      45.341   3.556  12.434  0.00  0.00    +0.000 C 
ATOM      2  C   UNL     1      45.268   4.898  11.736  0.00  0.00    +0.000 C 
ATOM      3  C   UNL     1      43.985   5.220  10.998  0.00  0.00    +0.000 C 
ATOM      4  C   UNL     1      45.223   4.945  10.176  0.00  0.00    +0.000 C 
ATOM      5  C   UNL     1      45.783   6.142   9.420  0.00  0.00    +0.000 C 
ENDROOT
BRANCH   2   6
ATOM      6  C   UNL     1      45.963   6.027  12.485  0.00  0.00    +0.000 A 
ATOM      7  C   UNL     1      47.265   5.901  12.964  0.00  0.00    +0.000 A 
ATOM      8  C   UNL     1      47.926   6.990  13.533  0.00  0.00    +0.000 A 
ATOM      9  C   UNL     1      47.281   8.218  13.597  0.00  0.00    +0.000 A 
ATOM     10  N   UNL     1      45.980   8.345  13.258  0.00  0.00    +0.000 NA
ATOM     11  C   UNL     1      45.362   7.259  12.730  0.00  0.00    +0.000 A 
BRANCH   9  12
ATOM     12  O   UNL     1      47.824   9.362  14.062  0.00  0.00    +0.000 OA
BRANCH  12  13
ATOM     13  C   UNL     1      48.677  10.076  13.190  0.00  0.00    +0.000 C 
ATOM     14  F   UNL     1      48.449   9.880  11.873  0.00  0.00    +0.000 F 
ATOM     15  F   UNL     1      48.560  11.402  13.430  0.00  0.00    +0.000 F 
ATOM     16  F   UNL     1      49.956   9.717  13.451  0.00  0.00    +0.000 F 
ENDBRANCH  12  13
ENDBRANCH   9  12
ENDBRANCH   2   6
BRANCH   4  17
ATOM     17  C   UNL     1      45.382   3.628   9.410  0.00  0.00    +0.000 A 
ATOM     18  C   UNL     1      44.585   2.498   9.650  0.00  0.00    +0.000 A 
ATOM     19  C   UNL     1      44.770   1.347   8.894  0.00  0.00    +0.000 A 
ATOM     20  N   UNL     1      45.665   1.233   7.892  0.00  0.00    +0.000 NA
ATOM     21  C   UNL     1      46.423   2.337   7.651  0.00  0.00    +0.000 A 
ATOM     22  C   UNL     1      46.327   3.517   8.380  0.00  0.00    +0.000 A 
BRANCH  21  23
ATOM     23  C   UNL     1      47.379   2.268   6.502  0.00  0.00    +0.000 C 
ATOM     24  N   UNL     1      47.207   3.213   5.523  0.00  0.00    +0.000 N 
ATOM     25  O   UNL     1      48.277   1.438   6.437  0.00  0.00    +0.000 OA
ATOM     26  H   UNL     1      46.482   3.914   5.623  0.00  0.00    +0.000 HD
ATOM     27  H   UNL     1      47.858   3.251   4.754  0.00  0.00    +0.000 HD
ENDBRANCH  21  23
ENDBRANCH   4  17
TORSDOF 5
ENDMDL
MODEL 4
REMARK VINA RESULT:    -6.444      2.865      3.815
REMARK INTER + INTRA:          -7.991
REMARK INTER:                  -7.161
REMARK INTRA:                  -0.830
REMARK UNBOUND:                 0.336
REMARK  Name = 
REMARK  7 active torsions:
REMARK  status: ('A' for Active; 'I' for Inactive)
REMARK    1  A    between atoms: C_1  and  C_2
REMARK    2  A    between atoms: C_2  and  C_3
REMARK    3  A    between atoms: C_6  and  O_7
REMARK    4  A    between atoms: O_7  and  C_8
REMARK    5  A    between atoms: C_15  and  C_16
REMARK    6  A    between atoms: C_15  and  C_17
REMARK    7  A    between atoms: C_21  and  C_22
REMARK                            x       y       z     vdW  Elec       q    Type
REMARK                         _______ _______ _______ _____ _____    ______ ____
ROOT
ATOM      1  C   UNL     1      48.979   6.529  13.051  0.00  0.00    +0.000 C 
ATOM      2  C   UNL     1      47.745   7.190  12.471  0.00  0.00    +0.000 C 
ATOM      3  C   UNL     1      47.958   8.460  11.672  0.00  0.00    +0.000 C 
ATOM      4  C   UNL     1      47.292   8.578  13.024  0.00  0.00    +0.000 C 
ATOM      5  C   UNL     1      45.825   8.981  12.995  0.00  0.00    +0.000 C 
ENDROOT
BRANCH   2   6
ATOM      6  C   UNL     1      46.686   6.210  11.985  0.00  0.00    +0.000 A 
ATOM      7  C   UNL     1      46.140   6.290  10.706  0.00  0.00    +0.000 A 
ATOM      8  C   UNL     1      45.267   5.307  10.239  0.00  0.00    +0.000 A 
ATOM      9  C   UNL     1      44.965   4.224  11.054  0.00  0.00    +0.000 A 
ATOM     10  N   UNL     1      45.376   4.178  12.339  0.00  0.00    +0.000 NA
ATOM     11  C   UNL     1      46.204   5.164  12.767  0.00  0.00    +0.000 A 
BRANCH   9  12
ATOM     12  O   UNL     1      44.191   3.177  10.705  0.00  0.00    +0.000 OA
BRANCH  12  13
ATOM     13  C   UNL     1      44.541   2.474   9.529  0.00  0.00    +0.000 C 
ATOM     14  F   UNL     1      44.212   3.091   8.372  0.00  0.00    +0.000 F 
ATOM     15  F   UNL     1      45.876   2.261   9.511  0.00  0.00    +0.000 F 
ATOM     16  F   UNL     1      43.927   1.269   9.550  0.00  0.00    +0.000 F 
ENDBRANCH  12  13
ENDBRANCH   9  12
ENDBRANCH   2   6
BRANCH   4  17
ATOM     17  C   UNL     1      48.047   9.157  14.225  0.00  0.00    +0.000 A 
ATOM     18  C   UNL     1      49.089  10.088  14.101  0.00  0.00    +0.000 A 
ATOM     19  C   UNL     1      49.708  10.591  15.240  0.00  0.00    +0.000 A 
ATOM     20  N   UNL     1      49.354  10.268  16.500  0.00  0.00    +0.000 NA
ATOM     21  C   UNL     1      48.331   9.379  16.616  0.00  0.00    +0.000 A 
ATOM     22  C   UNL     1      47.680   8.802  15.531  0.00  0.00    +0.000 A 
BRANCH  21  23
ATOM     23  C   UNL     1      47.868   9.050  18.000  0.00  0.00    +0.000 C 
ATOM     24  N   UNL     1      47.607   7.726  18.245  0.00  0.00    +0.000 N 
ATOM     25  O   UNL     1      47.746   9.897  18.876  0.00  0.00    +0.000 OA
ATOM     26  H   UNL     1      47.757   7.040  17.513  0.00  0.00    +0.000 HD
ATOM     27  H   UNL     1      47.349   7.438  19.176  0.00  0.00    +0.000 HD
ENDBRANCH  21  23
ENDBRANCH   4  17
TORSDOF 5
ENDMDL
MODEL 5
REMARK VINA RESULT:    -6.370      4.165      5.609
REMARK INTER + INTRA:          -7.896
REMARK INTER:                  -6.953
REMARK INTRA:                  -0.944
REMARK UNBOUND:                 0.336
REMARK  Name = 
REMARK  7 active torsions:
REMARK  status: ('A' for Active; 'I' for Inactive)
REMARK    1  A    between atoms: C_1  and  C_2
REMARK    2  A    between atoms: C_2  and  C_3
REMARK    3  A    between atoms: C_6  and  O_7
REMARK    4  A    between atoms: O_7  and  C_8
REMARK    5  A    between atoms: C_15  and  C_16
REMARK    6  A    between atoms: C_15  and  C_17
REMARK    7  A    between atoms: C_21  and  C_22
REMARK                            x       y       z     vdW  Elec       q    Type
REMARK                         _______ _______ _______ _____ _____    ______ ____
ROOT
ATOM      1  C   UNL     1      49.173   7.412  11.409  0.00  0.00    +0.000 C 
ATOM      2  C   UNL     1      48.237   7.894  12.499  0.00  0.00    +0.000 C 
ATOM      3  C   UNL     1      47.924   9.377  12.529  0.00  0.00    +0.000 C 
ATOM      4  C   UNL     1      48.795   8.816  13.630  0.00  0.00    +0.000 C 
ATOM      5  C   UNL     1      48.168   8.806  15.017  0.00  0.00    +0.000 C 
ENDROOT
BRANCH   2   6
ATOM      6  C   UNL     1      47.115   6.921  12.830  0.00  0.00    +0.000 A 
ATOM      7  C   UNL     1      45.777   7.236  12.607  0.00  0.00    +0.000 A 
ATOM      8  C   UNL     1      44.776   6.282  12.797  0.00  0.00    +0.000 A 
ATOM      9  C   UNL     1      45.129   4.997  13.188  0.00  0.00    +0.000 A 
ATOM     10  N   UNL     1      46.398   4.693  13.533  0.00  0.00    +0.000 NA
ATOM     11  C   UNL     1      47.342   5.652  13.358  0.00  0.00    +0.000 A 
BRANCH   9  12
ATOM     12  O   UNL     1      44.273   3.967  13.346  0.00  0.00    +0.000 OA
BRANCH  12  13
ATOM     13  C   UNL     1      43.799   3.332  12.174  0.00  0.00    +0.000 C 
ATOM     14  F   UNL     1      42.787   3.968  11.545  0.00  0.00    +0.000 F 
ATOM     15  F   UNL     1      44.813   3.205  11.288  0.00  0.00    +0.000 F 
ATOM     16  F   UNL     1      43.374   2.090  12.502  0.00  0.00    +0.000 F 
ENDBRANCH  12  13
ENDBRANCH   9  12
ENDBRANCH   2   6
BRANCH   4  17
ATOM     17  C   UNL     1      50.302   9.091  13.659  0.00  0.00    +0.000 A 
ATOM     18  C   UNL     1      50.884  10.239  13.101  0.00  0.00    +0.000 A 
ATOM     19  C   UNL     1      52.257  10.434  13.192  0.00  0.00    +0.000 A 
ATOM     20  N   UNL     1      53.102   9.593  13.822  0.00  0.00    +0.000 NA
ATOM     21  C   UNL     1      52.531   8.490  14.376  0.00  0.00    +0.000 A 
ATOM     22  C   UNL     1      51.173   8.201  14.304  0.00  0.00    +0.000 A 
BRANCH  21  23
ATOM     23  C   UNL     1      53.430   7.570  15.141  0.00  0.00    +0.000 C 
ATOM     24  N   UNL     1      54.215   6.736  14.385  0.00  0.00    +0.000 N 
ATOM     25  O   UNL     1      53.487   7.565  16.363  0.00  0.00    +0.000 OA
ATOM     26  H   UNL     1      54.179   6.791  13.373  0.00  0.00    +0.000 HD
ATOM     27  H   UNL     1      54.882   6.137  14.844  0.00  0.00    +0.000 HD
ENDBRANCH  21  23
ENDBRANCH   4  17
TORSDOF 5
ENDMDL
MODEL 6
REMARK VINA RESULT:    -5.984      4.189      5.267
REMARK INTER + INTRA:          -7.397
REMARK INTER:                  -6.479
REMARK INTRA:                  -0.918
REMARK UNBOUND:                 0.336
REMARK  Name = 
REMARK  7 active torsions:
REMARK  status: ('A' for Active; 'I' for Inactive)
REMARK    1  A    between atoms: C_1  and  C_2
REMARK    2  A    between atoms: C_2  and  C_3
REMARK    3  A    between atoms: C_6  and  O_7
REMARK    4  A    between atoms: O_7  and  C_8
REMARK    5  A    between atoms: C_15  and  C_16
REMARK    6  A    between atoms: C_15  and  C_17
REMARK    7  A    between atoms: C_21  and  C_22
REMARK                            x       y       z     vdW  Elec       q    Type
REMARK                         _______ _______ _______ _____ _____    ______ ____
ROOT
ATOM      1  C   UNL     1      49.734   7.790  11.601  0.00  0.00    +0.000 C 
ATOM      2  C   UNL     1      48.608   8.274  12.491  0.00  0.00    +0.000 C 
ATOM      3  C   UNL     1      48.592   9.749  12.839  0.00  0.00    +0.000 C 
ATOM      4  C   UNL     1      48.936   8.768  13.936  0.00  0.00    +0.000 C 
ATOM      5  C   UNL     1      47.905   8.646  15.049  0.00  0.00    +0.000 C 
ENDROOT
BRANCH   2   6
ATOM      6  C   UNL     1      47.274   7.587  12.234  0.00  0.00    +0.000 A 
ATOM      7  C   UNL     1      46.109   8.309  11.986  0.00  0.00    +0.000 A 
ATOM      8  C   UNL     1      44.928   7.659  11.626  0.00  0.00    +0.000 A 
ATOM      9  C   UNL     1      44.928   6.277  11.491  0.00  0.00    +0.000 A 
ATOM     10  N   UNL     1      46.001   5.538  11.843  0.00  0.00    +0.000 NA
ATOM     11  C   UNL     1      47.125   6.202  12.211  0.00  0.00    +0.000 A 
BRANCH   9  12
ATOM     12  O   UNL     1      43.878   5.533  11.090  0.00  0.00    +0.000 OA
BRANCH  12  13
ATOM     13  C   UNL     1      42.951   5.130  12.079  0.00  0.00    +0.000 C 
ATOM     14  F   UNL     1      43.298   5.434  13.349  0.00  0.00    +0.000 F 
ATOM     15  F   UNL     1      41.752   5.705  11.835  0.00  0.00    +0.000 F 
ATOM     16  F   UNL     1      42.793   3.788  11.998  0.00  0.00    +0.000 F 
ENDBRANCH  12  13
ENDBRANCH   9  12
ENDBRANCH   2   6
BRANCH   4  17
ATOM     17  C   UNL     1      50.376   8.622  14.438  0.00  0.00    +0.000 A 
ATOM     18  C   UNL     1      51.361   9.602  14.242  0.00  0.00    +0.000 A 
ATOM     19  C   UNL     1      52.639   9.411  14.753  0.00  0.00    +0.000 A 
ATOM     20  N   UNL     1      53.015   8.336  15.474  0.00  0.00    +0.000 NA
ATOM     21  C   UNL     1      52.052   7.397  15.677  0.00  0.00    +0.000 A 
ATOM     22  C   UNL     1      50.759   7.492  15.175  0.00  0.00    +0.000 A 
BRANCH  21  23
ATOM     23  C   UNL     1      52.416   6.222  16.530  0.00  0.00    +0.000 C 
ATOM     24  N   UNL     1      53.758   6.015  16.722  0.00  0.00    +0.000 N 
ATOM     25  O   UNL     1      51.578   5.496  17.048  0.00  0.00    +0.000 OA
ATOM     26  H   UNL     1      54.430   6.658  16.316  0.00  0.00    +0.000 HD
ATOM     27  H   UNL     1      54.060   5.275  17.335  0.00  0.00    +0.000 HD
ENDBRANCH  21  23
ENDBRANCH   4  17
TORSDOF 5
ENDMDL
MODEL 7
REMARK VINA RESULT:    -5.916      5.150      8.914
REMARK INTER + INTRA:          -7.310
REMARK INTER:                  -6.506
REMARK INTRA:                  -0.804
REMARK UNBOUND:                 0.336
REMARK  Name = 
REMARK  7 active torsions:
REMARK  status: ('A' for Active; 'I' for Inactive)
REMARK    1  A    between atoms: C_1  and  C_2
REMARK    2  A    between atoms: C_2  and  C_3
REMARK    3  A    between atoms: C_6  and  O_7
REMARK    4  A    between atoms: O_7  and  C_8
REMARK    5  A    between atoms: C_15  and  C_16
REMARK    6  A    between atoms: C_15  and  C_17
REMARK    7  A    between atoms: C_21  and  C_22
REMARK                            x       y       z     vdW  Elec       q    Type
REMARK                         _______ _______ _______ _____ _____    ______ ____
ROOT
ATOM      1  C   UNL     1      47.146   8.374  12.295  0.00  0.00    +0.000 C 
ATOM      2  C   UNL     1      47.733   7.353  13.248  0.00  0.00    +0.000 C 
ATOM      3  C   UNL     1      48.452   6.170  12.632  0.00  0.00    +0.000 C 
ATOM      4  C   UNL     1      47.121   5.918  13.301  0.00  0.00    +0.000 C 
ATOM      5  C   UNL     1      47.179   5.097  14.581  0.00  0.00    +0.000 C 
ENDROOT
BRANCH   2   6
ATOM      6  C   UNL     1      48.310   7.954  14.522  0.00  0.00    +0.000 A 
ATOM      7  C   UNL     1      47.645   8.950  15.234  0.00  0.00    +0.000 A 
ATOM      8  C   UNL     1      48.129   9.393  16.466  0.00  0.00    +0.000 A 
ATOM      9  C   UNL     1      49.274   8.812  16.994  0.00  0.00    +0.000 A 
ATOM     10  N   UNL     1      50.010   7.937  16.278  0.00  0.00    +0.000 NA
ATOM     11  C   UNL     1      49.522   7.545  15.074  0.00  0.00    +0.000 A 
BRANCH   9  12
ATOM     12  O   UNL     1      49.811   9.100  18.197  0.00  0.00    +0.000 OA
BRANCH  12  13
ATOM     13  C   UNL     1      49.460   8.264  19.282  0.00  0.00    +0.000 C 
ATOM     14  F   UNL     1      48.434   7.416  19.046  0.00  0.00    +0.000 F 
ATOM     15  F   UNL     1      50.529   7.519  19.642  0.00  0.00    +0.000 F 
ATOM     16  F   UNL     1      49.123   9.045  20.335  0.00  0.00    +0.000 F 
ENDBRANCH  12  13
ENDBRANCH   9  12
ENDBRANCH   2   6
BRANCH   4  17
ATOM     17  C   UNL     1      45.863   5.640  12.471  0.00  0.00    +0.000 A 
ATOM     18  C   UNL     1      44.570   5.982  12.898  0.00  0.00    +0.000 A 
ATOM     19  C   UNL     1      43.479   5.724  12.077  0.00  0.00    +0.000 A 
ATOM     20  N   UNL     1      43.568   5.179  10.847  0.00  0.00    +0.000 NA
ATOM     21  C   UNL     1      44.824   4.866  10.430  0.00  0.00    +0.000 A 
ATOM     22  C   UNL     1      45.966   5.059  11.199  0.00  0.00    +0.000 A 
BRANCH  21  23
ATOM     23  C   UNL     1      44.965   4.322   9.043  0.00  0.00    +0.000 C 
ATOM     24  N   UNL     1      44.214   3.211   8.757  0.00  0.00    +0.000 N 
ATOM     25  O   UNL     1      45.687   4.839   8.200  0.00  0.00    +0.000 OA
ATOM     26  H   UNL     1      43.593   2.828   9.461  0.00  0.00    +0.000 HD
ATOM     27  H   UNL     1      44.225   2.836   7.821  0.00  0.00    +0.000 HD
ENDBRANCH  21  23
ENDBRANCH   4  17
TORSDOF 5
ENDMDL
MODEL 8
REMARK VINA RESULT:    -5.602      4.782      6.258
REMARK INTER + INTRA:          -6.903
REMARK INTER:                  -6.113
REMARK INTRA:                  -0.790
REMARK UNBOUND:                 0.336
REMARK  Name = 
REMARK  7 active torsions:
REMARK  status: ('A' for Active; 'I' for Inactive)
REMARK    1  A    between atoms: C_1  and  C_2
REMARK    2  A    between atoms: C_2  and  C_3
REMARK    3  A    between atoms: C_6  and  O_7
REMARK    4  A    between atoms: O_7  and  C_8
REMARK    5  A    between atoms: C_15  and  C_16
REMARK    6  A    between atoms: C_15  and  C_17
REMARK    7  A    between atoms: C_21  and  C_22
REMARK                            x       y       z     vdW  Elec       q    Type
REMARK                         _______ _______ _______ _____ _____    ______ ____
ROOT
ATOM      1  C   UNL     1      49.495   7.399  11.400  0.00  0.00    +0.000 C 
ATOM      2  C   UNL     1      48.505   7.944  12.410  0.00  0.00    +0.000 C 
ATOM      3  C   UNL     1      48.299   9.445  12.429  0.00  0.00    +0.000 C 
ATOM      4  C   UNL     1      49.027   8.817  13.595  0.00  0.00    +0.000 C 
ATOM      5  C   UNL     1      48.282   8.847  14.921  0.00  0.00    +0.000 C 
ENDROOT
BRANCH   2   6
ATOM      6  C   UNL     1      47.290   7.054  12.632  0.00  0.00    +0.000 A 
ATOM      7  C   UNL     1      46.008   7.454  12.262  0.00  0.00    +0.000 A 
ATOM      8  C   UNL     1      44.930   6.572  12.357  0.00  0.00    +0.000 A 
ATOM      9  C   UNL     1      45.150   5.275  12.800  0.00  0.00    +0.000 A 
ATOM     10  N   UNL     1      46.352   4.894  13.282  0.00  0.00    +0.000 NA
ATOM     11  C   UNL     1      47.372   5.784  13.196  0.00  0.00    +0.000 A 
BRANCH   9  12
ATOM     12  O   UNL     1      44.214   4.308  12.878  0.00  0.00    +0.000 OA
BRANCH  12  13
ATOM     13  C   UNL     1      43.975   3.540  11.715  0.00  0.00    +0.000 C 
ATOM     14  F   UNL     1      43.398   4.209  10.693  0.00  0.00    +0.000 F 
ATOM     15  F   UNL     1      45.144   3.033  11.261  0.00  0.00    +0.000 F 
ATOM     16  F   UNL     1      43.171   2.502  12.043  0.00  0.00    +0.000 F 
ENDBRANCH  12  13
ENDBRANCH   9  12
ENDBRANCH   2   6
BRANCH   4  17
ATOM     17  C   UNL     1      50.542   8.980  13.758  0.00  0.00    +0.000 A 
ATOM     18  C   UNL     1      51.321   8.144  14.572  0.00  0.00    +0.000 A 
ATOM     19  C   UNL     1      52.696   8.336  14.647  0.00  0.00    +0.000 A 
ATOM     20  N   UNL     1      53.369   9.275  13.952  0.00  0.00    +0.000 NA
ATOM     21  C   UNL     1      52.612  10.071  13.151  0.00  0.00    +0.000 A 
ATOM     22  C   UNL     1      51.230   9.970  13.041  0.00  0.00    +0.000 A 
BRANCH  21  23
ATOM     23  C   UNL     1      53.336  11.080  12.314  0.00  0.00    +0.000 C 
ATOM     24  N   UNL     1      52.672  11.516  11.196  0.00  0.00    +0.000 N 
ATOM     25  O   UNL     1      54.442  11.513  12.609  0.00  0.00    +0.000 OA
ATOM     26  H   UNL     1      51.738  11.172  10.998  0.00  0.00    +0.000 HD
ATOM     27  H   UNL     1      53.086  12.238  10.627  0.00  0.00    +0.000 HD
ENDBRANCH  21  23
ENDBRANCH   4  17
TORSDOF 5
ENDMDL
MODEL 9
REMARK VINA RESULT:    -5.067      9.989     11.056
REMARK INTER + INTRA:          -6.212
REMARK INTER:                  -5.247
REMARK INTRA:                  -0.966
REMARK UNBOUND:                 0.336
REMARK  Name = 
REMARK  7 active torsions:
REMARK  status: ('A' for Active; 'I' for Inactive)
REMARK    1  A    between atoms: C_1  and  C_2
REMARK    2  A    between atoms: C_2  and  C_3
REMARK    3  A    between atoms: C_6  and  O_7
REMARK    4  A    between atoms: O_7  and  C_8
REMARK    5  A    between atoms: C_15  and  C_16
REMARK    6  A    between atoms: C_15  and  C_17
REMARK    7  A    between atoms: C_21  and  C_22
REMARK                            x       y       z     vdW  Elec       q    Type
REMARK                         _______ _______ _______ _____ _____    ______ ____
ROOT
ATOM      1  C   UNL     1      41.129  -2.353  16.667  0.00  0.00    +0.000 C 
ATOM      2  C   UNL     1      40.521  -3.478  15.855  0.00  0.00    +0.000 C 
ATOM      3  C   UNL     1      39.478  -4.335  16.543  0.00  0.00    +0.000 C 
ATOM      4  C   UNL     1      40.824  -4.957  16.254  0.00  0.00    +0.000 C 
ATOM      5  C   UNL     1      40.823  -6.058  15.203  0.00  0.00    +0.000 C 
ENDROOT
BRANCH   2   6
ATOM      6  C   UNL     1      40.312  -3.141  14.386  0.00  0.00    +0.000 A 
ATOM      7  C   UNL     1      41.381  -2.910  13.523  0.00  0.00    +0.000 A 
ATOM      8  C   UNL     1      41.171  -2.730  12.155  0.00  0.00    +0.000 A 
ATOM      9  C   UNL     1      39.880  -2.809  11.651  0.00  0.00    +0.000 A 
ATOM     10  N   UNL     1      38.812  -2.907  12.471  0.00  0.00    +0.000 NA
ATOM     11  C   UNL     1      39.052  -3.057  13.798  0.00  0.00    +0.000 A 
BRANCH   9  12
ATOM     12  O   UNL     1      39.544  -2.718  10.348  0.00  0.00    +0.000 OA
BRANCH  12  13
ATOM     13  C   UNL     1      39.273  -3.924   9.662  0.00  0.00    +0.000 C 
ATOM     14  F   UNL     1      39.711  -5.046  10.275  0.00  0.00    +0.000 F 
ATOM     15  F   UNL     1      37.939  -4.052   9.484  0.00  0.00    +0.000 F 
ATOM     16  F   UNL     1      39.852  -3.863   8.440  0.00  0.00    +0.000 F 
ENDBRANCH  12  13
ENDBRANCH   9  12
ENDBRANCH   2   6
BRANCH   4  17
ATOM     17  C   UNL     1      41.834  -5.208  17.379  0.00  0.00    +0.000 A 
ATOM     18  C   UNL     1      41.499  -5.138  18.740  0.00  0.00    +0.000 A 
ATOM     19  C   UNL     1      42.463  -5.408  19.705  0.00  0.00    +0.000 A 
ATOM     20  N   UNL     1      43.731  -5.772  19.429  0.00  0.00    +0.000 NA
ATOM     21  C   UNL     1      44.046  -5.856  18.108  0.00  0.00    +0.000 A 
ATOM     22  C   UNL     1      43.154  -5.572  17.080  0.00  0.00    +0.000 A 
BRANCH  21  23
ATOM     23  C   UNL     1      45.425  -6.324  17.765  0.00  0.00    +0.000 C 
ATOM     24  N   UNL     1      46.384  -6.113  18.724  0.00  0.00    +0.000 N 
ATOM     25  O   UNL     1      45.692  -6.880  16.708  0.00  0.00    +0.000 OA
ATOM     26  H   UNL     1      46.126  -5.687  19.608  0.00  0.00    +0.000 HD
ATOM     27  H   UNL     1      47.318  -6.459  18.572  0.00  0.00    +0.000 HD
ENDBRANCH  21  23
ENDBRANCH   4  17
TORSDOF 5
ENDMDL
