MODEL 1
REMARK VINA RESULT:    -9.354      0.000      0.000
REMARK INTER + INTRA:         -13.308
REMARK INTER:                 -12.362
REMARK INTRA:                  -0.946
REMARK UNBOUND:                -0.946
REMARK  Name = 
REMARK  6 active torsions:
REMARK  status: ('A' for Active; 'I' for Inactive)
REMARK    1  A    between atoms: C_2  and  C_19
REMARK    2  A    between atoms: N_3  and  C_4
REMARK    3  A    between atoms: C_4  and  C_5
REMARK    4  A    between atoms: N_9  and  C_10
REMARK    5  A    between atoms: C_10  and  C_11
REMARK    6  A    between atoms: C_14  and  O_15
REMARK                            x       y       z     vdW  Elec       q    Type
REMARK                         _______ _______ _______ _____ _____    ______ ____
ROOT
ATOM      1  C   UNL     1      46.259   5.872  11.789  0.00  0.00    +0.000 C 
ENDROOT
BRANCH   1   2
ATOM      2  C   UNL     1      44.731   5.975  11.641  0.00  0.00    +0.000 C 
ATOM      3  C   UNL     1      43.960   5.422  12.850  0.00  0.00    +0.000 C 
ATOM      4  C   UNL     1      44.132   3.911  12.973  0.00  0.00    +0.000 C 
ATOM      5  C   UNL     1      43.819   3.193  11.655  0.00  0.00    +0.000 C 
ATOM      6  N   UNL     1      44.514   3.779  10.501  0.00  0.00    +0.000 NA
ATOM      7  C   UNL     1      44.272   5.222  10.381  0.00  0.00    +0.000 C 
BRANCH   6   8
ATOM      8  C   UNL     1      44.273   3.045   9.243  0.00  0.00    +0.000 C 
BRANCH   8   9
ATOM      9  C   UNL     1      45.499   2.732   8.409  0.00  0.00    +0.000 A 
ATOM     10  C   UNL     1      46.109   3.723   7.623  0.00  0.00    +0.000 A 
ATOM     11  C   UNL     1      47.137   3.395   6.738  0.00  0.00    +0.000 A 
ATOM     12  C   UNL     1      47.572   2.077   6.656  0.00  0.00    +0.000 A 
ATOM     13  C   UNL     1      47.044   1.097   7.486  0.00  0.00    +0.000 A 
ATOM     14  C   UNL     1      46.008   1.424   8.361  0.00  0.00    +0.000 A 
BRANCH  12  15
ATOM     15  O   UNL     1      48.509   1.697   5.740  0.00  0.00    +0.000 OA
ATOM     16  H   UNL     1      49.379   1.974   6.072  0.00  0.00    +0.000 HD
ENDBRANCH  12  15
ENDBRANCH   8   9
ENDBRANCH   6   8
ENDBRANCH   1   2
BRANCH   1  19
ATOM     17  O   UNL     1      48.878   6.410  12.747  0.00  0.00    +0.000 OA
ATOM     18  C   UNL     1      47.982   6.177  13.555  0.00  0.00    +0.000 C 
ATOM     19  N   UNL     1      46.692   5.939  13.165  0.00  0.00    +0.000 N 
ATOM     20  H   UNL     1      45.989   5.712  13.861  0.00  0.00    +0.000 HD
BRANCH  18  21
ATOM     21  C   UNL     1      48.232   6.161  15.003  0.00  0.00    +0.000 A 
ATOM     22  C   UNL     1      48.780   7.279  15.617  0.00  0.00    +0.000 A 
ATOM     23  S   UNL     1      49.017   7.091  17.295  0.00  0.00    +0.000 S 
ATOM     24  C   UNL     1      48.425   5.497  17.256  0.00  0.00    +0.000 A 
ATOM     25  N   UNL     1      48.386   4.739  18.384  0.00  0.00    +0.000 NA
ATOM     26  C   UNL     1      47.929   3.544  18.213  0.00  0.00    +0.000 A 
ATOM     27  N   UNL     1      47.498   3.039  17.015  0.00  0.00    +0.000 N 
ATOM     28  C   UNL     1      47.480   3.779  15.859  0.00  0.00    +0.000 A 
ATOM     29  O   UNL     1      47.005   3.314  14.826  0.00  0.00    +0.000 OA
ATOM     30  C   UNL     1      48.018   5.122  15.987  0.00  0.00    +0.000 A 
ATOM     31  H   UNL     1      47.121   2.105  16.952  0.00  0.00    +0.000 HD
ENDBRANCH  18  21
ENDBRANCH   1  19
TORSDOF 6
ENDMDL
MODEL 2
REMARK VINA RESULT:    -9.334      1.346      2.251
REMARK INTER + INTRA:         -13.282
REMARK INTER:                 -12.241
REMARK INTRA:                  -1.041
REMARK UNBOUND:                -0.946
REMARK  Name = 
REMARK  6 active torsions:
REMARK  status: ('A' for Active; 'I' for Inactive)
REMARK    1  A    between atoms: C_2  and  C_19
REMARK    2  A    between atoms: N_3  and  C_4
REMARK    3  A    between atoms: C_4  and  C_5
REMARK    4  A    between atoms: N_9  and  C_10
REMARK    5  A    between atoms: C_10  and  C_11
REMARK    6  A    between atoms: C_14  and  O_15
REMARK                            x       y       z     vdW  Elec       q    Type
REMARK                         _______ _______ _______ _____ _____    ______ ____
ROOT
ATOM      1  C   UNL     1      46.344   4.973  12.484  0.00  0.00    +0.000 C 
ENDROOT
BRANCH   1   2
ATOM      2  C   UNL     1      44.913   5.478  12.229  0.00  0.00    +0.000 C 
ATOM      3  C   UNL     1      43.865   4.840  13.154  0.00  0.00    +0.000 C 
ATOM      4  C   UNL     1      43.697   3.353  12.860  0.00  0.00    +0.000 C 
ATOM      5  C   UNL     1      43.452   3.091  11.369  0.00  0.00    +0.000 C 
ATOM      6  N   UNL     1      44.426   3.764  10.498  0.00  0.00    +0.000 NA
ATOM      7  C   UNL     1      44.511   5.205  10.770  0.00  0.00    +0.000 C 
BRANCH   6   8
ATOM      8  C   UNL     1      44.236   3.455   9.067  0.00  0.00    +0.000 C 
BRANCH   8   9
ATOM      9  C   UNL     1      45.469   2.988   8.319  0.00  0.00    +0.000 A 
ATOM     10  C   UNL     1      46.182   3.864   7.485  0.00  0.00    +0.000 A 
ATOM     11  C   UNL     1      47.217   3.390   6.677  0.00  0.00    +0.000 A 
ATOM     12  C   UNL     1      47.556   2.043   6.722  0.00  0.00    +0.000 A 
ATOM     13  C   UNL     1      46.923   1.176   7.603  0.00  0.00    +0.000 A 
ATOM     14  C   UNL     1      45.880   1.647   8.400  0.00  0.00    +0.000 A 
BRANCH  12  15
ATOM     15  O   UNL     1      48.498   1.523   5.884  0.00  0.00    +0.000 OA
ATOM     16  H   UNL     1      48.441   0.554   5.936  0.00  0.00    +0.000 HD
ENDBRANCH  12  15
ENDBRANCH   8   9
ENDBRANCH   6   8
ENDBRANCH   1   2
BRANCH   1  19
ATOM     17  O   UNL     1      47.381   3.142  14.392  0.00  0.00    +0.000 OA
ATOM     18  C   UNL     1      47.274   4.328  14.697  0.00  0.00    +0.000 C 
ATOM     19  N   UNL     1      46.811   5.269  13.819  0.00  0.00    +0.000 N 
ATOM     20  H   UNL     1      46.701   6.231  14.121  0.00  0.00    +0.000 HD
BRANCH  18  21
ATOM     21  C   UNL     1      47.662   4.821  16.026  0.00  0.00    +0.000 A 
ATOM     22  C   UNL     1      47.119   4.235  17.161  0.00  0.00    +0.000 A 
ATOM     23  S   UNL     1      47.664   4.932  18.619  0.00  0.00    +0.000 S 
ATOM     24  C   UNL     1      48.621   6.064  17.785  0.00  0.00    +0.000 A 
ATOM     25  N   UNL     1      49.341   7.000  18.458  0.00  0.00    +0.000 NA
ATOM     26  C   UNL     1      50.012   7.806  17.705  0.00  0.00    +0.000 A 
ATOM     27  N   UNL     1      50.034   7.756  16.337  0.00  0.00    +0.000 N 
ATOM     28  C   UNL     1      49.356   6.804  15.615  0.00  0.00    +0.000 A 
ATOM     29  O   UNL     1      49.474   6.745  14.394  0.00  0.00    +0.000 OA
ATOM     30  C   UNL     1      48.555   5.892  16.413  0.00  0.00    +0.000 A 
ATOM     31  H   UNL     1      50.604   8.396  15.804  0.00  0.00    +0.000 HD
ENDBRANCH  18  21
ENDBRANCH   1  19
TORSDOF 6
ENDMDL
MODEL 3
REMARK VINA RESULT:    -8.018      2.086      3.048
REMARK INTER + INTRA:         -11.543
REMARK INTER:                 -11.131
REMARK INTRA:                  -0.412
REMARK UNBOUND:                -0.946
REMARK  Name = 
REMARK  6 active torsions:
REMARK  status: ('A' for Active; 'I' for Inactive)
REMARK    1  A    between atoms: C_2  and  C_19
REMARK    2  A    between atoms: N_3  and  C_4
REMARK    3  A    between atoms: C_4  and  C_5
REMARK    4  A    between atoms: N_9  and  C_10
REMARK    5  A    between atoms: C_10  and  C_11
REMARK    6  A    between atoms: C_14  and  O_15
REMARK                            x       y       z     vdW  Elec       q    Type
REMARK                         _______ _______ _______ _____ _____    ______ ____
ROOT
ATOM      1  C   UNL     1      46.385   5.120  14.197  0.00  0.00    +0.000 C 
ENDROOT
BRANCH   1   2
ATOM      2  C   UNL     1      46.844   5.599  12.809  0.00  0.00    +0.000 C 
ATOM      3  C   UNL     1      46.687   7.114  12.602  0.00  0.00    +0.000 C 
ATOM      4  C   UNL     1      45.218   7.521  12.570  0.00  0.00    +0.000 C 
ATOM      5  C   UNL     1      44.412   6.672  11.579  0.00  0.00    +0.000 C 
ATOM      6  N   UNL     1      44.627   5.228  11.751  0.00  0.00    +0.000 NA
ATOM      7  C   UNL     1      46.051   4.870  11.711  0.00  0.00    +0.000 C 
BRANCH   6   8
ATOM      8  C   UNL     1      43.797   4.407  10.847  0.00  0.00    +0.000 C 
BRANCH   8   9
ATOM      9  C   UNL     1      44.534   3.702   9.725  0.00  0.00    +0.000 A 
ATOM     10  C   UNL     1      44.609   2.301   9.680  0.00  0.00    +0.000 A 
ATOM     11  C   UNL     1      45.419   1.662   8.739  0.00  0.00    +0.000 A 
ATOM     12  C   UNL     1      46.137   2.427   7.826  0.00  0.00    +0.000 A 
ATOM     13  C   UNL     1      46.011   3.810   7.797  0.00  0.00    +0.000 A 
ATOM     14  C   UNL     1      45.212   4.447   8.745  0.00  0.00    +0.000 A 
BRANCH  12  15
ATOM     15  O   UNL     1      47.010   1.849   6.952  0.00  0.00    +0.000 OA
ATOM     16  H   UNL     1      47.850   2.334   7.005  0.00  0.00    +0.000 HD
ENDBRANCH  12  15
ENDBRANCH   8   9
ENDBRANCH   6   8
ENDBRANCH   1   2
BRANCH   1  19
ATOM     17  O   UNL     1      46.524   3.591  16.587  0.00  0.00    +0.000 OA
ATOM     18  C   UNL     1      47.445   4.358  16.312  0.00  0.00    +0.000 C 
ATOM     19  N   UNL     1      47.457   5.102  15.164  0.00  0.00    +0.000 N 
ATOM     20  H   UNL     1      48.216   5.752  14.993  0.00  0.00    +0.000 HD
BRANCH  18  21
ATOM     21  C   UNL     1      48.611   4.510  17.193  0.00  0.00    +0.000 A 
ATOM     22  C   UNL     1      48.730   5.644  17.984  0.00  0.00    +0.000 A 
ATOM     23  S   UNL     1      50.145   5.669  18.935  0.00  0.00    +0.000 S 
ATOM     24  C   UNL     1      50.665   4.179  18.300  0.00  0.00    +0.000 A 
ATOM     25  N   UNL     1      51.850   3.633  18.682  0.00  0.00    +0.000 NA
ATOM     26  C   UNL     1      52.132   2.509  18.114  0.00  0.00    +0.000 A 
ATOM     27  N   UNL     1      51.331   1.875  17.202  0.00  0.00    +0.000 N 
ATOM     28  C   UNL     1      50.107   2.367  16.817  0.00  0.00    +0.000 A 
ATOM     29  O   UNL     1      49.384   1.723  16.062  0.00  0.00    +0.000 OA
ATOM     30  C   UNL     1      49.757   3.650  17.400  0.00  0.00    +0.000 A 
ATOM     31  H   UNL     1      51.592   0.980  16.815  0.00  0.00    +0.000 HD
ENDBRANCH  18  21
ENDBRANCH   1  19
TORSDOF 6
ENDMDL
MODEL 4
REMARK VINA RESULT:    -7.216      3.562      7.950
REMARK INTER + INTRA:         -10.482
REMARK INTER:                  -9.514
REMARK INTRA:                  -0.968
REMARK UNBOUND:                -0.946
REMARK  Name = 
REMARK  6 active torsions:
REMARK  status: ('A' for Active; 'I' for Inactive)
REMARK    1  A    between atoms: C_2  and  C_19
REMARK    2  A    between atoms: N_3  and  C_4
REMARK    3  A    between atoms: C_4  and  C_5
REMARK    4  A    between atoms: N_9  and  C_10
REMARK    5  A    between atoms: C_10  and  C_11
REMARK    6  A    between atoms: C_14  and  O_15
REMARK                            x       y       z     vdW  Elec       q    Type
REMARK                         _______ _______ _______ _____ _____    ______ ____
ROOT
ATOM      1  C   UNL     1      48.839   8.461  15.662  0.00  0.00    +0.000 C 
ENDROOT
BRANCH   1   2
ATOM      2  C   UNL     1      48.282   9.040  16.974  0.00  0.00    +0.000 C 
ATOM      3  C   UNL     1      49.160  10.149  17.574  0.00  0.00    +0.000 C 
ATOM      4  C   UNL     1      50.500   9.599  18.053  0.00  0.00    +0.000 C 
ATOM      5  C   UNL     1      50.321   8.383  18.970  0.00  0.00    +0.000 C 
ATOM      6  N   UNL     1      49.425   7.363  18.406  0.00  0.00    +0.000 NA
ATOM      7  C   UNL     1      48.124   7.921  18.017  0.00  0.00    +0.000 C 
BRANCH   6   8
ATOM      8  C   UNL     1      49.310   6.160  19.254  0.00  0.00    +0.000 C 
BRANCH   8   9
ATOM      9  C   UNL     1      49.366   4.829  18.530  0.00  0.00    +0.000 A 
ATOM     10  C   UNL     1      50.596   4.233  18.211  0.00  0.00    +0.000 A 
ATOM     11  C   UNL     1      50.646   3.092  17.408  0.00  0.00    +0.000 A 
ATOM     12  C   UNL     1      49.461   2.533  16.942  0.00  0.00    +0.000 A 
ATOM     13  C   UNL     1      48.230   3.055  17.316  0.00  0.00    +0.000 A 
ATOM     14  C   UNL     1      48.182   4.202  18.108  0.00  0.00    +0.000 A 
BRANCH  12  15
ATOM     15  O   UNL     1      49.469   1.475  16.082  0.00  0.00    +0.000 OA
ATOM     16  H   UNL     1      48.545   1.248  15.881  0.00  0.00    +0.000 HD
ENDBRANCH  12  15
ENDBRANCH   8   9
ENDBRANCH   6   8
ENDBRANCH   1   2
BRANCH   1  19
ATOM     17  O   UNL     1      49.072   6.320  13.810  0.00  0.00    +0.000 OA
ATOM     18  C   UNL     1      47.998   6.908  13.912  0.00  0.00    +0.000 C 
ATOM     19  N   UNL     1      47.807   7.928  14.803  0.00  0.00    +0.000 N 
ATOM     20  H   UNL     1      46.917   8.415  14.830  0.00  0.00    +0.000 HD
BRANCH  18  21
ATOM     21  C   UNL     1      46.833   6.538  13.095  0.00  0.00    +0.000 A 
ATOM     22  C   UNL     1      46.108   7.527  12.447  0.00  0.00    +0.000 A 
ATOM     23  S   UNL     1      44.784   6.931  11.553  0.00  0.00    +0.000 S 
ATOM     24  C   UNL     1      45.115   5.330  12.026  0.00  0.00    +0.000 A 
ATOM     25  N   UNL     1      44.319   4.305  11.623  0.00  0.00    +0.000 NA
ATOM     26  C   UNL     1      44.672   3.144  12.065  0.00  0.00    +0.000 A 
ATOM     27  N   UNL     1      45.757   2.915  12.869  0.00  0.00    +0.000 N 
ATOM     28  C   UNL     1      46.613   3.913  13.267  0.00  0.00    +0.000 A 
ATOM     29  O   UNL     1      47.621   3.648  13.917  0.00  0.00    +0.000 OA
ATOM     30  C   UNL     1      46.240   5.246  12.827  0.00  0.00    +0.000 A 
ATOM     31  H   UNL     1      46.000   1.979  13.156  0.00  0.00    +0.000 HD
ENDBRANCH  18  21
ENDBRANCH   1  19
TORSDOF 6
ENDMDL
MODEL 5
REMARK VINA RESULT:    -7.152      3.176      4.835
REMARK INTER + INTRA:         -10.398
REMARK INTER:                  -9.588
REMARK INTRA:                  -0.810
REMARK UNBOUND:                -0.946
REMARK  Name = 
REMARK  6 active torsions:
REMARK  status: ('A' for Active; 'I' for Inactive)
REMARK    1  A    between atoms: C_2  and  C_19
REMARK    2  A    between atoms: N_3  and  C_4
REMARK    3  A    between atoms: C_4  and  C_5
REMARK    4  A    between atoms: N_9  and  C_10
REMARK    5  A    between atoms: C_10  and  C_11
REMARK    6  A    between atoms: C_14  and  O_15
REMARK                            x       y       z     vdW  Elec       q    Type
REMARK                         _______ _______ _______ _____ _____    ______ ____
ROOT
ATOM      1  C   UNL     1      47.895   6.241  14.790  0.00  0.00    +0.000 C 
ENDROOT
BRANCH   1   2
ATOM      2  C   UNL     1      48.394   6.754  13.429  0.00  0.00    +0.000 C 
ATOM      3  C   UNL     1      48.779   8.242  13.439  0.00  0.00    +0.000 C 
ATOM      4  C   UNL     1      47.555   9.130  13.644  0.00  0.00    +0.000 C 
ATOM      5  C   UNL     1      46.430   8.785  12.662  0.00  0.00    +0.000 C 
ATOM      6  N   UNL     1      46.123   7.349  12.618  0.00  0.00    +0.000 NA
ATOM      7  C   UNL     1      47.316   6.533  12.355  0.00  0.00    +0.000 C 
BRANCH   6   8
ATOM      8  C   UNL     1      44.991   7.024  11.728  0.00  0.00    +0.000 C 
BRANCH   8   9
ATOM      9  C   UNL     1      44.556   5.572  11.709  0.00  0.00    +0.000 A 
ATOM     10  C   UNL     1      44.639   4.809  10.533  0.00  0.00    +0.000 A 
ATOM     11  C   UNL     1      44.091   3.526  10.479  0.00  0.00    +0.000 A 
ATOM     12  C   UNL     1      43.480   2.996  11.610  0.00  0.00    +0.000 A 
ATOM     13  C   UNL     1      43.463   3.698  12.808  0.00  0.00    +0.000 A 
ATOM     14  C   UNL     1      43.999   4.984  12.857  0.00  0.00    +0.000 A 
BRANCH  12  15
ATOM     15  O   UNL     1      42.853   1.786  11.573  0.00  0.00    +0.000 OA
ATOM     16  H   UNL     1      43.486   1.133  11.230  0.00  0.00    +0.000 HD
ENDBRANCH  12  15
ENDBRANCH   8   9
ENDBRANCH   6   8
ENDBRANCH   1   2
BRANCH   1  19
ATOM     17  O   UNL     1      47.637   4.678  17.148  0.00  0.00    +0.000 OA
ATOM     18  C   UNL     1      48.759   4.989  16.756  0.00  0.00    +0.000 C 
ATOM     19  N   UNL     1      48.958   5.715  15.614  0.00  0.00    +0.000 N 
ATOM     20  H   UNL     1      49.898   5.985  15.345  0.00  0.00    +0.000 HD
BRANCH  18  21
ATOM     21  C   UNL     1      49.971   4.580  17.481  0.00  0.00    +0.000 A 
ATOM     22  C   UNL     1      50.629   5.496  18.289  0.00  0.00    +0.000 A 
ATOM     23  S   UNL     1      52.020   4.864  19.046  0.00  0.00    +0.000 S 
ATOM     24  C   UNL     1      51.810   3.352  18.296  0.00  0.00    +0.000 A 
ATOM     25  N   UNL     1      52.698   2.343  18.499  0.00  0.00    +0.000 NA
ATOM     26  C   UNL     1      52.429   1.254  17.860  0.00  0.00    +0.000 A 
ATOM     27  N   UNL     1      51.347   1.079  17.039  0.00  0.00    +0.000 N 
ATOM     28  C   UNL     1      50.402   2.056  16.836  0.00  0.00    +0.000 A 
ATOM     29  O   UNL     1      49.402   1.826  16.160  0.00  0.00    +0.000 OA
ATOM     30  C   UNL     1      50.675   3.316  17.505  0.00  0.00    +0.000 A 
ATOM     31  H   UNL     1      51.174   0.193  16.591  0.00  0.00    +0.000 HD
ENDBRANCH  18  21
ENDBRANCH   1  19
TORSDOF 6
ENDMDL
MODEL 6
REMARK VINA RESULT:    -6.706      3.066      5.306
REMARK INTER + INTRA:          -9.809
REMARK INTER:                  -8.410
REMARK INTRA:                  -1.399
REMARK UNBOUND:                -0.946
REMARK  Name = 
REMARK  6 active torsions:
REMARK  status: ('A' for Active; 'I' for Inactive)
REMARK    1  A    between atoms: C_2  and  C_19
REMARK    2  A    between atoms: N_3  and  C_4
REMARK    3  A    between atoms: C_4  and  C_5
REMARK    4  A    between atoms: N_9  and  C_10
REMARK    5  A    between atoms: C_10  and  C_11
REMARK    6  A    between atoms: C_14  and  O_15
REMARK                            x       y       z     vdW  Elec       q    Type
REMARK                         _______ _______ _______ _____ _____    ______ ____
ROOT
ATOM      1  C   UNL     1      46.205   3.864  13.358  0.00  0.00    +0.000 C 
ENDROOT
BRANCH   1   2
ATOM      2  C   UNL     1      44.780   4.309  12.989  0.00  0.00    +0.000 C 
ATOM      3  C   UNL     1      44.339   3.852  11.589  0.00  0.00    +0.000 C 
ATOM      4  C   UNL     1      45.146   4.550  10.498  0.00  0.00    +0.000 C 
ATOM      5  C   UNL     1      45.154   6.072  10.681  0.00  0.00    +0.000 C 
ATOM      6  N   UNL     1      45.513   6.487  12.044  0.00  0.00    +0.000 NA
ATOM      7  C   UNL     1      44.672   5.842  13.061  0.00  0.00    +0.000 C 
BRANCH   6   8
ATOM      8  C   UNL     1      45.593   7.952  12.203  0.00  0.00    +0.000 C 
BRANCH   8   9
ATOM      9  C   UNL     1      46.956   8.573  11.970  0.00  0.00    +0.000 A 
ATOM     10  C   UNL     1      48.077   7.772  11.699  0.00  0.00    +0.000 A 
ATOM     11  C   UNL     1      49.354   8.332  11.643  0.00  0.00    +0.000 A 
ATOM     12  C   UNL     1      49.508   9.700  11.835  0.00  0.00    +0.000 A 
ATOM     13  C   UNL     1      48.406  10.524  12.018  0.00  0.00    +0.000 A 
ATOM     14  C   UNL     1      47.132   9.962  12.087  0.00  0.00    +0.000 A 
BRANCH  12  15
ATOM     15  O   UNL     1      50.745  10.273  11.879  0.00  0.00    +0.000 OA
ATOM     16  H   UNL     1      50.884  10.613  12.779  0.00  0.00    +0.000 HD
ENDBRANCH  12  15
ENDBRANCH   8   9
ENDBRANCH   6   8
ENDBRANCH   1   2
BRANCH   1  19
ATOM     17  O   UNL     1      47.889   2.735  15.348  0.00  0.00    +0.000 OA
ATOM     18  C   UNL     1      47.487   3.888  15.488  0.00  0.00    +0.000 C 
ATOM     19  N   UNL     1      46.698   4.504  14.556  0.00  0.00    +0.000 N 
ATOM     20  H   UNL     1      46.354   5.443  14.727  0.00  0.00    +0.000 HD
BRANCH  18  21
ATOM     21  C   UNL     1      47.848   4.694  16.663  0.00  0.00    +0.000 A 
ATOM     22  C   UNL     1      47.433   4.292  17.925  0.00  0.00    +0.000 A 
ATOM     23  S   UNL     1      47.925   5.343  19.174  0.00  0.00    +0.000 S 
ATOM     24  C   UNL     1      48.683   6.391  18.069  0.00  0.00    +0.000 A 
ATOM     25  N   UNL     1      49.287   7.533  18.493  0.00  0.00    +0.000 NA
ATOM     26  C   UNL     1      49.811   8.245  17.552  0.00  0.00    +0.000 A 
ATOM     27  N   UNL     1      49.792   7.914  16.223  0.00  0.00    +0.000 N 
ATOM     28  C   UNL     1      49.230   6.752  15.753  0.00  0.00    +0.000 A 
ATOM     29  O   UNL     1      49.312   6.454  14.564  0.00  0.00    +0.000 OA
ATOM     30  C   UNL     1      48.594   5.929  16.768  0.00  0.00    +0.000 A 
ATOM     31  H   UNL     1      50.247   8.497  15.537  0.00  0.00    +0.000 HD
ENDBRANCH  18  21
ENDBRANCH   1  19
TORSDOF 6
ENDMDL
MODEL 7
REMARK VINA RESULT:    -6.597      3.975      8.129
REMARK INTER + INTRA:          -9.664
REMARK INTER:                  -8.412
REMARK INTRA:                  -1.252
REMARK UNBOUND:                -0.946
REMARK  Name = 
REMARK  6 active torsions:
REMARK  status: ('A' for Active; 'I' for Inactive)
REMARK    1  A    between atoms: C_2  and  C_19
REMARK    2  A    between atoms: N_3  and  C_4
REMARK    3  A    between atoms: C_4  and  C_5
REMARK    4  A    between atoms: N_9  and  C_10
REMARK    5  A    between atoms: C_10  and  C_11
REMARK    6  A    between atoms: C_14  and  O_15
REMARK                            x       y       z     vdW  Elec       q    Type
REMARK                         _______ _______ _______ _____ _____    ______ ____
ROOT
ATOM      1  C   UNL     1      48.774   8.778  15.563  0.00  0.00    +0.000 C 
ENDROOT
BRANCH   1   2
ATOM      2  C   UNL     1      48.204   9.407  16.846  0.00  0.00    +0.000 C 
ATOM      3  C   UNL     1      49.177  10.374  17.538  0.00  0.00    +0.000 C 
ATOM      4  C   UNL     1      50.389   9.636  18.098  0.00  0.00    +0.000 C 
ATOM      5  C   UNL     1      49.976   8.442  18.967  0.00  0.00    +0.000 C 
ATOM      6  N   UNL     1      48.994   7.565  18.313  0.00  0.00    +0.000 NA
ATOM      7  C   UNL     1      47.815   8.305  17.845  0.00  0.00    +0.000 C 
BRANCH   6   8
ATOM      8  C   UNL     1      48.651   6.377  19.118  0.00  0.00    +0.000 C 
BRANCH   8   9
ATOM      9  C   UNL     1      48.761   5.040  18.411  0.00  0.00    +0.000 A 
ATOM     10  C   UNL     1      49.966   4.319  18.415  0.00  0.00    +0.000 A 
ATOM     11  C   UNL     1      50.110   3.172  17.633  0.00  0.00    +0.000 A 
ATOM     12  C   UNL     1      49.039   2.732  16.863  0.00  0.00    +0.000 A 
ATOM     13  C   UNL     1      47.812   3.380  16.910  0.00  0.00    +0.000 A 
ATOM     14  C   UNL     1      47.673   4.533  17.682  0.00  0.00    +0.000 A 
BRANCH  12  15
ATOM     15  O   UNL     1      49.166   1.671  16.016  0.00  0.00    +0.000 OA
ATOM     16  H   UNL     1      49.361   2.019  15.130  0.00  0.00    +0.000 HD
ENDBRANCH  12  15
ENDBRANCH   8   9
ENDBRANCH   6   8
ENDBRANCH   1   2
BRANCH   1  19
ATOM     17  O   UNL     1      48.591   7.944  12.854  0.00  0.00    +0.000 OA
ATOM     18  C   UNL     1      47.864   7.417  13.692  0.00  0.00    +0.000 C 
ATOM     19  N   UNL     1      47.919   7.748  15.018  0.00  0.00    +0.000 N 
ATOM     20  H   UNL     1      47.275   7.318  15.673  0.00  0.00    +0.000 HD
BRANCH  18  21
ATOM     21  C   UNL     1      46.896   6.372  13.328  0.00  0.00    +0.000 A 
ATOM     22  C   UNL     1      47.153   5.051  13.665  0.00  0.00    +0.000 A 
ATOM     23  S   UNL     1      45.938   3.967  13.160  0.00  0.00    +0.000 S 
ATOM     24  C   UNL     1      45.039   5.221  12.443  0.00  0.00    +0.000 A 
ATOM     25  N   UNL     1      43.874   4.962  11.792  0.00  0.00    +0.000 NA
ATOM     26  C   UNL     1      43.301   6.000  11.282  0.00  0.00    +0.000 A 
ATOM     27  N   UNL     1      43.784   7.279  11.371  0.00  0.00    +0.000 N 
ATOM     28  C   UNL     1      44.934   7.594  12.052  0.00  0.00    +0.000 A 
ATOM     29  O   UNL     1      45.283   8.765  12.179  0.00  0.00    +0.000 OA
ATOM     30  C   UNL     1      45.639   6.457  12.617  0.00  0.00    +0.000 A 
ATOM     31  H   UNL     1      43.273   8.054  10.977  0.00  0.00    +0.000 HD
ENDBRANCH  18  21
ENDBRANCH   1  19
TORSDOF 6
ENDMDL
MODEL 8
REMARK VINA RESULT:    -6.594      3.471      8.353
REMARK INTER + INTRA:          -9.660
REMARK INTER:                  -8.671
REMARK INTRA:                  -0.989
REMARK UNBOUND:                -0.946
REMARK  Name = 
REMARK  6 active torsions:
REMARK  status: ('A' for Active; 'I' for Inactive)
REMARK    1  A    between atoms: C_2  and  C_19
REMARK    2  A    between atoms: N_3  and  C_4
REMARK    3  A    between atoms: C_4  and  C_5
REMARK    4  A    between atoms: N_9  and  C_10
REMARK    5  A    between atoms: C_10  and  C_11
REMARK    6  A    between atoms: C_14  and  O_15
REMARK                            x       y       z     vdW  Elec       q    Type
REMARK                         _______ _______ _______ _____ _____    ______ ____
ROOT
ATOM      1  C   UNL     1      48.402   5.502  15.884  0.00  0.00    +0.000 C 
ENDROOT
BRANCH   1   2
ATOM      2  C   UNL     1      48.316   4.260  16.787  0.00  0.00    +0.000 C 
ATOM      3  C   UNL     1      47.288   4.397  17.921  0.00  0.00    +0.000 C 
ATOM      4  C   UNL     1      47.715   5.456  18.933  0.00  0.00    +0.000 C 
ATOM      5  C   UNL     1      49.151   5.230  19.421  0.00  0.00    +0.000 C 
ATOM      6  N   UNL     1      50.109   5.034  18.323  0.00  0.00    +0.000 NA
ATOM      7  C   UNL     1      49.693   3.964  17.407  0.00  0.00    +0.000 C 
BRANCH   6   8
ATOM      8  C   UNL     1      51.502   4.890  18.788  0.00  0.00    +0.000 C 
BRANCH   8   9
ATOM      9  C   UNL     1      52.575   5.365  17.828  0.00  0.00    +0.000 A 
ATOM     10  C   UNL     1      52.319   6.400  16.915  0.00  0.00    +0.000 A 
ATOM     11  C   UNL     1      53.253   6.726  15.930  0.00  0.00    +0.000 A 
ATOM     12  C   UNL     1      54.455   6.031  15.873  0.00  0.00    +0.000 A 
ATOM     13  C   UNL     1      54.766   5.063  16.819  0.00  0.00    +0.000 A 
ATOM     14  C   UNL     1      53.828   4.730  17.795  0.00  0.00    +0.000 A 
BRANCH  12  15
ATOM     15  O   UNL     1      55.355   6.254  14.873  0.00  0.00    +0.000 OA
ATOM     16  H   UNL     1      54.932   6.833  14.216  0.00  0.00    +0.000 HD
ENDBRANCH  12  15
ENDBRANCH   8   9
ENDBRANCH   6   8
ENDBRANCH   1   2
BRANCH   1  19
ATOM     17  O   UNL     1      48.617   6.214  13.142  0.00  0.00    +0.000 OA
ATOM     18  C   UNL     1      47.512   5.935  13.603  0.00  0.00    +0.000 C 
ATOM     19  N   UNL     1      47.340   5.556  14.906  0.00  0.00    +0.000 N 
ATOM     20  H   UNL     1      46.407   5.372  15.259  0.00  0.00    +0.000 HD
BRANCH  18  21
ATOM     21  C   UNL     1      46.299   5.970  12.775  0.00  0.00    +0.000 A 
ATOM     22  C   UNL     1      45.870   7.174  12.235  0.00  0.00    +0.000 A 
ATOM     23  S   UNL     1      44.443   7.040  11.312  0.00  0.00    +0.000 S 
ATOM     24  C   UNL     1      44.329   5.373  11.626  0.00  0.00    +0.000 A 
ATOM     25  N   UNL     1      43.291   4.640  11.141  0.00  0.00    +0.000 NA
ATOM     26  C   UNL     1      43.318   3.391  11.465  0.00  0.00    +0.000 A 
ATOM     27  N   UNL     1      44.294   2.804  12.225  0.00  0.00    +0.000 N 
ATOM     28  C   UNL     1      45.382   3.494  12.702  0.00  0.00    +0.000 A 
ATOM     29  O   UNL     1      46.277   2.909  13.306  0.00  0.00    +0.000 OA
ATOM     30  C   UNL     1      45.384   4.914  12.396  0.00  0.00    +0.000 A 
ATOM     31  H   UNL     1      44.276   1.814  12.419  0.00  0.00    +0.000 HD
ENDBRANCH  18  21
ENDBRANCH   1  19
TORSDOF 6
ENDMDL
MODEL 9
REMARK VINA RESULT:    -6.551      2.974      4.331
REMARK INTER + INTRA:          -9.604
REMARK INTER:                  -8.661
REMARK INTRA:                  -0.943
REMARK UNBOUND:                -0.946
REMARK  Name = 
REMARK  6 active torsions:
REMARK  status: ('A' for Active; 'I' for Inactive)
REMARK    1  A    between atoms: C_2  and  C_19
REMARK    2  A    between atoms: N_3  and  C_4
REMARK    3  A    between atoms: C_4  and  C_5
REMARK    4  A    between atoms: N_9  and  C_10
REMARK    5  A    between atoms: C_10  and  C_11
REMARK    6  A    between atoms: C_14  and  O_15
REMARK                            x       y       z     vdW  Elec       q    Type
REMARK                         _______ _______ _______ _____ _____    ______ ____
ROOT
ATOM      1  C   UNL     1      48.241   6.363  14.088  0.00  0.00    +0.000 C 
ENDROOT
BRANCH   1   2
ATOM      2  C   UNL     1      48.441   7.470  13.039  0.00  0.00    +0.000 C 
ATOM      3  C   UNL     1      47.842   8.823  13.455  0.00  0.00    +0.000 C 
ATOM      4  C   UNL     1      46.319   8.761  13.515  0.00  0.00    +0.000 C 
ATOM      5  C   UNL     1      45.721   8.187  12.225  0.00  0.00    +0.000 C 
ATOM      6  N   UNL     1      46.352   6.927  11.809  0.00  0.00    +0.000 NA
ATOM      7  C   UNL     1      47.812   7.046  11.701  0.00  0.00    +0.000 C 
BRANCH   6   8
ATOM      8  C   UNL     1      45.729   6.335  10.608  0.00  0.00    +0.000 C 
BRANCH   8   9
ATOM      9  C   UNL     1      44.869   5.108  10.842  0.00  0.00    +0.000 A 
ATOM     10  C   UNL     1      44.178   4.932  12.052  0.00  0.00    +0.000 A 
ATOM     11  C   UNL     1      43.518   3.732  12.325  0.00  0.00    +0.000 A 
ATOM     12  C   UNL     1      43.530   2.716  11.376  0.00  0.00    +0.000 A 
ATOM     13  C   UNL     1      44.133   2.901  10.138  0.00  0.00    +0.000 A 
ATOM     14  C   UNL     1      44.802   4.095   9.872  0.00  0.00    +0.000 A 
BRANCH  12  15
ATOM     15  O   UNL     1      42.977   1.498  11.638  0.00  0.00    +0.000 OA
ATOM     16  H   UNL     1      42.019   1.568  11.497  0.00  0.00    +0.000 HD
ENDBRANCH  12  15
ENDBRANCH   8   9
ENDBRANCH   6   8
ENDBRANCH   1   2
BRANCH   1  19
ATOM     17  O   UNL     1      50.482   6.331  15.833  0.00  0.00    +0.000 OA
ATOM     18  C   UNL     1      49.415   6.787  16.238  0.00  0.00    +0.000 C 
ATOM     19  N   UNL     1      48.304   6.860  15.443  0.00  0.00    +0.000 N 
ATOM     20  H   UNL     1      47.431   7.206  15.827  0.00  0.00    +0.000 HD
BRANCH  18  21
ATOM     21  C   UNL     1      49.267   7.307  17.604  0.00  0.00    +0.000 A 
ATOM     22  C   UNL     1      49.992   8.424  17.996  0.00  0.00    +0.000 A 
ATOM     23  S   UNL     1      49.713   8.889  19.612  0.00  0.00    +0.000 S 
ATOM     24  C   UNL     1      48.636   7.595  19.857  0.00  0.00    +0.000 A 
ATOM     25  N   UNL     1      48.052   7.393  21.068  0.00  0.00    +0.000 NA
ATOM     26  C   UNL     1      47.269   6.368  21.122  0.00  0.00    +0.000 A 
ATOM     27  N   UNL     1      47.010   5.529  20.071  0.00  0.00    +0.000 N 
ATOM     28  C   UNL     1      47.545   5.717  18.820  0.00  0.00    +0.000 A 
ATOM     29  O   UNL     1      47.218   4.989  17.885  0.00  0.00    +0.000 OA
ATOM     30  C   UNL     1      48.463   6.837  18.712  0.00  0.00    +0.000 A 
ATOM     31  H   UNL     1      46.363   4.761  20.168  0.00  0.00    +0.000 HD
ENDBRANCH  18  21
ENDBRANCH   1  19
TORSDOF 6
ENDMDL
