MODEL 1
REMARK VINA RESULT:    -8.895      0.000      0.000
REMARK INTER + INTRA:         -11.289
REMARK INTER:                 -10.975
REMARK INTRA:                  -0.314
REMARK UNBOUND:                -0.314
REMARK  Name = 
REMARK  4 active torsions:
REMARK  status: ('A' for Active; 'I' for Inactive)
REMARK    1  A    between atoms: C_2  and  C_4
REMARK    2  A    between atoms: C_7  and  O_8
REMARK    3  A    between atoms: O_8  and  C_9
REMARK    4  A    between atoms: C_9  and  C_10
REMARK                            x       y       z     vdW  Elec       q    Type
REMARK                         _______ _______ _______ _____ _____    ______ ____
ROOT
ATOM      1  C   UNL     1      44.490   5.286  12.105  0.00  0.00    +0.000 C 
ATOM      2  C   UNL     1      45.570   4.464  12.825  0.00  0.00    +0.000 C 
ATOM      3  C   UNL     1      46.596   5.373  13.498  0.00  0.00    +0.000 C 
ATOM      4  C   UNL     1      47.199   6.368  12.508  0.00  0.00    +0.000 C 
ATOM      5  N   UNL     1      46.130   7.103  11.840  0.00  0.00    +0.000 N 
ATOM      6  C   UNL     1      45.972   8.472  11.936  0.00  0.00    +0.000 A 
ATOM      7  C   UNL     1      47.055   9.310  12.121  0.00  0.00    +0.000 A 
ATOM      8  C   UNL     1      46.808  10.660  12.171  0.00  0.00    +0.000 A 
ATOM      9  N   UNL     1      45.583  11.191  12.072  0.00  0.00    +0.000 NA
ATOM     10  C   UNL     1      44.588  10.319  11.921  0.00  0.00    +0.000 A 
ATOM     11  N   UNL     1      43.312  10.838  11.823  0.00  0.00    +0.000 N 
ATOM     12  N   UNL     1      44.734   8.993  11.817  0.00  0.00    +0.000 NA
ATOM     13  C   UNL     1      45.123   6.304  11.146  0.00  0.00    +0.000 C 
ATOM     14  H   UNL     1      43.367  11.795  11.506  0.00  0.00    +0.000 HD
ATOM     15  H   UNL     1      42.726  10.204  11.300  0.00  0.00    +0.000 HD
ENDROOT
BRANCH   1  16
ATOM     16  C   UNL     1      43.513   4.383  11.343  0.00  0.00    +0.000 C 
BRANCH  16  17
ATOM     17  O   UNL     1      43.646   4.586   9.932  0.00  0.00    +0.000 OA
BRANCH  17  21
ATOM     18  C   UNL     1      46.311   2.219   7.774  0.00  0.00    +0.000 A 
ATOM     19  C   UNL     1      45.470   1.603   8.705  0.00  0.00    +0.000 A 
ATOM     20  C   UNL     1      44.568   2.367   9.447  0.00  0.00    +0.000 A 
ATOM     21  C   UNL     1      44.501   3.748   9.271  0.00  0.00    +0.000 A 
ATOM     22  C   UNL     1      45.363   4.368   8.359  0.00  0.00    +0.000 A 
ATOM     23  C   UNL     1      46.272   3.607   7.616  0.00  0.00    +0.000 A 
BRANCH  18  25
ATOM     24  N   UNL     1      48.351   2.083   6.462  0.00  0.00    +0.000 N 
ATOM     25  C   UNL     1      47.256   1.425   6.951  0.00  0.00    +0.000 C 
ATOM     26  O   UNL     1      47.091   0.230   6.749  0.00  0.00    +0.000 OA
ATOM     27  H   UNL     1      49.046   1.513   5.999  0.00  0.00    +0.000 HD
ATOM     28  H   UNL     1      48.646   2.981   6.822  0.00  0.00    +0.000 HD
ENDBRANCH  18  25
ENDBRANCH  17  21
ENDBRANCH  16  17
ENDBRANCH   1  16
TORSDOF 4
ENDMDL
MODEL 2
REMARK VINA RESULT:    -8.506      2.647      4.521
REMARK INTER + INTRA:         -10.809
REMARK INTER:                 -10.589
REMARK INTRA:                  -0.221
REMARK UNBOUND:                -0.314
REMARK  Name = 
REMARK  4 active torsions:
REMARK  status: ('A' for Active; 'I' for Inactive)
REMARK    1  A    between atoms: C_2  and  C_4
REMARK    2  A    between atoms: C_7  and  O_8
REMARK    3  A    between atoms: O_8  and  C_9
REMARK    4  A    between atoms: C_9  and  C_10
REMARK                            x       y       z     vdW  Elec       q    Type
REMARK                         _______ _______ _______ _____ _____    ______ ____
ROOT
ATOM      1  C   UNL     1      45.402   4.773  12.084  0.00  0.00    +0.000 C 
ATOM      2  C   UNL     1      45.668   6.088  11.334  0.00  0.00    +0.000 C 
ATOM      3  C   UNL     1      46.920   6.782  11.866  0.00  0.00    +0.000 C 
ATOM      4  C   UNL     1      46.846   6.990  13.378  0.00  0.00    +0.000 C 
ATOM      5  N   UNL     1      46.571   5.716  14.035  0.00  0.00    +0.000 N 
ATOM      6  C   UNL     1      47.435   5.121  14.934  0.00  0.00    +0.000 A 
ATOM      7  C   UNL     1      48.273   5.876  15.733  0.00  0.00    +0.000 A 
ATOM      8  C   UNL     1      49.073   5.201  16.623  0.00  0.00    +0.000 A 
ATOM      9  N   UNL     1      49.094   3.867  16.733  0.00  0.00    +0.000 NA
ATOM     10  C   UNL     1      48.278   3.208  15.911  0.00  0.00    +0.000 A 
ATOM     11  N   UNL     1      48.283   1.830  15.998  0.00  0.00    +0.000 N 
ATOM     12  N   UNL     1      47.432   3.778  15.046  0.00  0.00    +0.000 NA
ATOM     13  C   UNL     1      45.372   5.004  13.601  0.00  0.00    +0.000 C 
ATOM     14  H   UNL     1      48.617   1.557  16.912  0.00  0.00    +0.000 HD
ATOM     15  H   UNL     1      47.392   1.467  15.696  0.00  0.00    +0.000 HD
ENDROOT
BRANCH   1  16
ATOM     16  C   UNL     1      44.093   4.121  11.625  0.00  0.00    +0.000 C 
BRANCH  16  17
ATOM     17  O   UNL     1      43.862   4.393  10.238  0.00  0.00    +0.000 OA
BRANCH  17  21
ATOM     18  C   UNL     1      46.441   2.393   7.648  0.00  0.00    +0.000 A 
ATOM     19  C   UNL     1      46.315   3.780   7.530  0.00  0.00    +0.000 A 
ATOM     20  C   UNL     1      45.458   4.480   8.379  0.00  0.00    +0.000 A 
ATOM     21  C   UNL     1      44.716   3.805   9.348  0.00  0.00    +0.000 A 
ATOM     22  C   UNL     1      44.821   2.412   9.446  0.00  0.00    +0.000 A 
ATOM     23  C   UNL     1      45.675   1.706   8.594  0.00  0.00    +0.000 A 
BRANCH  18  25
ATOM     24  N   UNL     1      48.457   2.305   6.297  0.00  0.00    +0.000 N 
ATOM     25  C   UNL     1      47.369   1.630   6.778  0.00  0.00    +0.000 C 
ATOM     26  O   UNL     1      47.196   0.444   6.530  0.00  0.00    +0.000 OA
ATOM     27  H   UNL     1      49.143   1.752   5.798  0.00  0.00    +0.000 HD
ATOM     28  H   UNL     1      48.761   3.186   6.687  0.00  0.00    +0.000 HD
ENDBRANCH  18  25
ENDBRANCH  17  21
ENDBRANCH  16  17
ENDBRANCH   1  16
TORSDOF 4
ENDMDL
MODEL 3
REMARK VINA RESULT:    -8.119      1.898      3.204
REMARK INTER + INTRA:         -10.332
REMARK INTER:                  -9.810
REMARK INTRA:                  -0.522
REMARK UNBOUND:                -0.314
REMARK  Name = 
REMARK  4 active torsions:
REMARK  status: ('A' for Active; 'I' for Inactive)
REMARK    1  A    between atoms: C_2  and  C_4
REMARK    2  A    between atoms: C_7  and  O_8
REMARK    3  A    between atoms: O_8  and  C_9
REMARK    4  A    between atoms: C_9  and  C_10
REMARK                            x       y       z     vdW  Elec       q    Type
REMARK                         _______ _______ _______ _____ _____    ______ ____
ROOT
ATOM      1  C   UNL     1      45.215   6.528  11.406  0.00  0.00    +0.000 C 
ATOM      2  C   UNL     1      44.027   7.501  11.343  0.00  0.00    +0.000 C 
ATOM      3  C   UNL     1      44.502   8.952  11.357  0.00  0.00    +0.000 C 
ATOM      4  C   UNL     1      45.411   9.233  12.552  0.00  0.00    +0.000 C 
ATOM      5  N   UNL     1      46.506   8.269  12.574  0.00  0.00    +0.000 N 
ATOM      6  C   UNL     1      47.836   8.624  12.459  0.00  0.00    +0.000 A 
ATOM      7  C   UNL     1      48.295   9.846  12.912  0.00  0.00    +0.000 A 
ATOM      8  C   UNL     1      49.639  10.101  12.789  0.00  0.00    +0.000 A 
ATOM      9  N   UNL     1      50.506   9.241  12.238  0.00  0.00    +0.000 NA
ATOM     10  C   UNL     1      49.984   8.097  11.802  0.00  0.00    +0.000 A 
ATOM     11  N   UNL     1      50.854   7.194  11.223  0.00  0.00    +0.000 N 
ATOM     12  N   UNL     1      48.700   7.741  11.918  0.00  0.00    +0.000 NA
ATOM     13  C   UNL     1      46.132   6.857  12.592  0.00  0.00    +0.000 C 
ATOM     14  H   UNL     1      51.791   7.376  11.555  0.00  0.00    +0.000 HD
ATOM     15  H   UNL     1      50.493   6.258  11.328  0.00  0.00    +0.000 HD
ENDROOT
BRANCH   1  16
ATOM     16  C   UNL     1      44.743   5.071  11.494  0.00  0.00    +0.000 C 
BRANCH  16  17
ATOM     17  O   UNL     1      44.123   4.675  10.266  0.00  0.00    +0.000 OA
BRANCH  17  21
ATOM     18  C   UNL     1      46.450   2.344   7.713  0.00  0.00    +0.000 A 
ATOM     19  C   UNL     1      46.468   3.734   7.556  0.00  0.00    +0.000 A 
ATOM     20  C   UNL     1      45.698   4.543   8.391  0.00  0.00    +0.000 A 
ATOM     21  C   UNL     1      44.902   3.976   9.385  0.00  0.00    +0.000 A 
ATOM     22  C   UNL     1      44.863   2.583   9.523  0.00  0.00    +0.000 A 
ATOM     23  C   UNL     1      45.629   1.768   8.685  0.00  0.00    +0.000 A 
BRANCH  18  25
ATOM     24  N   UNL     1      48.315   2.060   6.182  0.00  0.00    +0.000 N 
ATOM     25  C   UNL     1      47.284   1.466   6.857  0.00  0.00    +0.000 C 
ATOM     26  O   UNL     1      47.088   0.260   6.784  0.00  0.00    +0.000 OA
ATOM     27  H   UNL     1      48.946   1.440   5.691  0.00  0.00    +0.000 HD
ATOM     28  H   UNL     1      48.657   2.980   6.422  0.00  0.00    +0.000 HD
ENDBRANCH  18  25
ENDBRANCH  17  21
ENDBRANCH  16  17
ENDBRANCH   1  16
TORSDOF 4
ENDMDL
MODEL 4
REMARK VINA RESULT:    -7.370      2.021      2.514
REMARK INTER + INTRA:          -9.407
REMARK INTER:                  -9.152
REMARK INTRA:                  -0.255
REMARK UNBOUND:                -0.314
REMARK  Name = 
REMARK  4 active torsions:
REMARK  status: ('A' for Active; 'I' for Inactive)
REMARK    1  A    between atoms: C_2  and  C_4
REMARK    2  A    between atoms: C_7  and  O_8
REMARK    3  A    between atoms: O_8  and  C_9
REMARK    4  A    between atoms: C_9  and  C_10
REMARK                            x       y       z     vdW  Elec       q    Type
REMARK                         _______ _______ _______ _____ _____    ______ ____
ROOT
ATOM      1  C   UNL     1      45.231   6.019  11.729  0.00  0.00    +0.000 C 
ATOM      2  C   UNL     1      44.957   4.671  12.415  0.00  0.00    +0.000 C 
ATOM      3  C   UNL     1      45.683   4.577  13.755  0.00  0.00    +0.000 C 
ATOM      4  C   UNL     1      47.179   4.847  13.602  0.00  0.00    +0.000 C 
ATOM      5  N   UNL     1      47.380   6.126  12.927  0.00  0.00    +0.000 N 
ATOM      6  C   UNL     1      48.028   7.199  13.506  0.00  0.00    +0.000 A 
ATOM      7  C   UNL     1      49.028   7.015  14.443  0.00  0.00    +0.000 A 
ATOM      8  C   UNL     1      49.642   8.138  14.940  0.00  0.00    +0.000 A 
ATOM      9  N   UNL     1      49.305   9.384  14.582  0.00  0.00    +0.000 NA
ATOM     10  C   UNL     1      48.316   9.481  13.696  0.00  0.00    +0.000 A 
ATOM     11  N   UNL     1      47.943  10.754  13.313  0.00  0.00    +0.000 N 
ATOM     12  N   UNL     1      47.690   8.446  13.123  0.00  0.00    +0.000 NA
ATOM     13  C   UNL     1      46.740   6.283  11.624  0.00  0.00    +0.000 C 
ATOM     14  H   UNL     1      48.713  11.387  13.473  0.00  0.00    +0.000 HD
ATOM     15  H   UNL     1      47.541  10.727  12.388  0.00  0.00    +0.000 HD
ENDROOT
BRANCH   1  16
ATOM     16  C   UNL     1      44.588   6.082  10.339  0.00  0.00    +0.000 C 
BRANCH  16  17
ATOM     17  O   UNL     1      43.889   4.864  10.059  0.00  0.00    +0.000 OA
BRANCH  17  21
ATOM     18  C   UNL     1      46.180   1.993   8.092  0.00  0.00    +0.000 A 
ATOM     19  C   UNL     1      45.231   1.568   9.026  0.00  0.00    +0.000 A 
ATOM     20  C   UNL     1      44.450   2.503   9.705  0.00  0.00    +0.000 A 
ATOM     21  C   UNL     1      44.610   3.867   9.463  0.00  0.00    +0.000 A 
ATOM     22  C   UNL     1      45.581   4.293   8.548  0.00  0.00    +0.000 A 
ATOM     23  C   UNL     1      46.370   3.359   7.869  0.00  0.00    +0.000 A 
BRANCH  18  25
ATOM     24  N   UNL     1      46.743  -0.308   7.556  0.00  0.00    +0.000 N 
ATOM     25  C   UNL     1      47.001   1.017   7.335  0.00  0.00    +0.000 C 
ATOM     26  O   UNL     1      47.843   1.373   6.521  0.00  0.00    +0.000 OA
ATOM     27  H   UNL     1      47.226  -0.965   6.957  0.00  0.00    +0.000 HD
ATOM     28  H   UNL     1      45.898  -0.625   8.011  0.00  0.00    +0.000 HD
ENDBRANCH  18  25
ENDBRANCH  17  21
ENDBRANCH  16  17
ENDBRANCH   1  16
TORSDOF 4
ENDMDL
MODEL 5
REMARK VINA RESULT:    -7.023      3.481      6.940
REMARK INTER + INTRA:          -8.979
REMARK INTER:                  -8.721
REMARK INTRA:                  -0.258
REMARK UNBOUND:                -0.314
REMARK  Name = 
REMARK  4 active torsions:
REMARK  status: ('A' for Active; 'I' for Inactive)
REMARK    1  A    between atoms: C_2  and  C_4
REMARK    2  A    between atoms: C_7  and  O_8
REMARK    3  A    between atoms: O_8  and  C_9
REMARK    4  A    between atoms: C_9  and  C_10
REMARK                            x       y       z     vdW  Elec       q    Type
REMARK                         _______ _______ _______ _____ _____    ______ ____
ROOT
ATOM      1  C   UNL     1      43.953   5.804  11.522  0.00  0.00    +0.000 C 
ATOM      2  C   UNL     1      43.506   5.116  12.822  0.00  0.00    +0.000 C 
ATOM      3  C   UNL     1      43.951   3.656  12.854  0.00  0.00    +0.000 C 
ATOM      4  C   UNL     1      43.480   2.899  11.613  0.00  0.00    +0.000 C 
ATOM      5  N   UNL     1      43.913   3.606  10.413  0.00  0.00    +0.000 N 
ATOM      6  C   UNL     1      44.769   3.063   9.475  0.00  0.00    +0.000 A 
ATOM      7  C   UNL     1      44.808   1.701   9.242  0.00  0.00    +0.000 A 
ATOM      8  C   UNL     1      45.665   1.252   8.266  0.00  0.00    +0.000 A 
ATOM      9  N   UNL     1      46.467   2.058   7.560  0.00  0.00    +0.000 NA
ATOM     10  C   UNL     1      46.392   3.353   7.860  0.00  0.00    +0.000 A 
ATOM     11  N   UNL     1      47.213   4.208   7.152  0.00  0.00    +0.000 N 
ATOM     12  N   UNL     1      45.558   3.889   8.759  0.00  0.00    +0.000 NA
ATOM     13  C   UNL     1      43.500   5.003  10.294  0.00  0.00    +0.000 C 
ATOM     14  H   UNL     1      47.462   3.776   6.273  0.00  0.00    +0.000 HD
ATOM     15  H   UNL     1      46.801   5.129   7.122  0.00  0.00    +0.000 HD
ENDROOT
BRANCH   1  16
ATOM     16  C   UNL     1      43.423   7.241  11.438  0.00  0.00    +0.000 C 
BRANCH  16  17
ATOM     17  O   UNL     1      44.504   8.157  11.233  0.00  0.00    +0.000 OA
BRANCH  17  21
ATOM     18  C   UNL     1      48.026   7.507  13.362  0.00  0.00    +0.000 A 
ATOM     19  C   UNL     1      47.788   6.748  12.212  0.00  0.00    +0.000 A 
ATOM     20  C   UNL     1      46.617   6.938  11.478  0.00  0.00    +0.000 A 
ATOM     21  C   UNL     1      45.673   7.880  11.885  0.00  0.00    +0.000 A 
ATOM     22  C   UNL     1      45.900   8.620  13.051  0.00  0.00    +0.000 A 
ATOM     23  C   UNL     1      47.070   8.430  13.793  0.00  0.00    +0.000 A 
BRANCH  18  25
ATOM     24  N   UNL     1      50.449   7.618  13.490  0.00  0.00    +0.000 N 
ATOM     25  C   UNL     1      49.277   7.345  14.141  0.00  0.00    +0.000 C 
ATOM     26  O   UNL     1      49.267   7.021  15.322  0.00  0.00    +0.000 OA
ATOM     27  H   UNL     1      51.288   7.615  14.056  0.00  0.00    +0.000 HD
ATOM     28  H   UNL     1      50.476   8.129  12.619  0.00  0.00    +0.000 HD
ENDBRANCH  18  25
ENDBRANCH  17  21
ENDBRANCH  16  17
ENDBRANCH   1  16
TORSDOF 4
ENDMDL
MODEL 6
REMARK VINA RESULT:    -6.946      3.652      5.804
REMARK INTER + INTRA:          -8.884
REMARK INTER:                  -8.202
REMARK INTRA:                  -0.682
REMARK UNBOUND:                -0.314
REMARK  Name = 
REMARK  4 active torsions:
REMARK  status: ('A' for Active; 'I' for Inactive)
REMARK    1  A    between atoms: C_2  and  C_4
REMARK    2  A    between atoms: C_7  and  O_8
REMARK    3  A    between atoms: O_8  and  C_9
REMARK    4  A    between atoms: C_9  and  C_10
REMARK                            x       y       z     vdW  Elec       q    Type
REMARK                         _______ _______ _______ _____ _____    ______ ____
ROOT
ATOM      1  C   UNL     1      48.004   7.835  12.686  0.00  0.00    +0.000 C 
ATOM      2  C   UNL     1      49.266   8.507  12.121  0.00  0.00    +0.000 C 
ATOM      3  C   UNL     1      50.522   7.996  12.822  0.00  0.00    +0.000 C 
ATOM      4  C   UNL     1      50.421   8.151  14.339  0.00  0.00    +0.000 C 
ATOM      5  N   UNL     1      49.197   7.516  14.816  0.00  0.00    +0.000 N 
ATOM      6  C   UNL     1      49.185   6.452  15.697  0.00  0.00    +0.000 A 
ATOM      7  C   UNL     1      50.183   6.288  16.640  0.00  0.00    +0.000 A 
ATOM      8  C   UNL     1      50.071   5.221  17.498  0.00  0.00    +0.000 A 
ATOM      9  N   UNL     1      49.069   4.335  17.447  0.00  0.00    +0.000 NA
ATOM     10  C   UNL     1      48.161   4.544  16.496  0.00  0.00    +0.000 A 
ATOM     11  N   UNL     1      47.119   3.642  16.417  0.00  0.00    +0.000 N 
ATOM     12  N   UNL     1      48.160   5.578  15.646  0.00  0.00    +0.000 NA
ATOM     13  C   UNL     1      47.947   7.973  14.214  0.00  0.00    +0.000 C 
ATOM     14  H   UNL     1      47.004   3.189  17.312  0.00  0.00    +0.000 HD
ATOM     15  H   UNL     1      46.312   4.089  16.009  0.00  0.00    +0.000 HD
ENDROOT
BRANCH   1  16
ATOM     16  C   UNL     1      46.731   8.415  12.058  0.00  0.00    +0.000 C 
BRANCH  16  17
ATOM     17  O   UNL     1      45.571   7.904  12.724  0.00  0.00    +0.000 OA
BRANCH  17  21
ATOM     18  C   UNL     1      44.370   4.114  11.474  0.00  0.00    +0.000 A 
ATOM     19  C   UNL     1      44.471   4.367  12.845  0.00  0.00    +0.000 A 
ATOM     20  C   UNL     1      44.874   5.624  13.297  0.00  0.00    +0.000 A 
ATOM     21  C   UNL     1      45.183   6.636  12.389  0.00  0.00    +0.000 A 
ATOM     22  C   UNL     1      45.109   6.373  11.016  0.00  0.00    +0.000 A 
ATOM     23  C   UNL     1      44.711   5.113  10.558  0.00  0.00    +0.000 A 
BRANCH  18  25
ATOM     24  N   UNL     1      44.634   2.247   9.943  0.00  0.00    +0.000 N 
ATOM     25  C   UNL     1      43.915   2.796  10.969  0.00  0.00    +0.000 C 
ATOM     26  O   UNL     1      42.967   2.205  11.468  0.00  0.00    +0.000 OA
ATOM     27  H   UNL     1      44.389   1.301   9.680  0.00  0.00    +0.000 HD
ATOM     28  H   UNL     1      45.556   2.577   9.693  0.00  0.00    +0.000 HD
ENDBRANCH  18  25
ENDBRANCH  17  21
ENDBRANCH  16  17
ENDBRANCH   1  16
TORSDOF 4
ENDMDL
MODEL 7
REMARK VINA RESULT:    -6.604      4.145      7.100
REMARK INTER + INTRA:          -8.462
REMARK INTER:                  -7.485
REMARK INTRA:                  -0.977
REMARK UNBOUND:                -0.314
REMARK  Name = 
REMARK  4 active torsions:
REMARK  status: ('A' for Active; 'I' for Inactive)
REMARK    1  A    between atoms: C_2  and  C_4
REMARK    2  A    between atoms: C_7  and  O_8
REMARK    3  A    between atoms: O_8  and  C_9
REMARK    4  A    between atoms: C_9  and  C_10
REMARK                            x       y       z     vdW  Elec       q    Type
REMARK                         _______ _______ _______ _____ _____    ______ ____
ROOT
ATOM      1  C   UNL     1      50.055   8.302  14.397  0.00  0.00    +0.000 C 
ATOM      2  C   UNL     1      51.438   8.473  15.045  0.00  0.00    +0.000 C 
ATOM      3  C   UNL     1      51.812   7.249  15.876  0.00  0.00    +0.000 C 
ATOM      4  C   UNL     1      50.734   6.919  16.907  0.00  0.00    +0.000 C 
ATOM      5  N   UNL     1      49.442   6.789  16.240  0.00  0.00    +0.000 N 
ATOM      6  C   UNL     1      48.704   5.622  16.231  0.00  0.00    +0.000 A 
ATOM      7  C   UNL     1      48.771   4.721  17.277  0.00  0.00    +0.000 A 
ATOM      8  C   UNL     1      47.975   3.603  17.199  0.00  0.00    +0.000 A 
ATOM      9  N   UNL     1      47.169   3.341  16.163  0.00  0.00    +0.000 NA
ATOM     10  C   UNL     1      47.180   4.242  15.182  0.00  0.00    +0.000 A 
ATOM     11  N   UNL     1      46.363   3.994  14.097  0.00  0.00    +0.000 N 
ATOM     12  N   UNL     1      47.884   5.380  15.189  0.00  0.00    +0.000 NA
ATOM     13  C   UNL     1      48.999   7.933  15.448  0.00  0.00    +0.000 C 
ATOM     14  H   UNL     1      45.616   3.375  14.379  0.00  0.00    +0.000 HD
ATOM     15  H   UNL     1      46.108   4.866  13.656  0.00  0.00    +0.000 HD
ENDROOT
BRANCH   1  16
ATOM     16  C   UNL     1      49.629   9.567  13.643  0.00  0.00    +0.000 C 
BRANCH  16  17
ATOM     17  O   UNL     1      49.149   9.229  12.337  0.00  0.00    +0.000 OA
BRANCH  17  21
ATOM     18  C   UNL     1      45.549   7.156  12.011  0.00  0.00    +0.000 A 
ATOM     19  C   UNL     1      45.537   8.437  12.571  0.00  0.00    +0.000 A 
ATOM     20  C   UNL     1      46.725   9.157  12.698  0.00  0.00    +0.000 A 
ATOM     21  C   UNL     1      47.933   8.606  12.274  0.00  0.00    +0.000 A 
ATOM     22  C   UNL     1      47.948   7.313  11.739  0.00  0.00    +0.000 A 
ATOM     23  C   UNL     1      46.761   6.585  11.614  0.00  0.00    +0.000 A 
BRANCH  18  25
ATOM     24  N   UNL     1      43.289   6.991  11.137  0.00  0.00    +0.000 N 
ATOM     25  C   UNL     1      44.295   6.384  11.837  0.00  0.00    +0.000 C 
ATOM     26  O   UNL     1      44.174   5.242  12.262  0.00  0.00    +0.000 OA
ATOM     27  H   UNL     1      42.481   6.419  10.925  0.00  0.00    +0.000 HD
ATOM     28  H   UNL     1      43.448   7.806  10.560  0.00  0.00    +0.000 HD
ENDBRANCH  18  25
ENDBRANCH  17  21
ENDBRANCH  16  17
ENDBRANCH   1  16
TORSDOF 4
ENDMDL
MODEL 8
REMARK VINA RESULT:    -6.467      3.564      7.045
REMARK INTER + INTRA:          -8.293
REMARK INTER:                  -7.810
REMARK INTRA:                  -0.483
REMARK UNBOUND:                -0.314
REMARK  Name = 
REMARK  4 active torsions:
REMARK  status: ('A' for Active; 'I' for Inactive)
REMARK    1  A    between atoms: C_2  and  C_4
REMARK    2  A    between atoms: C_7  and  O_8
REMARK    3  A    between atoms: O_8  and  C_9
REMARK    4  A    between atoms: C_9  and  C_10
REMARK                            x       y       z     vdW  Elec       q    Type
REMARK                         _______ _______ _______ _____ _____    ______ ____
ROOT
ATOM      1  C   UNL     1      45.219   6.239  11.795  0.00  0.00    +0.000 C 
ATOM      2  C   UNL     1      44.877   5.627  13.162  0.00  0.00    +0.000 C 
ATOM      3  C   UNL     1      44.999   4.105  13.130  0.00  0.00    +0.000 C 
ATOM      4  C   UNL     1      44.161   3.499  12.006  0.00  0.00    +0.000 C 
ATOM      5  N   UNL     1      44.511   4.131  10.738  0.00  0.00    +0.000 N 
ATOM      6  C   UNL     1      45.048   3.443   9.667  0.00  0.00    +0.000 A 
ATOM      7  C   UNL     1      44.752   2.111   9.447  0.00  0.00    +0.000 A 
ATOM      8  C   UNL     1      45.303   1.517   8.338  0.00  0.00    +0.000 A 
ATOM      9  N   UNL     1      46.118   2.153   7.487  0.00  0.00    +0.000 NA
ATOM     10  C   UNL     1      46.377   3.426   7.781  0.00  0.00    +0.000 A 
ATOM     11  N   UNL     1      47.220   4.106   6.924  0.00  0.00    +0.000 N 
ATOM     12  N   UNL     1      45.853   4.102   8.809  0.00  0.00    +0.000 NA
ATOM     13  C   UNL     1      44.392   5.585  10.679  0.00  0.00    +0.000 C 
ATOM     14  H   UNL     1      47.208   3.655   6.020  0.00  0.00    +0.000 HD
ATOM     15  H   UNL     1      47.016   5.093   6.958  0.00  0.00    +0.000 HD
ENDROOT
BRANCH   1  16
ATOM     16  C   UNL     1      45.002   7.757  11.790  0.00  0.00    +0.000 C 
BRANCH  16  17
ATOM     17  O   UNL     1      45.843   8.382  12.765  0.00  0.00    +0.000 OA
BRANCH  17  21
ATOM     18  C   UNL     1      49.872   8.728  11.757  0.00  0.00    +0.000 A 
ATOM     19  C   UNL     1      49.449   7.590  12.451  0.00  0.00    +0.000 A 
ATOM     20  C   UNL     1      48.109   7.444  12.806  0.00  0.00    +0.000 A 
ATOM     21  C   UNL     1      47.180   8.431  12.479  0.00  0.00    +0.000 A 
ATOM     22  C   UNL     1      47.609   9.583  11.810  0.00  0.00    +0.000 A 
ATOM     23  C   UNL     1      48.953   9.736  11.455  0.00  0.00    +0.000 A 
BRANCH  18  25
ATOM     24  N   UNL     1      52.094   7.794  11.461  0.00  0.00    +0.000 N 
ATOM     25  C   UNL     1      51.286   8.891  11.341  0.00  0.00    +0.000 C 
ATOM     26  O   UNL     1      51.706   9.942  10.875  0.00  0.00    +0.000 OA
ATOM     27  H   UNL     1      53.025   7.878  11.072  0.00  0.00    +0.000 HD
ATOM     28  H   UNL     1      51.724   6.862  11.589  0.00  0.00    +0.000 HD
ENDBRANCH  18  25
ENDBRANCH  17  21
ENDBRANCH  16  17
ENDBRANCH   1  16
TORSDOF 4
ENDMDL
MODEL 9
REMARK VINA RESULT:    -6.218      4.314      6.829
REMARK INTER + INTRA:          -7.987
REMARK INTER:                  -7.484
REMARK INTRA:                  -0.503
REMARK UNBOUND:                -0.314
REMARK  Name = 
REMARK  4 active torsions:
REMARK  status: ('A' for Active; 'I' for Inactive)
REMARK    1  A    between atoms: C_2  and  C_4
REMARK    2  A    between atoms: C_7  and  O_8
REMARK    3  A    between atoms: O_8  and  C_9
REMARK    4  A    between atoms: C_9  and  C_10
REMARK                            x       y       z     vdW  Elec       q    Type
REMARK                         _______ _______ _______ _____ _____    ______ ____
ROOT
ATOM      1  C   UNL     1      46.084   4.586  12.595  0.00  0.00    +0.000 C 
ATOM      2  C   UNL     1      45.062   3.873  11.695  0.00  0.00    +0.000 C 
ATOM      3  C   UNL     1      44.434   4.844  10.699  0.00  0.00    +0.000 C 
ATOM      4  C   UNL     1      43.828   6.057  11.403  0.00  0.00    +0.000 C 
ATOM      5  N   UNL     1      44.833   6.681  12.257  0.00  0.00    +0.000 N 
ATOM      6  C   UNL     1      45.286   7.973  12.082  0.00  0.00    +0.000 A 
ATOM      7  C   UNL     1      44.472   8.953  11.545  0.00  0.00    +0.000 A 
ATOM      8  C   UNL     1      44.993  10.220  11.440  0.00  0.00    +0.000 A 
ATOM      9  N   UNL     1      46.241  10.537  11.807  0.00  0.00    +0.000 NA
ATOM     10  C   UNL     1      46.973   9.535  12.291  0.00  0.00    +0.000 A 
ATOM     11  N   UNL     1      48.266   9.832  12.671  0.00  0.00    +0.000 N 
ATOM     12  N   UNL     1      46.539   8.282  12.473  0.00  0.00    +0.000 NA
ATOM     13  C   UNL     1      45.461   5.822  13.259  0.00  0.00    +0.000 C 
ATOM     14  H   UNL     1      48.334  10.819  12.874  0.00  0.00    +0.000 HD
ATOM     15  H   UNL     1      48.569   9.185  13.384  0.00  0.00    +0.000 HD
ENDROOT
BRANCH   1  16
ATOM     16  C   UNL     1      46.646   3.642  13.664  0.00  0.00    +0.000 C 
BRANCH  16  17
ATOM     17  O   UNL     1      46.478   4.210  14.967  0.00  0.00    +0.000 OA
BRANCH  17  21
ATOM     18  C   UNL     1      49.750   4.096  17.546  0.00  0.00    +0.000 A 
ATOM     19  C   UNL     1      49.119   2.894  17.209  0.00  0.00    +0.000 A 
ATOM     20  C   UNL     1      48.019   2.898  16.351  0.00  0.00    +0.000 A 
ATOM     21  C   UNL     1      47.536   4.095  15.826  0.00  0.00    +0.000 A 
ATOM     22  C   UNL     1      48.151   5.301  16.186  0.00  0.00    +0.000 A 
ATOM     23  C   UNL     1      49.251   5.303  17.050  0.00  0.00    +0.000 A 
BRANCH  18  25
ATOM     24  N   UNL     1      51.673   2.963  18.502  0.00  0.00    +0.000 N 
ATOM     25  C   UNL     1      50.939   4.115  18.431  0.00  0.00    +0.000 C 
ATOM     26  O   UNL     1      51.276   5.122  19.040  0.00  0.00    +0.000 OA
ATOM     27  H   UNL     1      52.543   3.016  19.017  0.00  0.00    +0.000 HD
ATOM     28  H   UNL     1      51.576   2.219  17.825  0.00  0.00    +0.000 HD
ENDBRANCH  18  25
ENDBRANCH  17  21
ENDBRANCH  16  17
ENDBRANCH   1  16
TORSDOF 4
ENDMDL
