MODEL 1
REMARK VINA RESULT:    -7.201      0.000      0.000
REMARK INTER + INTRA:          -9.561
REMARK INTER:                  -9.096
REMARK INTRA:                  -0.466
REMARK UNBOUND:                -0.466
REMARK  Name = 
REMARK  6 active torsions:
REMARK  status: ('A' for Active; 'I' for Inactive)
REMARK    1  A    between atoms: C_1  and  C_2
REMARK    2  A    between atoms: C_2  and  C_3
REMARK    3  A    between atoms: C_2  and  C_14
REMARK    4  A    between atoms: C_3  and  N_4
REMARK    5  A    between atoms: CA_9  and  C_10
REMARK    6  A    between atoms: C_10  and  OXT_12
REMARK                            x       y       z     vdW  Elec       q    Type
REMARK                         _______ _______ _______ _____ _____    ______ ____
ROOT
ATOM      1  N   UNL     1      44.568   4.741  10.859  0.00  0.00    +0.000 N 
ATOM      2  C   UNL     1      45.486   5.061  11.841  0.00  0.00    +0.000 A 
ATOM      3  N   UNL     1      45.292   4.489  13.035  0.00  0.00    +0.000 NA
ATOM      4  C   UNL     1      46.152   4.794  14.026  0.00  0.00    +0.000 A 
ATOM      5  C   UNL     1      47.209   5.648  13.866  0.00  0.00    +0.000 A 
ATOM      6  CA  UNL     1      47.322   6.173  12.604  0.00  0.00    +0.000 A 
ATOM      7  N   UNL     1      46.485   5.906  11.571  0.00  0.00    +0.000 NA
ATOM      8  H   UNL     1      44.117   3.878  11.150  0.00  0.00    +0.000 HD
ENDROOT
BRANCH   6   9
ATOM      9  C   UNL     1      48.435   7.105  12.281  0.00  0.00    +0.000 C 
ATOM     10  O   UNL     1      48.318   8.133  11.638  0.00  0.00    +0.000 OA
BRANCH   9  11
ATOM     11  OXT UNL     1      49.603   6.659  12.810  0.00  0.00    +0.000 OA
ATOM     12  HXT UNL     1      50.261   6.554  12.084  0.00  0.00    +0.000 HD
ENDBRANCH   9  11
ENDBRANCH   6   9
BRANCH   1  13
ATOM     13  C   UNL     1      45.092   4.721   9.510  0.00  0.00    +0.000 C 
BRANCH  13  15
ATOM     14  C   UNL     1      44.197   2.334   9.843  0.00  0.00    +0.000 C 
ATOM     15  C   UNL     1      44.945   3.318   8.998  0.00  0.00    +0.000 C 
BRANCH  15  16
ATOM     16  C   UNL     1      45.904   2.845   7.990  0.00  0.00    +0.000 A 
ATOM     17  C   UNL     1      46.428   1.548   8.053  0.00  0.00    +0.000 A 
ATOM     18  C   UNL     1      47.261   1.070   7.039  0.00  0.00    +0.000 A 
ATOM     19  C   UNL     1      47.575   1.885   5.953  0.00  0.00    +0.000 A 
ATOM     20  C   UNL     1      47.081   3.185   5.895  0.00  0.00    +0.000 A 
ATOM     21  C   UNL     1      46.258   3.666   6.913  0.00  0.00    +0.000 A 
ENDBRANCH  15  16
ENDBRANCH  13  15
ENDBRANCH   1  13
TORSDOF 5
ENDMDL
MODEL 2
REMARK VINA RESULT:    -7.107      2.225      2.865
REMARK INTER + INTRA:          -9.442
REMARK INTER:                  -9.017
REMARK INTRA:                  -0.425
REMARK UNBOUND:                -0.466
REMARK  Name = 
REMARK  6 active torsions:
REMARK  status: ('A' for Active; 'I' for Inactive)
REMARK    1  A    between atoms: C_1  and  C_2
REMARK    2  A    between atoms: C_2  and  C_3
REMARK    3  A    between atoms: C_2  and  C_14
REMARK    4  A    between atoms: C_3  and  N_4
REMARK    5  A    between atoms: CA_9  and  C_10
REMARK    6  A    between atoms: C_10  and  OXT_12
REMARK                            x       y       z     vdW  Elec       q    Type
REMARK                         _______ _______ _______ _____ _____    ______ ____
ROOT
ATOM      1  N   UNL     1      45.470   4.884  11.164  0.00  0.00    +0.000 N 
ATOM      2  C   UNL     1      45.715   6.134  11.701  0.00  0.00    +0.000 A 
ATOM      3  N   UNL     1      46.719   6.209  12.582  0.00  0.00    +0.000 NA
ATOM      4  C   UNL     1      46.974   7.406  13.145  0.00  0.00    +0.000 A 
ATOM      5  C   UNL     1      46.265   8.539  12.853  0.00  0.00    +0.000 A 
ATOM      6  CA  UNL     1      45.264   8.355  11.933  0.00  0.00    +0.000 A 
ATOM      7  N   UNL     1      44.959   7.175  11.338  0.00  0.00    +0.000 NA
ATOM      8  H   UNL     1      46.314   4.336  11.302  0.00  0.00    +0.000 HD
ENDROOT
BRANCH   6   9
ATOM      9  C   UNL     1      44.421   9.505  11.509  0.00  0.00    +0.000 C 
ATOM     10  O   UNL     1      44.310  10.551  12.122  0.00  0.00    +0.000 OA
BRANCH   9  11
ATOM     11  OXT UNL     1      43.797   9.234  10.334  0.00  0.00    +0.000 OA
ATOM     12  HXT UNL     1      42.904   9.652  10.345  0.00  0.00    +0.000 HD
ENDBRANCH   9  11
ENDBRANCH   6   9
BRANCH   1  13
ATOM     13  C   UNL     1      44.967   4.885   9.807  0.00  0.00    +0.000 C 
BRANCH  13  15
ATOM     14  C   UNL     1      44.065   2.552  10.400  0.00  0.00    +0.000 C 
ATOM     15  C   UNL     1      44.744   3.454   9.417  0.00  0.00    +0.000 C 
BRANCH  15  16
ATOM     16  C   UNL     1      45.590   2.886   8.357  0.00  0.00    +0.000 A 
ATOM     17  C   UNL     1      46.064   3.689   7.312  0.00  0.00    +0.000 A 
ATOM     18  C   UNL     1      46.947   3.167   6.363  0.00  0.00    +0.000 A 
ATOM     19  C   UNL     1      47.364   1.841   6.453  0.00  0.00    +0.000 A 
ATOM     20  C   UNL     1      46.877   1.027   7.473  0.00  0.00    +0.000 A 
ATOM     21  C   UNL     1      45.987   1.544   8.413  0.00  0.00    +0.000 A 
ENDBRANCH  15  16
ENDBRANCH  13  15
ENDBRANCH   1  13
TORSDOF 5
ENDMDL
MODEL 3
REMARK VINA RESULT:    -6.937      2.791      4.046
REMARK INTER + INTRA:          -9.227
REMARK INTER:                  -8.827
REMARK INTRA:                  -0.400
REMARK UNBOUND:                -0.466
REMARK  Name = 
REMARK  6 active torsions:
REMARK  status: ('A' for Active; 'I' for Inactive)
REMARK    1  A    between atoms: C_1  and  C_2
REMARK    2  A    between atoms: C_2  and  C_3
REMARK    3  A    between atoms: C_2  and  C_14
REMARK    4  A    between atoms: C_3  and  N_4
REMARK    5  A    between atoms: CA_9  and  C_10
REMARK    6  A    between atoms: C_10  and  OXT_12
REMARK                            x       y       z     vdW  Elec       q    Type
REMARK                         _______ _______ _______ _____ _____    ______ ____
ROOT
ATOM      1  N   UNL     1      46.216   5.179  12.700  0.00  0.00    +0.000 N 
ATOM      2  C   UNL     1      46.937   5.250  13.877  0.00  0.00    +0.000 A 
ATOM      3  N   UNL     1      47.651   6.367  14.062  0.00  0.00    +0.000 NA
ATOM      4  C   UNL     1      48.386   6.464  15.186  0.00  0.00    +0.000 A 
ATOM      5  C   UNL     1      48.430   5.485  16.141  0.00  0.00    +0.000 A 
ATOM      6  CA  UNL     1      47.658   4.387  15.858  0.00  0.00    +0.000 A 
ATOM      7  N   UNL     1      46.903   4.233  14.743  0.00  0.00    +0.000 NA
ATOM      8  H   UNL     1      46.114   6.132  12.362  0.00  0.00    +0.000 HD
ENDROOT
BRANCH   6   9
ATOM      9  C   UNL     1      47.597   3.251  16.816  0.00  0.00    +0.000 C 
ATOM     10  O   UNL     1      48.505   2.468  17.026  0.00  0.00    +0.000 OA
BRANCH   9  11
ATOM     11  OXT UNL     1      46.390   3.211  17.436  0.00  0.00    +0.000 OA
ATOM     12  HXT UNL     1      46.153   2.269  17.608  0.00  0.00    +0.000 HD
ENDBRANCH   9  11
ENDBRANCH   6   9
BRANCH   1  13
ATOM     13  C   UNL     1      44.978   4.434  12.781  0.00  0.00    +0.000 C 
BRANCH  13  15
ATOM     14  C   UNL     1      42.802   5.178  11.633  0.00  0.00    +0.000 C 
ATOM     15  C   UNL     1      44.216   4.700  11.517  0.00  0.00    +0.000 C 
BRANCH  15  16
ATOM     16  C   UNL     1      44.676   4.049  10.282  0.00  0.00    +0.000 A 
ATOM     17  C   UNL     1      45.310   4.789   9.275  0.00  0.00    +0.000 A 
ATOM     18  C   UNL     1      45.832   4.149   8.149  0.00  0.00    +0.000 A 
ATOM     19  C   UNL     1      45.727   2.766   8.020  0.00  0.00    +0.000 A 
ATOM     20  C   UNL     1      45.074   2.025   9.002  0.00  0.00    +0.000 A 
ATOM     21  C   UNL     1      44.543   2.665  10.122  0.00  0.00    +0.000 A 
ENDBRANCH  15  16
ENDBRANCH  13  15
ENDBRANCH   1  13
TORSDOF 5
ENDMDL
MODEL 4
REMARK VINA RESULT:    -6.445      4.262      7.838
REMARK INTER + INTRA:          -8.607
REMARK INTER:                  -8.190
REMARK INTRA:                  -0.416
REMARK UNBOUND:                -0.466
REMARK  Name = 
REMARK  6 active torsions:
REMARK  status: ('A' for Active; 'I' for Inactive)
REMARK    1  A    between atoms: C_1  and  C_2
REMARK    2  A    between atoms: C_2  and  C_3
REMARK    3  A    between atoms: C_2  and  C_14
REMARK    4  A    between atoms: C_3  and  N_4
REMARK    5  A    between atoms: CA_9  and  C_10
REMARK    6  A    between atoms: C_10  and  OXT_12
REMARK                            x       y       z     vdW  Elec       q    Type
REMARK                         _______ _______ _______ _____ _____    ______ ____
ROOT
ATOM      1  N   UNL     1      47.147   5.065  15.037  0.00  0.00    +0.000 N 
ATOM      2  C   UNL     1      46.508   5.143  13.814  0.00  0.00    +0.000 A 
ATOM      3  N   UNL     1      46.938   6.102  12.986  0.00  0.00    +0.000 NA
ATOM      4  C   UNL     1      46.324   6.224  11.793  0.00  0.00    +0.000 A 
ATOM      5  C   UNL     1      45.296   5.416  11.391  0.00  0.00    +0.000 A 
ATOM      6  CA  UNL     1      44.938   4.463  12.310  0.00  0.00    +0.000 A 
ATOM      7  N   UNL     1      45.516   4.295  13.525  0.00  0.00    +0.000 NA
ATOM      8  H   UNL     1      48.037   5.544  14.932  0.00  0.00    +0.000 HD
ENDROOT
BRANCH   6   9
ATOM      9  C   UNL     1      43.845   3.503  12.001  0.00  0.00    +0.000 C 
ATOM     10  O   UNL     1      43.021   3.647  11.116  0.00  0.00    +0.000 OA
BRANCH   9  11
ATOM     11  OXT UNL     1      43.895   2.433  12.835  0.00  0.00    +0.000 OA
ATOM     12  HXT UNL     1      43.058   2.396  13.356  0.00  0.00    +0.000 HD
ENDBRANCH   9  11
ENDBRANCH   6   9
BRANCH   1  13
ATOM     13  C   UNL     1      47.241   3.735  15.599  0.00  0.00    +0.000 C 
BRANCH  13  15
ATOM     14  C   UNL     1      47.175   4.817  17.930  0.00  0.00    +0.000 C 
ATOM     15  C   UNL     1      47.833   3.874  16.970  0.00  0.00    +0.000 C 
BRANCH  15  16
ATOM     16  C   UNL     1      49.240   3.493  17.159  0.00  0.00    +0.000 A 
ATOM     17  C   UNL     1      50.189   4.437  17.571  0.00  0.00    +0.000 A 
ATOM     18  C   UNL     1      51.502   4.048  17.844  0.00  0.00    +0.000 A 
ATOM     19  C   UNL     1      51.876   2.713  17.709  0.00  0.00    +0.000 A 
ATOM     20  C   UNL     1      50.947   1.772  17.274  0.00  0.00    +0.000 A 
ATOM     21  C   UNL     1      49.639   2.161  16.991  0.00  0.00    +0.000 A 
ENDBRANCH  15  16
ENDBRANCH  13  15
ENDBRANCH   1  13
TORSDOF 5
ENDMDL
MODEL 5
REMARK VINA RESULT:    -6.202      3.087      6.407
REMARK INTER + INTRA:          -8.299
REMARK INTER:                  -7.822
REMARK INTRA:                  -0.477
REMARK UNBOUND:                -0.466
REMARK  Name = 
REMARK  6 active torsions:
REMARK  status: ('A' for Active; 'I' for Inactive)
REMARK    1  A    between atoms: C_1  and  C_2
REMARK    2  A    between atoms: C_2  and  C_3
REMARK    3  A    between atoms: C_2  and  C_14
REMARK    4  A    between atoms: C_3  and  N_4
REMARK    5  A    between atoms: CA_9  and  C_10
REMARK    6  A    between atoms: C_10  and  OXT_12
REMARK                            x       y       z     vdW  Elec       q    Type
REMARK                         _______ _______ _______ _____ _____    ______ ____
ROOT
ATOM      1  N   UNL     1      45.412   6.808  10.691  0.00  0.00    +0.000 N 
ATOM      2  C   UNL     1      45.117   5.477  10.463  0.00  0.00    +0.000 A 
ATOM      3  N   UNL     1      45.495   4.986   9.278  0.00  0.00    +0.000 NA
ATOM      4  C   UNL     1      45.204   3.699   9.008  0.00  0.00    +0.000 A 
ATOM      5  C   UNL     1      44.552   2.877   9.887  0.00  0.00    +0.000 A 
ATOM      6  CA  UNL     1      44.216   3.476  11.074  0.00  0.00    +0.000 A 
ATOM      7  N   UNL     1      44.478   4.766  11.398  0.00  0.00    +0.000 NA
ATOM      8  H   UNL     1      46.150   7.059  10.040  0.00  0.00    +0.000 HD
ENDROOT
BRANCH   6   9
ATOM      9  C   UNL     1      43.516   2.697  12.130  0.00  0.00    +0.000 C 
ATOM     10  O   UNL     1      43.444   3.021  13.302  0.00  0.00    +0.000 OA
BRANCH   9  11
ATOM     11  OXT UNL     1      42.956   1.576  11.609  0.00  0.00    +0.000 OA
ATOM     12  HXT UNL     1      42.706   1.753  10.671  0.00  0.00    +0.000 HD
ENDBRANCH   9  11
ENDBRANCH   6   9
BRANCH   1  13
ATOM     13  C   UNL     1      45.684   7.150  12.071  0.00  0.00    +0.000 C 
BRANCH  13  15
ATOM     14  C   UNL     1      47.450   5.724  13.277  0.00  0.00    +0.000 C 
ATOM     15  C   UNL     1      47.129   6.837  12.328  0.00  0.00    +0.000 C 
BRANCH  15  16
ATOM     16  C   UNL     1      48.123   7.884  12.054  0.00  0.00    +0.000 A 
ATOM     17  C   UNL     1      49.453   7.550  11.764  0.00  0.00    +0.000 A 
ATOM     18  C   UNL     1      50.370   8.541  11.408  0.00  0.00    +0.000 A 
ATOM     19  C   UNL     1      49.966   9.872  11.338  0.00  0.00    +0.000 A 
ATOM     20  C   UNL     1      48.654  10.217  11.651  0.00  0.00    +0.000 A 
ATOM     21  C   UNL     1      47.740   9.230  12.017  0.00  0.00    +0.000 A 
ENDBRANCH  15  16
ENDBRANCH  13  15
ENDBRANCH   1  13
TORSDOF 5
ENDMDL
MODEL 6
REMARK VINA RESULT:    -6.148      2.841      6.437
REMARK INTER + INTRA:          -8.231
REMARK INTER:                  -7.768
REMARK INTRA:                  -0.463
REMARK UNBOUND:                -0.466
REMARK  Name = 
REMARK  6 active torsions:
REMARK  status: ('A' for Active; 'I' for Inactive)
REMARK    1  A    between atoms: C_1  and  C_2
REMARK    2  A    between atoms: C_2  and  C_3
REMARK    3  A    between atoms: C_2  and  C_14
REMARK    4  A    between atoms: C_3  and  N_4
REMARK    5  A    between atoms: CA_9  and  C_10
REMARK    6  A    between atoms: C_10  and  OXT_12
REMARK                            x       y       z     vdW  Elec       q    Type
REMARK                         _______ _______ _______ _____ _____    ______ ____
ROOT
ATOM      1  N   UNL     1      45.585   5.749  13.396  0.00  0.00    +0.000 N 
ATOM      2  C   UNL     1      45.001   4.848  12.526  0.00  0.00    +0.000 A 
ATOM      3  N   UNL     1      44.224   3.913  13.083  0.00  0.00    +0.000 NA
ATOM      4  C   UNL     1      43.655   3.001  12.271  0.00  0.00    +0.000 A 
ATOM      5  C   UNL     1      43.829   2.994  10.914  0.00  0.00    +0.000 A 
ATOM      6  CA  UNL     1      44.636   3.998  10.444  0.00  0.00    +0.000 A 
ATOM      7  N   UNL     1      45.238   4.938  11.214  0.00  0.00    +0.000 NA
ATOM      8  H   UNL     1      45.044   5.719  14.255  0.00  0.00    +0.000 HD
ENDROOT
BRANCH   6   9
ATOM      9  C   UNL     1      44.901   4.122   8.986  0.00  0.00    +0.000 C 
ATOM     10  O   UNL     1      44.629   3.275   8.154  0.00  0.00    +0.000 OA
BRANCH   9  11
ATOM     11  OXT UNL     1      45.480   5.317   8.703  0.00  0.00    +0.000 OA
ATOM     12  HXT UNL     1      45.941   5.646   9.511  0.00  0.00    +0.000 HD
ENDBRANCH   9  11
ENDBRANCH   6   9
BRANCH   1  13
ATOM     13  C   UNL     1      45.790   7.078  12.860  0.00  0.00    +0.000 C 
BRANCH  13  15
ATOM     14  C   UNL     1      48.099   6.591  13.879  0.00  0.00    +0.000 C 
ATOM     15  C   UNL     1      47.265   7.346  12.890  0.00  0.00    +0.000 C 
BRANCH  15  16
ATOM     16  C   UNL     1      47.749   8.618  12.337  0.00  0.00    +0.000 A 
ATOM     17  C   UNL     1      49.077   8.755  11.911  0.00  0.00    +0.000 A 
ATOM     18  C   UNL     1      49.505   9.934  11.295  0.00  0.00    +0.000 A 
ATOM     19  C   UNL     1      48.609  10.983  11.099  0.00  0.00    +0.000 A 
ATOM     20  C   UNL     1      47.295  10.867  11.544  0.00  0.00    +0.000 A 
ATOM     21  C   UNL     1      46.870   9.695  12.168  0.00  0.00    +0.000 A 
ENDBRANCH  15  16
ENDBRANCH  13  15
ENDBRANCH   1  13
TORSDOF 5
ENDMDL
MODEL 7
REMARK VINA RESULT:    -6.136      2.499      4.028
REMARK INTER + INTRA:          -8.216
REMARK INTER:                  -7.800
REMARK INTRA:                  -0.415
REMARK UNBOUND:                -0.466
REMARK  Name = 
REMARK  6 active torsions:
REMARK  status: ('A' for Active; 'I' for Inactive)
REMARK    1  A    between atoms: C_1  and  C_2
REMARK    2  A    between atoms: C_2  and  C_3
REMARK    3  A    between atoms: C_2  and  C_14
REMARK    4  A    between atoms: C_3  and  N_4
REMARK    5  A    between atoms: CA_9  and  C_10
REMARK    6  A    between atoms: C_10  and  OXT_12
REMARK                            x       y       z     vdW  Elec       q    Type
REMARK                         _______ _______ _______ _____ _____    ______ ____
ROOT
ATOM      1  N   UNL     1      46.163   4.297  14.237  0.00  0.00    +0.000 N 
ATOM      2  C   UNL     1      47.044   4.491  15.284  0.00  0.00    +0.000 A 
ATOM      3  N   UNL     1      46.944   3.630  16.304  0.00  0.00    +0.000 NA
ATOM      4  C   UNL     1      47.770   3.800  17.354  0.00  0.00    +0.000 A 
ATOM      5  C   UNL     1      48.703   4.799  17.421  0.00  0.00    +0.000 A 
ATOM      6  CA  UNL     1      48.728   5.620  16.323  0.00  0.00    +0.000 A 
ATOM      7  N   UNL     1      47.919   5.500  15.241  0.00  0.00    +0.000 NA
ATOM      8  H   UNL     1      45.834   3.338  14.307  0.00  0.00    +0.000 HD
ENDROOT
BRANCH   6   9
ATOM      9  C   UNL     1      49.704   6.741  16.251  0.00  0.00    +0.000 C 
ATOM     10  O   UNL     1      49.862   7.582  17.117  0.00  0.00    +0.000 OA
BRANCH   9  11
ATOM     11  OXT UNL     1      50.405   6.693  15.090  0.00  0.00    +0.000 OA
ATOM     12  HXT UNL     1      50.598   5.750  14.874  0.00  0.00    +0.000 HD
ENDBRANCH   9  11
ENDBRANCH   6   9
BRANCH   1  13
ATOM     13  C   UNL     1      46.666   4.668  12.933  0.00  0.00    +0.000 C 
BRANCH  13  15
ATOM     14  C   UNL     1      44.413   5.902  12.833  0.00  0.00    +0.000 C 
ATOM     15  C   UNL     1      45.495   5.147  12.126  0.00  0.00    +0.000 C 
BRANCH  15  16
ATOM     16  C   UNL     1      45.212   4.474  10.850  0.00  0.00    +0.000 A 
ATOM     17  C   UNL     1      45.573   5.066   9.633  0.00  0.00    +0.000 A 
ATOM     18  C   UNL     1      45.391   4.378   8.430  0.00  0.00    +0.000 A 
ATOM     19  C   UNL     1      44.850   3.095   8.436  0.00  0.00    +0.000 A 
ATOM     20  C   UNL     1      44.464   2.509   9.638  0.00  0.00    +0.000 A 
ATOM     21  C   UNL     1      44.635   3.199  10.838  0.00  0.00    +0.000 A 
ENDBRANCH  15  16
ENDBRANCH  13  15
ENDBRANCH   1  13
TORSDOF 5
ENDMDL
MODEL 8
REMARK VINA RESULT:    -6.053      4.429      6.223
REMARK INTER + INTRA:          -8.111
REMARK INTER:                  -7.705
REMARK INTRA:                  -0.406
REMARK UNBOUND:                -0.466
REMARK  Name = 
REMARK  6 active torsions:
REMARK  status: ('A' for Active; 'I' for Inactive)
REMARK    1  A    between atoms: C_1  and  C_2
REMARK    2  A    between atoms: C_2  and  C_3
REMARK    3  A    between atoms: C_2  and  C_14
REMARK    4  A    between atoms: C_3  and  N_4
REMARK    5  A    between atoms: CA_9  and  C_10
REMARK    6  A    between atoms: C_10  and  OXT_12
REMARK                            x       y       z     vdW  Elec       q    Type
REMARK                         _______ _______ _______ _____ _____    ______ ____
ROOT
ATOM      1  N   UNL     1      47.182   5.159  15.659  0.00  0.00    +0.000 N 
ATOM      2  C   UNL     1      47.937   4.715  16.729  0.00  0.00    +0.000 A 
ATOM      3  N   UNL     1      47.641   5.250  17.919  0.00  0.00    +0.000 NA
ATOM      4  C   UNL     1      48.371   4.861  18.982  0.00  0.00    +0.000 A 
ATOM      5  C   UNL     1      49.386   3.947  18.902  0.00  0.00    +0.000 A 
ATOM      6  CA  UNL     1      49.602   3.455  17.640  0.00  0.00    +0.000 A 
ATOM      7  N   UNL     1      48.904   3.813  16.534  0.00  0.00    +0.000 NA
ATOM      8  H   UNL     1      46.334   5.561  16.047  0.00  0.00    +0.000 HD
ENDROOT
BRANCH   6   9
ATOM      9  C   UNL     1      50.664   2.441  17.407  0.00  0.00    +0.000 C 
ATOM     10  O   UNL     1      50.625   1.575  16.552  0.00  0.00    +0.000 OA
BRANCH   9  11
ATOM     11  OXT UNL     1      51.695   2.619  18.271  0.00  0.00    +0.000 OA
ATOM     12  HXT UNL     1      52.517   2.253  17.866  0.00  0.00    +0.000 HD
ENDBRANCH   9  11
ENDBRANCH   6   9
BRANCH   1  13
ATOM     13  C   UNL     1      46.962   4.182  14.614  0.00  0.00    +0.000 C 
BRANCH  13  15
ATOM     14  C   UNL     1      47.476   6.193  13.098  0.00  0.00    +0.000 C 
ATOM     15  C   UNL     1      46.695   4.940  13.348  0.00  0.00    +0.000 C 
BRANCH  15  16
ATOM     16  C   UNL     1      45.408   4.726  12.671  0.00  0.00    +0.000 A 
ATOM     17  C   UNL     1      45.185   3.574  11.906  0.00  0.00    +0.000 A 
ATOM     18  C   UNL     1      43.929   3.328  11.347  0.00  0.00    +0.000 A 
ATOM     19  C   UNL     1      42.887   4.231  11.549  0.00  0.00    +0.000 A 
ATOM     20  C   UNL     1      43.107   5.392  12.285  0.00  0.00    +0.000 A 
ATOM     21  C   UNL     1      44.364   5.643  12.834  0.00  0.00    +0.000 A 
ENDBRANCH  15  16
ENDBRANCH  13  15
ENDBRANCH   1  13
TORSDOF 5
ENDMDL
MODEL 9
REMARK VINA RESULT:    -5.977      3.258      7.360
REMARK INTER + INTRA:          -8.015
REMARK INTER:                  -7.750
REMARK INTRA:                  -0.265
REMARK UNBOUND:                -0.466
REMARK  Name = 
REMARK  6 active torsions:
REMARK  status: ('A' for Active; 'I' for Inactive)
REMARK    1  A    between atoms: C_1  and  C_2
REMARK    2  A    between atoms: C_2  and  C_3
REMARK    3  A    between atoms: C_2  and  C_14
REMARK    4  A    between atoms: C_3  and  N_4
REMARK    5  A    between atoms: CA_9  and  C_10
REMARK    6  A    between atoms: C_10  and  OXT_12
REMARK                            x       y       z     vdW  Elec       q    Type
REMARK                         _______ _______ _______ _____ _____    ______ ____
ROOT
ATOM      1  N   UNL     1      45.487   4.402  14.035  0.00  0.00    +0.000 N 
ATOM      2  C   UNL     1      44.689   4.667  12.937  0.00  0.00    +0.000 A 
ATOM      3  N   UNL     1      43.533   5.291  13.188  0.00  0.00    +0.000 NA
ATOM      4  C   UNL     1      42.717   5.546  12.147  0.00  0.00    +0.000 A 
ATOM      5  C   UNL     1      43.019   5.206  10.857  0.00  0.00    +0.000 A 
ATOM      6  CA  UNL     1      44.229   4.578  10.708  0.00  0.00    +0.000 A 
ATOM      7  N   UNL     1      45.087   4.292  11.718  0.00  0.00    +0.000 NA
ATOM      8  H   UNL     1      45.182   5.028  14.775  0.00  0.00    +0.000 HD
ENDROOT
BRANCH   6   9
ATOM      9  C   UNL     1      44.694   4.166   9.357  0.00  0.00    +0.000 C 
ATOM     10  O   UNL     1      44.493   3.075   8.855  0.00  0.00    +0.000 OA
BRANCH   9  11
ATOM     11  OXT UNL     1      45.366   5.177   8.751  0.00  0.00    +0.000 OA
ATOM     12  HXT UNL     1      44.992   6.037   9.059  0.00  0.00    +0.000 HD
ENDBRANCH   9  11
ENDBRANCH   6   9
BRANCH   1  13
ATOM     13  C   UNL     1      46.911   4.419  13.779  0.00  0.00    +0.000 C 
BRANCH  13  15
ATOM     14  C   UNL     1      48.145   6.603  14.339  0.00  0.00    +0.000 C 
ATOM     15  C   UNL     1      47.534   5.318  14.805  0.00  0.00    +0.000 C 
BRANCH  15  16
ATOM     16  C   UNL     1      47.951   4.725  16.084  0.00  0.00    +0.000 A 
ATOM     17  C   UNL     1      48.709   5.462  17.002  0.00  0.00    +0.000 A 
ATOM     18  C   UNL     1      49.018   4.929  18.256  0.00  0.00    +0.000 A 
ATOM     19  C   UNL     1      48.570   3.656  18.601  0.00  0.00    +0.000 A 
ATOM     20  C   UNL     1      47.839   2.904  17.685  0.00  0.00    +0.000 A 
ATOM     21  C   UNL     1      47.540   3.432  16.429  0.00  0.00    +0.000 A 
ENDBRANCH  15  16
ENDBRANCH  13  15
ENDBRANCH   1  13
TORSDOF 5
ENDMDL
