MODEL 1
REMARK VINA RESULT:    -7.885      0.000      0.000
REMARK INTER + INTRA:         -12.565
REMARK INTER:                 -11.343
REMARK INTRA:                  -1.223
REMARK UNBOUND:                -1.223
REMARK  Name = 
REMARK  8 active torsions:
REMARK  status: ('A' for Active; 'I' for Inactive)
REMARK    1  A    between atoms: N_1  and  C_2
REMARK    2  A    between atoms: C_2  and  C_3
REMARK    3  A    between atoms: C_3  and  C_26
REMARK    4  A    between atoms: N_4  and  C_5
REMARK    5  A    between atoms: C_5  and  C_6
REMARK    6  A    between atoms: C_9  and  C_10
REMARK    7  A    between atoms: C_10  and  N_11
REMARK    8  A    between atoms: C_12  and  C_14
REMARK                            x       y       z     vdW  Elec       q    Type
REMARK                         _______ _______ _______ _____ _____    ______ ____
ROOT
ATOM      1  C   UNL     1      46.631   4.685  13.625  0.00  0.00    +0.000 A 
ATOM      2  C   UNL     1      47.195   5.884  13.192  0.00  0.00    +0.000 A 
ATOM      3  C   UNL     1      48.102   6.555  14.011  0.00  0.00    +0.000 A 
ATOM      4  C   UNL     1      48.434   6.001  15.247  0.00  0.00    +0.000 A 
ATOM      5  N   UNL     1      47.888   4.843  15.692  0.00  0.00    +0.000 NA
ATOM      6  C   UNL     1      47.013   4.217  14.877  0.00  0.00    +0.000 A 
ENDROOT
BRANCH   1   7
ATOM      7  C   UNL     1      45.617   3.933  12.809  0.00  0.00    +0.000 C 
BRANCH   7   9
ATOM      8  C   UNL     1      43.925   4.991  11.486  0.00  0.00    +0.000 C 
ATOM      9  N   UNL     1      44.374   4.675  12.655  0.00  0.00    +0.000 NA
BRANCH   8  10
ATOM     10  C   UNL     1      44.527   4.679  10.201  0.00  0.00    +0.000 A 
ATOM     11  C   UNL     1      44.443   3.582   9.360  0.00  0.00    +0.000 A 
ATOM     12  C   UNL     1      45.270   3.877   8.263  0.00  0.00    +0.000 A 
ATOM     13  N   UNL     1      45.863   5.062   8.386  0.00  0.00    +0.000 NA
ATOM     14  N   UNL     1      45.397   5.530   9.558  0.00  0.00    +0.000 N 
ATOM     15  H   UNL     1      45.699   6.451   9.866  0.00  0.00    +0.000 HD
ENDBRANCH   8  10
BRANCH   8  16
ATOM     16  C   UNL     1      42.585   5.752  11.459  0.00  0.00    +0.000 C 
BRANCH  16  17
ATOM     17  N   UNL     1      42.827   7.157  11.098  0.00  0.00    +0.000 NA
ATOM     18  H   UNL     1      42.811   7.711  11.956  0.00  0.00    +0.000 HD
ATOM     19  H   UNL     1      42.009   7.481  10.573  0.00  0.00    +0.000 HD
ENDBRANCH  16  17
ENDBRANCH   8  16
ENDBRANCH   7   9
ENDBRANCH   1   7
BRANCH   4  20
ATOM     20  C   UNL     1      49.357   6.725  16.196  0.00  0.00    +0.000 C 
BRANCH  20  21
ATOM     21  N   UNL     1      50.400   5.847  16.675  0.00  0.00    +0.000 N 
ATOM     22  C   UNL     1      50.461   5.470  17.990  0.00  0.00    +0.000 C 
ATOM     23  O   UNL     1      49.599   5.803  18.800  0.00  0.00    +0.000 OA
ATOM     24  H   UNL     1      51.246   5.821  16.112  0.00  0.00    +0.000 HD
BRANCH  22  25
ATOM     25  C   UNL     1      51.568   4.584  18.369  0.00  0.00    +0.000 A 
ATOM     26  C   UNL     1      52.609   5.085  19.141  0.00  0.00    +0.000 A 
ATOM     27  S   UNL     1      53.782   3.918  19.550  0.00  0.00    +0.000 S 
ATOM     28  C   UNL     1      52.971   2.713  18.666  0.00  0.00    +0.000 A 
ATOM     29  N   UNL     1      53.472   1.452  18.584  0.00  0.00    +0.000 NA
ATOM     30  C   UNL     1      52.773   0.648  17.853  0.00  0.00    +0.000 A 
ATOM     31  N   UNL     1      51.616   0.987  17.206  0.00  0.00    +0.000 N 
ATOM     32  C   UNL     1      51.053   2.237  17.286  0.00  0.00    +0.000 A 
ATOM     33  O   UNL     1      49.988   2.495  16.738  0.00  0.00    +0.000 OA
ATOM     34  C   UNL     1      51.809   3.188  18.080  0.00  0.00    +0.000 A 
ATOM     35  H   UNL     1      51.112   0.309  16.654  0.00  0.00    +0.000 HD
ENDBRANCH  22  25
ENDBRANCH  20  21
ENDBRANCH   4  20
TORSDOF 8
ENDMDL
MODEL 2
REMARK VINA RESULT:    -7.160      1.599      2.554
REMARK INTER + INTRA:         -11.522
REMARK INTER:                 -10.611
REMARK INTRA:                  -0.912
REMARK UNBOUND:                -1.223
REMARK  Name = 
REMARK  8 active torsions:
REMARK  status: ('A' for Active; 'I' for Inactive)
REMARK    1  A    between atoms: N_1  and  C_2
REMARK    2  A    between atoms: C_2  and  C_3
REMARK    3  A    between atoms: C_3  and  C_26
REMARK    4  A    between atoms: N_4  and  C_5
REMARK    5  A    between atoms: C_5  and  C_6
REMARK    6  A    between atoms: C_9  and  C_10
REMARK    7  A    between atoms: C_10  and  N_11
REMARK    8  A    between atoms: C_12  and  C_14
REMARK                            x       y       z     vdW  Elec       q    Type
REMARK                         _______ _______ _______ _____ _____    ______ ____
ROOT
ATOM      1  C   UNL     1      47.064   5.342  13.700  0.00  0.00    +0.000 A 
ATOM      2  C   UNL     1      47.764   6.047  14.677  0.00  0.00    +0.000 A 
ATOM      3  C   UNL     1      48.065   5.429  15.890  0.00  0.00    +0.000 A 
ATOM      4  C   UNL     1      47.668   4.109  16.092  0.00  0.00    +0.000 A 
ATOM      5  N   UNL     1      46.975   3.410  15.161  0.00  0.00    +0.000 NA
ATOM      6  C   UNL     1      46.698   4.034  13.997  0.00  0.00    +0.000 A 
ENDROOT
BRANCH   1   7
ATOM      7  C   UNL     1      46.672   5.963  12.388  0.00  0.00    +0.000 C 
BRANCH   7   9
ATOM      8  C   UNL     1      44.516   5.812  11.358  0.00  0.00    +0.000 C 
ATOM      9  N   UNL     1      45.248   6.260  12.322  0.00  0.00    +0.000 NA
BRANCH   8  10
ATOM     10  C   UNL     1      44.943   4.978  10.246  0.00  0.00    +0.000 A 
ATOM     11  C   UNL     1      44.844   3.621   9.991  0.00  0.00    +0.000 A 
ATOM     12  C   UNL     1      45.458   3.421   8.743  0.00  0.00    +0.000 A 
ATOM     13  N   UNL     1      45.938   4.553   8.233  0.00  0.00    +0.000 NA
ATOM     14  N   UNL     1      45.612   5.479   9.153  0.00  0.00    +0.000 N 
ATOM     15  H   UNL     1      45.861   6.448   8.973  0.00  0.00    +0.000 HD
ENDBRANCH   8  10
BRANCH   8  16
ATOM     16  C   UNL     1      43.019   6.175  11.419  0.00  0.00    +0.000 C 
BRANCH  16  17
ATOM     17  N   UNL     1      42.837   7.574  11.006  0.00  0.00    +0.000 NA
ATOM     18  H   UNL     1      42.817   7.603   9.984  0.00  0.00    +0.000 HD
ATOM     19  H   UNL     1      43.693   8.078  11.256  0.00  0.00    +0.000 HD
ENDBRANCH  16  17
ENDBRANCH   8  16
ENDBRANCH   7   9
ENDBRANCH   1   7
BRANCH   4  20
ATOM     20  C   UNL     1      47.910   3.421  17.414  0.00  0.00    +0.000 C 
BRANCH  20  21
ATOM     21  N   UNL     1      49.325   3.290  17.677  0.00  0.00    +0.000 N 
ATOM     22  C   UNL     1      50.076   2.335  17.047  0.00  0.00    +0.000 C 
ATOM     23  O   UNL     1      49.600   1.598  16.186  0.00  0.00    +0.000 OA
ATOM     24  H   UNL     1      49.644   3.665  18.566  0.00  0.00    +0.000 HD
BRANCH  22  25
ATOM     25  C   UNL     1      51.501   2.283  17.397  0.00  0.00    +0.000 A 
ATOM     26  C   UNL     1      52.114   1.049  17.580  0.00  0.00    +0.000 A 
ATOM     27  S   UNL     1      53.782   1.156  17.917  0.00  0.00    +0.000 S 
ATOM     28  C   UNL     1      53.735   2.856  17.887  0.00  0.00    +0.000 A 
ATOM     29  N   UNL     1      54.854   3.589  18.129  0.00  0.00    +0.000 NA
ATOM     30  C   UNL     1      54.668   4.867  18.107  0.00  0.00    +0.000 A 
ATOM     31  N   UNL     1      53.469   5.479  17.856  0.00  0.00    +0.000 N 
ATOM     32  C   UNL     1      52.320   4.782  17.572  0.00  0.00    +0.000 A 
ATOM     33  O   UNL     1      51.274   5.358  17.300  0.00  0.00    +0.000 OA
ATOM     34  C   UNL     1      52.468   3.338  17.603  0.00  0.00    +0.000 A 
ATOM     35  H   UNL     1      53.391   6.485  17.847  0.00  0.00    +0.000 HD
ENDBRANCH  22  25
ENDBRANCH  20  21
ENDBRANCH   4  20
TORSDOF 8
ENDMDL
MODEL 3
REMARK VINA RESULT:    -7.132      3.718      8.972
REMARK INTER + INTRA:         -11.482
REMARK INTER:                 -10.383
REMARK INTRA:                  -1.099
REMARK UNBOUND:                -1.223
REMARK  Name = 
REMARK  8 active torsions:
REMARK  status: ('A' for Active; 'I' for Inactive)
REMARK    1  A    between atoms: N_1  and  C_2
REMARK    2  A    between atoms: C_2  and  C_3
REMARK    3  A    between atoms: C_3  and  C_26
REMARK    4  A    between atoms: N_4  and  C_5
REMARK    5  A    between atoms: C_5  and  C_6
REMARK    6  A    between atoms: C_9  and  C_10
REMARK    7  A    between atoms: C_10  and  N_11
REMARK    8  A    between atoms: C_12  and  C_14
REMARK                            x       y       z     vdW  Elec       q    Type
REMARK                         _______ _______ _______ _____ _____    ______ ____
ROOT
ATOM      1  C   UNL     1      49.956   6.788  15.797  0.00  0.00    +0.000 A 
ATOM      2  C   UNL     1      50.490   7.650  14.842  0.00  0.00    +0.000 A 
ATOM      3  C   UNL     1      49.756   7.948  13.694  0.00  0.00    +0.000 A 
ATOM      4  C   UNL     1      48.491   7.383  13.536  0.00  0.00    +0.000 A 
ATOM      5  N   UNL     1      47.958   6.532  14.447  0.00  0.00    +0.000 NA
ATOM      6  C   UNL     1      48.693   6.263  15.547  0.00  0.00    +0.000 A 
ENDROOT
BRANCH   1   7
ATOM      7  C   UNL     1      50.712   6.393  17.036  0.00  0.00    +0.000 C 
BRANCH   7   9
ATOM      8  C   UNL     1      49.501   4.936  18.499  0.00  0.00    +0.000 C 
ATOM      9  N   UNL     1      49.828   6.139  18.164  0.00  0.00    +0.000 NA
BRANCH   8  10
ATOM     10  C   UNL     1      49.933   3.701  17.866  0.00  0.00    +0.000 A 
ATOM     11  C   UNL     1      51.134   3.013  17.859  0.00  0.00    +0.000 A 
ATOM     12  C   UNL     1      50.924   1.884  17.050  0.00  0.00    +0.000 A 
ATOM     13  N   UNL     1      49.690   1.847  16.551  0.00  0.00    +0.000 NA
ATOM     14  N   UNL     1      49.109   2.948  17.060  0.00  0.00    +0.000 N 
ATOM     15  H   UNL     1      48.135   3.130  16.832  0.00  0.00    +0.000 HD
ENDBRANCH   8  10
BRANCH   8  16
ATOM     16  C   UNL     1      48.580   4.801  19.728  0.00  0.00    +0.000 C 
BRANCH  16  17
ATOM     17  N   UNL     1      48.453   3.382  20.091  0.00  0.00    +0.000 NA
ATOM     18  H   UNL     1      49.183   2.863  19.600  0.00  0.00    +0.000 HD
ATOM     19  H   UNL     1      47.579   3.040  19.680  0.00  0.00    +0.000 HD
ENDBRANCH  16  17
ENDBRANCH   8  16
ENDBRANCH   7   9
ENDBRANCH   1   7
BRANCH   4  20
ATOM     20  C   UNL     1      47.689   7.621  12.280  0.00  0.00    +0.000 C 
BRANCH  20  21
ATOM     21  N   UNL     1      46.973   6.428  11.890  0.00  0.00    +0.000 N 
ATOM     22  C   UNL     1      45.623   6.316  12.088  0.00  0.00    +0.000 C 
ATOM     23  O   UNL     1      44.954   7.244  12.538  0.00  0.00    +0.000 OA
ATOM     24  H   UNL     1      47.534   5.584  11.811  0.00  0.00    +0.000 HD
BRANCH  22  25
ATOM     25  C   UNL     1      44.998   5.056  11.664  0.00  0.00    +0.000 A 
ATOM     26  C   UNL     1      44.260   4.319  12.582  0.00  0.00    +0.000 A 
ATOM     27  S   UNL     1      43.548   2.919  11.921  0.00  0.00    +0.000 S 
ATOM     28  C   UNL     1      44.245   3.216  10.398  0.00  0.00    +0.000 A 
ATOM     29  N   UNL     1      44.047   2.360   9.361  0.00  0.00    +0.000 NA
ATOM     30  C   UNL     1      44.662   2.690   8.274  0.00  0.00    +0.000 A 
ATOM     31  N   UNL     1      45.448   3.801   8.126  0.00  0.00    +0.000 N 
ATOM     32  C   UNL     1      45.650   4.712   9.134  0.00  0.00    +0.000 A 
ATOM     33  O   UNL     1      46.317   5.724   8.956  0.00  0.00    +0.000 OA
ATOM     34  C   UNL     1      44.997   4.380  10.387  0.00  0.00    +0.000 A 
ATOM     35  H   UNL     1      45.897   4.006   7.246  0.00  0.00    +0.000 HD
ENDBRANCH  22  25
ENDBRANCH  20  21
ENDBRANCH   4  20
TORSDOF 8
ENDMDL
MODEL 4
REMARK VINA RESULT:    -6.731      2.819      3.558
REMARK INTER + INTRA:         -10.905
REMARK INTER:                  -9.886
REMARK INTRA:                  -1.020
REMARK UNBOUND:                -1.223
REMARK  Name = 
REMARK  8 active torsions:
REMARK  status: ('A' for Active; 'I' for Inactive)
REMARK    1  A    between atoms: N_1  and  C_2
REMARK    2  A    between atoms: C_2  and  C_3
REMARK    3  A    between atoms: C_3  and  C_26
REMARK    4  A    between atoms: N_4  and  C_5
REMARK    5  A    between atoms: C_5  and  C_6
REMARK    6  A    between atoms: C_9  and  C_10
REMARK    7  A    between atoms: C_10  and  N_11
REMARK    8  A    between atoms: C_12  and  C_14
REMARK                            x       y       z     vdW  Elec       q    Type
REMARK                         _______ _______ _______ _____ _____    ______ ____
ROOT
ATOM      1  C   UNL     1      45.284   6.697  11.460  0.00  0.00    +0.000 A 
ATOM      2  C   UNL     1      46.577   6.194  11.592  0.00  0.00    +0.000 A 
ATOM      3  C   UNL     1      47.490   6.847  12.419  0.00  0.00    +0.000 A 
ATOM      4  C   UNL     1      47.081   7.987  13.109  0.00  0.00    +0.000 A 
ATOM      5  N   UNL     1      45.833   8.500  12.985  0.00  0.00    +0.000 NA
ATOM      6  C   UNL     1      44.972   7.846  12.177  0.00  0.00    +0.000 A 
ENDROOT
BRANCH   1   7
ATOM      7  C   UNL     1      44.265   6.065  10.553  0.00  0.00    +0.000 C 
BRANCH   7   9
ATOM      8  C   UNL     1      43.810   3.719  10.702  0.00  0.00    +0.000 C 
ATOM      9  N   UNL     1      43.624   4.910  11.165  0.00  0.00    +0.000 NA
BRANCH   8  10
ATOM     10  C   UNL     1      44.642   3.338   9.572  0.00  0.00    +0.000 A 
ATOM     11  C   UNL     1      44.984   3.978   8.393  0.00  0.00    +0.000 A 
ATOM     12  C   UNL     1      45.817   3.084   7.700  0.00  0.00    +0.000 A 
ATOM     13  N   UNL     1      45.989   1.942   8.363  0.00  0.00    +0.000 NA
ATOM     14  N   UNL     1      45.276   2.120   9.490  0.00  0.00    +0.000 N 
ATOM     15  H   UNL     1      45.270   1.373  10.181  0.00  0.00    +0.000 HD
ENDBRANCH   8  10
BRANCH   8  16
ATOM     16  C   UNL     1      43.097   2.579  11.455  0.00  0.00    +0.000 C 
BRANCH  16  17
ATOM     17  N   UNL     1      43.888   2.202  12.635  0.00  0.00    +0.000 NA
ATOM     18  H   UNL     1      43.591   2.789  13.417  0.00  0.00    +0.000 HD
ATOM     19  H   UNL     1      44.855   2.489  12.457  0.00  0.00    +0.000 HD
ENDBRANCH  16  17
ENDBRANCH   8  16
ENDBRANCH   7   9
ENDBRANCH   1   7
BRANCH   4  20
ATOM     20  C   UNL     1      48.053   8.766  13.961  0.00  0.00    +0.000 C 
BRANCH  20  21
ATOM     21  N   UNL     1      48.366   8.049  15.175  0.00  0.00    +0.000 N 
ATOM     22  C   UNL     1      49.606   7.507  15.378  0.00  0.00    +0.000 C 
ATOM     23  O   UNL     1      50.522   7.663  14.574  0.00  0.00    +0.000 OA
ATOM     24  H   UNL     1      47.569   7.667  15.679  0.00  0.00    +0.000 HD
BRANCH  22  25
ATOM     25  C   UNL     1      49.811   6.790  16.643  0.00  0.00    +0.000 A 
ATOM     26  C   UNL     1      50.713   7.293  17.573  0.00  0.00    +0.000 A 
ATOM     27  S   UNL     1      50.790   6.384  19.013  0.00  0.00    +0.000 S 
ATOM     28  C   UNL     1      49.663   5.253  18.425  0.00  0.00    +0.000 A 
ATOM     29  N   UNL     1      49.297   4.180  19.174  0.00  0.00    +0.000 NA
ATOM     30  C   UNL     1      48.460   3.386  18.592  0.00  0.00    +0.000 A 
ATOM     31  N   UNL     1      47.950   3.572  17.335  0.00  0.00    +0.000 N 
ATOM     32  C   UNL     1      48.264   4.658  16.555  0.00  0.00    +0.000 A 
ATOM     33  O   UNL     1      47.751   4.824  15.455  0.00  0.00    +0.000 OA
ATOM     34  C   UNL     1      49.217   5.575  17.153  0.00  0.00    +0.000 A 
ATOM     35  H   UNL     1      47.294   2.916  16.939  0.00  0.00    +0.000 HD
ENDBRANCH  22  25
ENDBRANCH  20  21
ENDBRANCH   4  20
TORSDOF 8
ENDMDL
MODEL 5
REMARK VINA RESULT:    -6.655      4.303      5.536
REMARK INTER + INTRA:         -10.796
REMARK INTER:                  -9.393
REMARK INTRA:                  -1.403
REMARK UNBOUND:                -1.223
REMARK  Name = 
REMARK  8 active torsions:
REMARK  status: ('A' for Active; 'I' for Inactive)
REMARK    1  A    between atoms: N_1  and  C_2
REMARK    2  A    between atoms: C_2  and  C_3
REMARK    3  A    between atoms: C_3  and  C_26
REMARK    4  A    between atoms: N_4  and  C_5
REMARK    5  A    between atoms: C_5  and  C_6
REMARK    6  A    between atoms: C_9  and  C_10
REMARK    7  A    between atoms: C_10  and  N_11
REMARK    8  A    between atoms: C_12  and  C_14
REMARK                            x       y       z     vdW  Elec       q    Type
REMARK                         _______ _______ _______ _____ _____    ______ ____
ROOT
ATOM      1  C   UNL     1      46.768   4.922  13.494  0.00  0.00    +0.000 A 
ATOM      2  C   UNL     1      47.220   5.953  12.673  0.00  0.00    +0.000 A 
ATOM      3  C   UNL     1      48.200   6.828  13.141  0.00  0.00    +0.000 A 
ATOM      4  C   UNL     1      48.717   6.640  14.422  0.00  0.00    +0.000 A 
ATOM      5  N   UNL     1      48.282   5.652  15.241  0.00  0.00    +0.000 NA
ATOM      6  C   UNL     1      47.332   4.822  14.761  0.00  0.00    +0.000 A 
ENDROOT
BRANCH   1   7
ATOM      7  C   UNL     1      45.685   3.971  13.066  0.00  0.00    +0.000 C 
BRANCH   7   9
ATOM      8  C   UNL     1      43.859   4.832  11.779  0.00  0.00    +0.000 C 
ATOM      9  N   UNL     1      44.393   4.629  12.937  0.00  0.00    +0.000 NA
BRANCH   8  10
ATOM     10  C   UNL     1      44.405   4.458  10.485  0.00  0.00    +0.000 A 
ATOM     11  C   UNL     1      44.367   3.288   9.746  0.00  0.00    +0.000 A 
ATOM     12  C   UNL     1      45.092   3.553   8.572  0.00  0.00    +0.000 A 
ATOM     13  N   UNL     1      45.583   4.790   8.554  0.00  0.00    +0.000 NA
ATOM     14  N   UNL     1      45.152   5.319   9.713  0.00  0.00    +0.000 N 
ATOM     15  H   UNL     1      45.389   6.286   9.921  0.00  0.00    +0.000 HD
ENDBRANCH   8  10
BRANCH   8  16
ATOM     16  C   UNL     1      42.477   5.513  11.779  0.00  0.00    +0.000 C 
BRANCH  16  17
ATOM     17  N   UNL     1      42.561   6.792  11.059  0.00  0.00    +0.000 NA
ATOM     18  H   UNL     1      43.379   7.297  11.406  0.00  0.00    +0.000 HD
ATOM     19  H   UNL     1      41.766   7.364  11.360  0.00  0.00    +0.000 HD
ENDBRANCH  16  17
ENDBRANCH   8  16
ENDBRANCH   7   9
ENDBRANCH   1   7
BRANCH   4  20
ATOM     20  C   UNL     1      49.728   7.602  14.997  0.00  0.00    +0.000 C 
BRANCH  20  21
ATOM     21  N   UNL     1      50.893   7.696  14.148  0.00  0.00    +0.000 N 
ATOM     22  C   UNL     1      51.353   8.907  13.708  0.00  0.00    +0.000 C 
ATOM     23  O   UNL     1      50.842   9.965  14.068  0.00  0.00    +0.000 OA
ATOM     24  H   UNL     1      51.122   6.857  13.621  0.00  0.00    +0.000 HD
BRANCH  22  25
ATOM     25  C   UNL     1      52.539   8.885  12.841  0.00  0.00    +0.000 A 
ATOM     26  C   UNL     1      53.713   9.487  13.276  0.00  0.00    +0.000 A 
ATOM     27  S   UNL     1      55.013   9.320  12.187  0.00  0.00    +0.000 S 
ATOM     28  C   UNL     1      54.040   8.486  11.068  0.00  0.00    +0.000 A 
ATOM     29  N   UNL     1      54.546   8.070   9.877  0.00  0.00    +0.000 NA
ATOM     30  C   UNL     1      53.689   7.480   9.112  0.00  0.00    +0.000 A 
ATOM     31  N   UNL     1      52.376   7.261   9.431  0.00  0.00    +0.000 N 
ATOM     32  C   UNL     1      51.828   7.633  10.634  0.00  0.00    +0.000 A 
ATOM     33  O   UNL     1      50.663   7.377  10.911  0.00  0.00    +0.000 OA
ATOM     34  C   UNL     1      52.744   8.319  11.527  0.00  0.00    +0.000 A 
ATOM     35  H   UNL     1      51.758   6.788   8.789  0.00  0.00    +0.000 HD
ENDBRANCH  22  25
ENDBRANCH  20  21
ENDBRANCH   4  20
TORSDOF 8
ENDMDL
MODEL 6
REMARK VINA RESULT:    -6.429      2.661      3.069
REMARK INTER + INTRA:         -10.470
REMARK INTER:                  -9.463
REMARK INTRA:                  -1.007
REMARK UNBOUND:                -1.223
REMARK  Name = 
REMARK  8 active torsions:
REMARK  status: ('A' for Active; 'I' for Inactive)
REMARK    1  A    between atoms: N_1  and  C_2
REMARK    2  A    between atoms: C_2  and  C_3
REMARK    3  A    between atoms: C_3  and  C_26
REMARK    4  A    between atoms: N_4  and  C_5
REMARK    5  A    between atoms: C_5  and  C_6
REMARK    6  A    between atoms: C_9  and  C_10
REMARK    7  A    between atoms: C_10  and  N_11
REMARK    8  A    between atoms: C_12  and  C_14
REMARK                            x       y       z     vdW  Elec       q    Type
REMARK                         _______ _______ _______ _____ _____    ______ ____
ROOT
ATOM      1  C   UNL     1      47.178   6.673  11.903  0.00  0.00    +0.000 A 
ATOM      2  C   UNL     1      47.322   6.000  13.115  0.00  0.00    +0.000 A 
ATOM      3  C   UNL     1      48.340   6.371  13.993  0.00  0.00    +0.000 A 
ATOM      4  C   UNL     1      49.186   7.421  13.640  0.00  0.00    +0.000 A 
ATOM      5  N   UNL     1      49.072   8.079  12.461  0.00  0.00    +0.000 NA
ATOM      6  C   UNL     1      48.077   7.698  11.632  0.00  0.00    +0.000 A 
ENDROOT
BRANCH   1   7
ATOM      7  C   UNL     1      46.128   6.295  10.895  0.00  0.00    +0.000 C 
BRANCH   7   9
ATOM      8  C   UNL     1      43.966   5.308  11.180  0.00  0.00    +0.000 C 
ATOM      9  N   UNL     1      44.795   6.252  11.477  0.00  0.00    +0.000 NA
BRANCH   8  10
ATOM     10  C   UNL     1      44.197   4.189  10.281  0.00  0.00    +0.000 A 
ATOM     11  C   UNL     1      44.510   2.857  10.492  0.00  0.00    +0.000 A 
ATOM     12  C   UNL     1      44.614   2.281   9.214  0.00  0.00    +0.000 A 
ATOM     13  N   UNL     1      44.405   3.170   8.245  0.00  0.00    +0.000 NA
ATOM     14  N   UNL     1      44.150   4.311   8.910  0.00  0.00    +0.000 N 
ATOM     15  H   UNL     1      43.935   5.147   8.373  0.00  0.00    +0.000 HD
ENDBRANCH   8  10
BRANCH   8  16
ATOM     16  C   UNL     1      42.596   5.361  11.885  0.00  0.00    +0.000 C 
BRANCH  16  17
ATOM     17  N   UNL     1      42.797   5.478  13.337  0.00  0.00    +0.000 NA
ATOM     18  H   UNL     1      42.031   4.987  13.802  0.00  0.00    +0.000 HD
ATOM     19  H   UNL     1      42.654   6.461  13.585  0.00  0.00    +0.000 HD
ENDBRANCH  16  17
ENDBRANCH   8  16
ENDBRANCH   7   9
ENDBRANCH   1   7
BRANCH   4  20
ATOM     20  C   UNL     1      50.344   7.812  14.525  0.00  0.00    +0.000 C 
BRANCH  20  21
ATOM     21  N   UNL     1      50.100   7.428  15.896  0.00  0.00    +0.000 N 
ATOM     22  C   UNL     1      51.075   6.834  16.651  0.00  0.00    +0.000 C 
ATOM     23  O   UNL     1      52.215   6.666  16.221  0.00  0.00    +0.000 OA
ATOM     24  H   UNL     1      49.124   7.285  16.146  0.00  0.00    +0.000 HD
BRANCH  22  25
ATOM     25  C   UNL     1      50.715   6.475  18.028  0.00  0.00    +0.000 A 
ATOM     26  C   UNL     1      51.275   7.181  19.085  0.00  0.00    +0.000 A 
ATOM     27  S   UNL     1      50.708   6.688  20.615  0.00  0.00    +0.000 S 
ATOM     28  C   UNL     1      49.736   5.474  19.925  0.00  0.00    +0.000 A 
ATOM     29  N   UNL     1      48.989   4.651  20.706  0.00  0.00    +0.000 NA
ATOM     30  C   UNL     1      48.325   3.755  20.053  0.00  0.00    +0.000 A 
ATOM     31  N   UNL     1      48.334   3.614  18.691  0.00  0.00    +0.000 N 
ATOM     32  C   UNL     1      49.045   4.443  17.859  0.00  0.00    +0.000 A 
ATOM     33  O   UNL     1      48.991   4.324  16.641  0.00  0.00    +0.000 OA
ATOM     34  C   UNL     1      49.826   5.458  18.542  0.00  0.00    +0.000 A 
ATOM     35  H   UNL     1      47.787   2.895  18.241  0.00  0.00    +0.000 HD
ENDBRANCH  22  25
ENDBRANCH  20  21
ENDBRANCH   4  20
TORSDOF 8
ENDMDL
MODEL 7
REMARK VINA RESULT:    -6.293      1.724      1.959
REMARK INTER + INTRA:         -10.275
REMARK INTER:                  -9.177
REMARK INTRA:                  -1.098
REMARK UNBOUND:                -1.223
REMARK  Name = 
REMARK  8 active torsions:
REMARK  status: ('A' for Active; 'I' for Inactive)
REMARK    1  A    between atoms: N_1  and  C_2
REMARK    2  A    between atoms: C_2  and  C_3
REMARK    3  A    between atoms: C_3  and  C_26
REMARK    4  A    between atoms: N_4  and  C_5
REMARK    5  A    between atoms: C_5  and  C_6
REMARK    6  A    between atoms: C_9  and  C_10
REMARK    7  A    between atoms: C_10  and  N_11
REMARK    8  A    between atoms: C_12  and  C_14
REMARK                            x       y       z     vdW  Elec       q    Type
REMARK                         _______ _______ _______ _____ _____    ______ ____
ROOT
ATOM      1  C   UNL     1      47.039   5.195  13.717  0.00  0.00    +0.000 A 
ATOM      2  C   UNL     1      47.309   4.901  15.052  0.00  0.00    +0.000 A 
ATOM      3  C   UNL     1      48.118   5.759  15.796  0.00  0.00    +0.000 A 
ATOM      4  C   UNL     1      48.630   6.903  15.187  0.00  0.00    +0.000 A 
ATOM      5  N   UNL     1      48.390   7.200  13.887  0.00  0.00    +0.000 NA
ATOM      6  C   UNL     1      47.604   6.351  13.192  0.00  0.00    +0.000 A 
ENDROOT
BRANCH   1   7
ATOM      7  C   UNL     1      46.208   4.292  12.848  0.00  0.00    +0.000 C 
BRANCH   7   9
ATOM      8  C   UNL     1      44.200   4.782  11.640  0.00  0.00    +0.000 C 
ATOM      9  N   UNL     1      44.821   4.725  12.771  0.00  0.00    +0.000 NA
BRANCH   8  10
ATOM     10  C   UNL     1      44.731   4.440  10.331  0.00  0.00    +0.000 A 
ATOM     11  C   UNL     1      44.719   3.276   9.582  0.00  0.00    +0.000 A 
ATOM     12  C   UNL     1      45.409   3.577   8.395  0.00  0.00    +0.000 A 
ATOM     13  N   UNL     1      45.853   4.832   8.378  0.00  0.00    +0.000 NA
ATOM     14  N   UNL     1      45.428   5.335   9.551  0.00  0.00    +0.000 N 
ATOM     15  H   UNL     1      45.634   6.308   9.763  0.00  0.00    +0.000 HD
ENDBRANCH   8  10
BRANCH   8  16
ATOM     16  C   UNL     1      42.726   5.231  11.697  0.00  0.00    +0.000 C 
BRANCH  16  17
ATOM     17  N   UNL     1      42.596   6.563  11.089  0.00  0.00    +0.000 NA
ATOM     18  H   UNL     1      41.610   6.829  11.118  0.00  0.00    +0.000 HD
ATOM     19  H   UNL     1      42.801   6.463  10.090  0.00  0.00    +0.000 HD
ENDBRANCH  16  17
ENDBRANCH   8  16
ENDBRANCH   7   9
ENDBRANCH   1   7
BRANCH   4  20
ATOM     20  C   UNL     1      49.567   7.823  15.931  0.00  0.00    +0.000 C 
BRANCH  20  21
ATOM     21  N   UNL     1      50.616   7.075  16.585  0.00  0.00    +0.000 N 
ATOM     22  C   UNL     1      51.857   6.955  16.022  0.00  0.00    +0.000 C 
ATOM     23  O   UNL     1      52.154   7.532  14.978  0.00  0.00    +0.000 OA
ATOM     24  H   UNL     1      50.305   6.375  17.255  0.00  0.00    +0.000 HD
BRANCH  22  25
ATOM     25  C   UNL     1      52.844   6.164  16.768  0.00  0.00    +0.000 A 
ATOM     26  C   UNL     1      54.130   6.661  16.936  0.00  0.00    +0.000 A 
ATOM     27  S   UNL     1      55.136   5.656  17.877  0.00  0.00    +0.000 S 
ATOM     28  C   UNL     1      53.907   4.492  18.046  0.00  0.00    +0.000 A 
ATOM     29  N   UNL     1      54.126   3.342  18.736  0.00  0.00    +0.000 NA
ATOM     30  C   UNL     1      53.118   2.534  18.757  0.00  0.00    +0.000 A 
ATOM     31  N   UNL     1      51.910   2.775  18.160  0.00  0.00    +0.000 N 
ATOM     32  C   UNL     1      51.630   3.936  17.482  0.00  0.00    +0.000 A 
ATOM     33  O   UNL     1      50.522   4.145  17.003  0.00  0.00    +0.000 OA
ATOM     34  C   UNL     1      52.736   4.873  17.411  0.00  0.00    +0.000 A 
ATOM     35  H   UNL     1      51.159   2.104  18.218  0.00  0.00    +0.000 HD
ENDBRANCH  22  25
ENDBRANCH  20  21
ENDBRANCH   4  20
TORSDOF 8
ENDMDL
MODEL 8
REMARK VINA RESULT:    -5.776      3.383      4.128
REMARK INTER + INTRA:          -9.532
REMARK INTER:                  -8.459
REMARK INTRA:                  -1.072
REMARK UNBOUND:                -1.223
REMARK  Name = 
REMARK  8 active torsions:
REMARK  status: ('A' for Active; 'I' for Inactive)
REMARK    1  A    between atoms: N_1  and  C_2
REMARK    2  A    between atoms: C_2  and  C_3
REMARK    3  A    between atoms: C_3  and  C_26
REMARK    4  A    between atoms: N_4  and  C_5
REMARK    5  A    between atoms: C_5  and  C_6
REMARK    6  A    between atoms: C_9  and  C_10
REMARK    7  A    between atoms: C_10  and  N_11
REMARK    8  A    between atoms: C_12  and  C_14
REMARK                            x       y       z     vdW  Elec       q    Type
REMARK                         _______ _______ _______ _____ _____    ______ ____
ROOT
ATOM      1  C   UNL     1      46.846   6.868  11.890  0.00  0.00    +0.000 A 
ATOM      2  C   UNL     1      47.627   7.991  11.626  0.00  0.00    +0.000 A 
ATOM      3  C   UNL     1      48.796   8.205  12.355  0.00  0.00    +0.000 A 
ATOM      4  C   UNL     1      49.165   7.277  13.327  0.00  0.00    +0.000 A 
ATOM      5  N   UNL     1      48.414   6.185  13.609  0.00  0.00    +0.000 NA
ATOM      6  C   UNL     1      47.287   6.005  12.887  0.00  0.00    +0.000 A 
ENDROOT
BRANCH   1   7
ATOM      7  C   UNL     1      45.554   6.600  11.170  0.00  0.00    +0.000 C 
BRANCH   7   9
ATOM      8  C   UNL     1      45.369   4.661   9.777  0.00  0.00    +0.000 C 
ATOM      9  N   UNL     1      45.758   5.884   9.919  0.00  0.00    +0.000 NA
BRANCH   8  10
ATOM     10  C   UNL     1      44.695   3.835  10.765  0.00  0.00    +0.000 A 
ATOM     11  C   UNL     1      45.093   3.301  11.979  0.00  0.00    +0.000 A 
ATOM     12  C   UNL     1      43.987   2.582  12.462  0.00  0.00    +0.000 A 
ATOM     13  N   UNL     1      42.955   2.626  11.622  0.00  0.00    +0.000 NA
ATOM     14  N   UNL     1      43.402   3.391  10.610  0.00  0.00    +0.000 N 
ATOM     15  H   UNL     1      42.771   3.589   9.837  0.00  0.00    +0.000 HD
ENDBRANCH   8  10
BRANCH   8  16
ATOM     16  C   UNL     1      45.620   4.026   8.396  0.00  0.00    +0.000 C 
BRANCH  16  17
ATOM     17  N   UNL     1      46.723   4.730   7.725  0.00  0.00    +0.000 NA
ATOM     18  H   UNL     1      47.352   5.091   8.446  0.00  0.00    +0.000 HD
ATOM     19  H   UNL     1      46.329   5.569   7.291  0.00  0.00    +0.000 HD
ENDBRANCH  16  17
ENDBRANCH   8  16
ENDBRANCH   7   9
ENDBRANCH   1   7
BRANCH   4  20
ATOM     20  C   UNL     1      50.384   7.502  14.188  0.00  0.00    +0.000 C 
BRANCH  20  21
ATOM     21  N   UNL     1      50.026   7.566  15.586  0.00  0.00    +0.000 N 
ATOM     22  C   UNL     1      50.797   6.964  16.543  0.00  0.00    +0.000 C 
ATOM     23  O   UNL     1      51.856   6.406  16.266  0.00  0.00    +0.000 OA
ATOM     24  H   UNL     1      49.044   7.745  15.781  0.00  0.00    +0.000 HD
BRANCH  22  25
ATOM     25  C   UNL     1      50.333   7.082  17.932  0.00  0.00    +0.000 A 
ATOM     26  C   UNL     1      51.094   7.800  18.846  0.00  0.00    +0.000 A 
ATOM     27  S   UNL     1      50.390   7.898  20.395  0.00  0.00    +0.000 S 
ATOM     28  C   UNL     1      49.070   6.938  19.917  0.00  0.00    +0.000 A 
ATOM     29  N   UNL     1      48.088   6.613  20.799  0.00  0.00    +0.000 NA
ATOM     30  C   UNL     1      47.165   5.853  20.311  0.00  0.00    +0.000 A 
ATOM     31  N   UNL     1      47.130   5.395  19.022  0.00  0.00    +0.000 N 
ATOM     32  C   UNL     1      48.080   5.723  18.086  0.00  0.00    +0.000 A 
ATOM     33  O   UNL     1      47.993   5.341  16.926  0.00  0.00    +0.000 OA
ATOM     34  C   UNL     1      49.153   6.563  18.586  0.00  0.00    +0.000 A 
ATOM     35  H   UNL     1      46.375   4.807  18.700  0.00  0.00    +0.000 HD
ENDBRANCH  22  25
ENDBRANCH  20  21
ENDBRANCH   4  20
TORSDOF 8
ENDMDL
MODEL 9
REMARK VINA RESULT:    -5.581      6.812      8.562
REMARK INTER + INTRA:          -9.250
REMARK INTER:                  -7.979
REMARK INTRA:                  -1.272
REMARK UNBOUND:                -1.223
REMARK  Name = 
REMARK  8 active torsions:
REMARK  status: ('A' for Active; 'I' for Inactive)
REMARK    1  A    between atoms: N_1  and  C_2
REMARK    2  A    between atoms: C_2  and  C_3
REMARK    3  A    between atoms: C_3  and  C_26
REMARK    4  A    between atoms: N_4  and  C_5
REMARK    5  A    between atoms: C_5  and  C_6
REMARK    6  A    between atoms: C_9  and  C_10
REMARK    7  A    between atoms: C_10  and  N_11
REMARK    8  A    between atoms: C_12  and  C_14
REMARK                            x       y       z     vdW  Elec       q    Type
REMARK                         _______ _______ _______ _____ _____    ______ ____
ROOT
ATOM      1  C   UNL     1      48.666   8.215  12.161  0.00  0.00    +0.000 A 
ATOM      2  C   UNL     1      49.666   7.308  11.815  0.00  0.00    +0.000 A 
ATOM      3  C   UNL     1      50.849   7.773  11.242  0.00  0.00    +0.000 A 
ATOM      4  C   UNL     1      51.010   9.143  11.041  0.00  0.00    +0.000 A 
ATOM      5  N   UNL     1      50.046  10.040  11.359  0.00  0.00    +0.000 NA
ATOM      6  C   UNL     1      48.911   9.560  11.912  0.00  0.00    +0.000 A 
ENDROOT
BRANCH   1   7
ATOM      7  C   UNL     1      47.351   7.776  12.744  0.00  0.00    +0.000 C 
BRANCH   7   9
ATOM      8  C   UNL     1      46.668   5.660  13.631  0.00  0.00    +0.000 C 
ATOM      9  N   UNL     1      47.499   6.648  13.651  0.00  0.00    +0.000 NA
BRANCH   8  10
ATOM     10  C   UNL     1      45.519   5.499  12.755  0.00  0.00    +0.000 A 
ATOM     11  C   UNL     1      44.196   5.898  12.849  0.00  0.00    +0.000 A 
ATOM     12  C   UNL     1      43.572   5.432  11.679  0.00  0.00    +0.000 A 
ATOM     13  N   UNL     1      44.414   4.765  10.893  0.00  0.00    +0.000 NA
ATOM     14  N   UNL     1      45.582   4.823  11.558  0.00  0.00    +0.000 N 
ATOM     15  H   UNL     1      46.401   4.390  11.136  0.00  0.00    +0.000 HD
ENDBRANCH   8  10
BRANCH   8  16
ATOM     16  C   UNL     1      46.950   4.515  14.623  0.00  0.00    +0.000 C 
BRANCH  16  17
ATOM     17  N   UNL     1      47.188   3.270  13.880  0.00  0.00    +0.000 NA
ATOM     18  H   UNL     1      47.928   2.752  14.358  0.00  0.00    +0.000 HD
ATOM     19  H   UNL     1      47.603   3.528  12.979  0.00  0.00    +0.000 HD
ENDBRANCH  16  17
ENDBRANCH   8  16
ENDBRANCH   7   9
ENDBRANCH   1   7
BRANCH   4  20
ATOM     20  C   UNL     1      52.244   9.686  10.362  0.00  0.00    +0.000 C 
BRANCH  20  21
ATOM     21  N   UNL     1      52.567   8.914   9.184  0.00  0.00    +0.000 N 
ATOM     22  C   UNL     1      53.812   8.974   8.617  0.00  0.00    +0.000 C 
ATOM     23  O   UNL     1      54.723   9.627   9.122  0.00  0.00    +0.000 OA
ATOM     24  H   UNL     1      51.775   8.632   8.612  0.00  0.00    +0.000 HD
BRANCH  22  25
ATOM     25  C   UNL     1      54.028   8.158   7.416  0.00  0.00    +0.000 A 
ATOM     26  C   UNL     1      54.385   8.778   6.225  0.00  0.00    +0.000 A 
ATOM     27  S   UNL     1      54.661   7.690   4.943  0.00  0.00    +0.000 S 
ATOM     28  C   UNL     1      54.260   6.354   5.916  0.00  0.00    +0.000 A 
ATOM     29  N   UNL     1      54.271   5.093   5.409  0.00  0.00    +0.000 NA
ATOM     30  C   UNL     1      53.914   4.179   6.248  0.00  0.00    +0.000 A 
ATOM     31  N   UNL     1      53.556   4.409   7.549  0.00  0.00    +0.000 N 
ATOM     32  C   UNL     1      53.562   5.660   8.116  0.00  0.00    +0.000 A 
ATOM     33  O   UNL     1      53.287   5.827   9.298  0.00  0.00    +0.000 OA
ATOM     34  C   UNL     1      53.938   6.730   7.210  0.00  0.00    +0.000 A 
ATOM     35  H   UNL     1      53.291   3.648   8.157  0.00  0.00    +0.000 HD
ENDBRANCH  22  25
ENDBRANCH  20  21
ENDBRANCH   4  20
TORSDOF 8
ENDMDL
