MODEL 1
REMARK VINA RESULT:    -8.574      0.000      0.000
REMARK INTER + INTRA:         -12.607
REMARK INTER:                 -11.582
REMARK INTRA:                  -1.026
REMARK UNBOUND:                -1.026
REMARK  Name = 
REMARK  7 active torsions:
REMARK  status: ('A' for Active; 'I' for Inactive)
REMARK    1  A    between atoms: C_1  and  C_2
REMARK    2  A    between atoms: C_6  and  C_7
REMARK    3  A    between atoms: N_9  and  C_10
REMARK    4  A    between atoms: C_10  and  C_11
REMARK    5  A    between atoms: C_14  and  C_15
REMARK    6  A    between atoms: C_15  and  N_16
REMARK    7  A    between atoms: C_17  and  C_19
REMARK                            x       y       z     vdW  Elec       q    Type
REMARK                         _______ _______ _______ _____ _____    ______ ____
ROOT
ATOM      1  C   UNL     1      44.933   6.406  11.287  0.00  0.00    +0.000 A 
ATOM      2  C   UNL     1      46.145   5.855  11.724  0.00  0.00    +0.000 A 
ATOM      3  C   UNL     1      46.993   6.573  12.578  0.00  0.00    +0.000 A 
ATOM      4  C   UNL     1      46.635   7.850  13.033  0.00  0.00    +0.000 A 
ATOM      5  C   UNL     1      45.432   8.395  12.584  0.00  0.00    +0.000 A 
ATOM      6  F   UNL     1      45.068   9.625  12.977  0.00  0.00    +0.000 F 
ATOM      7  C   UNL     1      44.584   7.688  11.730  0.00  0.00    +0.000 A 
ENDROOT
BRANCH   1   8
ATOM      8  C   UNL     1      44.017   5.636  10.369  0.00  0.00    +0.000 C 
BRANCH   8  11
ATOM      9  C   UNL     1      44.915   3.512   9.504  0.00  0.00    +0.000 C 
ATOM     10  O   UNL     1      44.488   2.856  10.448  0.00  0.00    +0.000 OA
ATOM     11  N   UNL     1      44.740   4.876   9.381  0.00  0.00    +0.000 N 
ATOM     12  H   UNL     1      45.125   5.318   8.551  0.00  0.00    +0.000 HD
BRANCH   9  18
ATOM     13  C   UNL     1      46.815  -0.543   7.613  0.00  0.00    +0.000 C 
ATOM     14  C   UNL     1      46.583   0.933   7.485  0.00  0.00    +0.000 A 
ATOM     15  C   UNL     1      47.063   1.636   6.382  0.00  0.00    +0.000 A 
ATOM     16  C   UNL     1      46.831   3.007   6.300  0.00  0.00    +0.000 A 
ATOM     17  C   UNL     1      46.125   3.641   7.316  0.00  0.00    +0.000 A 
ATOM     18  C   UNL     1      45.680   2.870   8.383  0.00  0.00    +0.000 A 
ATOM     19  N   UNL     1      45.893   1.527   8.489  0.00  0.00    +0.000 NA
ENDBRANCH   9  18
ENDBRANCH   8  11
ENDBRANCH   1   8
BRANCH   4  20
ATOM     20  C   UNL     1      47.530   8.609  13.974  0.00  0.00    +0.000 C 
BRANCH  20  21
ATOM     21  N   UNL     1      47.888   7.813  15.123  0.00  0.00    +0.000 N 
ATOM     22  C   UNL     1      49.096   7.166  15.209  0.00  0.00    +0.000 C 
ATOM     23  O   UNL     1      49.980   7.309  14.368  0.00  0.00    +0.000 OA
ATOM     24  H   UNL     1      47.114   7.470  15.683  0.00  0.00    +0.000 HD
BRANCH  22  25
ATOM     25  C   UNL     1      49.311   6.342  16.405  0.00  0.00    +0.000 A 
ATOM     26  C   UNL     1      50.306   6.684  17.311  0.00  0.00    +0.000 A 
ATOM     27  S   UNL     1      50.381   5.650  18.666  0.00  0.00    +0.000 S 
ATOM     28  C   UNL     1      49.121   4.678  18.063  0.00  0.00    +0.000 A 
ATOM     29  N   UNL     1      48.692   3.583  18.746  0.00  0.00    +0.000 NA
ATOM     30  C   UNL     1      47.754   2.920  18.156  0.00  0.00    +0.000 A 
ATOM     31  N   UNL     1      47.203   3.255  16.946  0.00  0.00    +0.000 N 
ATOM     32  C   UNL     1      47.580   4.372  16.238  0.00  0.00    +0.000 A 
ATOM     33  O   UNL     1      47.030   4.678  15.186  0.00  0.00    +0.000 OA
ATOM     34  C   UNL     1      48.641   5.145  16.853  0.00  0.00    +0.000 A 
ATOM     35  H   UNL     1      46.464   2.700  16.542  0.00  0.00    +0.000 HD
ENDBRANCH  22  25
ENDBRANCH  20  21
ENDBRANCH   4  20
TORSDOF 6
ENDMDL
MODEL 2
REMARK VINA RESULT:    -7.972      1.386      1.538
REMARK INTER + INTRA:         -11.794
REMARK INTER:                 -10.969
REMARK INTRA:                  -0.825
REMARK UNBOUND:                -1.026
REMARK  Name = 
REMARK  7 active torsions:
REMARK  status: ('A' for Active; 'I' for Inactive)
REMARK    1  A    between atoms: C_1  and  C_2
REMARK    2  A    between atoms: C_6  and  C_7
REMARK    3  A    between atoms: N_9  and  C_10
REMARK    4  A    between atoms: C_10  and  C_11
REMARK    5  A    between atoms: C_14  and  C_15
REMARK    6  A    between atoms: C_15  and  N_16
REMARK    7  A    between atoms: C_17  and  C_19
REMARK                            x       y       z     vdW  Elec       q    Type
REMARK                         _______ _______ _______ _____ _____    ______ ____
ROOT
ATOM      1  C   UNL     1      45.377   6.306  11.945  0.00  0.00    +0.000 A 
ATOM      2  C   UNL     1      46.444   5.778  12.684  0.00  0.00    +0.000 A 
ATOM      3  C   UNL     1      47.286   6.616  13.428  0.00  0.00    +0.000 A 
ATOM      4  C   UNL     1      47.065   7.999  13.466  0.00  0.00    +0.000 A 
ATOM      5  C   UNL     1      46.008   8.518  12.717  0.00  0.00    +0.000 A 
ATOM      6  F   UNL     1      45.781   9.840  12.709  0.00  0.00    +0.000 F 
ATOM      7  C   UNL     1      45.167   7.691  11.972  0.00  0.00    +0.000 A 
ENDROOT
BRANCH   1   8
ATOM      8  C   UNL     1      44.468   5.408  11.145  0.00  0.00    +0.000 C 
BRANCH   8  11
ATOM      9  C   UNL     1      44.754   3.471   9.652  0.00  0.00    +0.000 C 
ATOM     10  O   UNL     1      43.790   2.872  10.114  0.00  0.00    +0.000 OA
ATOM     11  N   UNL     1      45.166   4.712  10.095  0.00  0.00    +0.000 N 
ATOM     12  H   UNL     1      45.972   5.124   9.632  0.00  0.00    +0.000 HD
BRANCH   9  18
ATOM     13  C   UNL     1      46.785  -0.475   7.668  0.00  0.00    +0.000 C 
ATOM     14  C   UNL     1      46.549   1.004   7.601  0.00  0.00    +0.000 A 
ATOM     15  C   UNL     1      47.082   1.763   6.561  0.00  0.00    +0.000 A 
ATOM     16  C   UNL     1      46.844   3.136   6.534  0.00  0.00    +0.000 A 
ATOM     17  C   UNL     1      46.079   3.714   7.541  0.00  0.00    +0.000 A 
ATOM     18  C   UNL     1      45.584   2.890   8.543  0.00  0.00    +0.000 A 
ATOM     19  N   UNL     1      45.801   1.544   8.595  0.00  0.00    +0.000 NA
ENDBRANCH   9  18
ENDBRANCH   8  11
ENDBRANCH   1   8
BRANCH   4  20
ATOM     20  C   UNL     1      47.951   8.897  14.287  0.00  0.00    +0.000 C 
BRANCH  20  21
ATOM     21  N   UNL     1      47.917   8.539  15.685  0.00  0.00    +0.000 N 
ATOM     22  C   UNL     1      48.954   7.873  16.289  0.00  0.00    +0.000 C 
ATOM     23  O   UNL     1      50.011   7.637  15.707  0.00  0.00    +0.000 OA
ATOM     24  H   UNL     1      46.995   8.480  16.105  0.00  0.00    +0.000 HD
BRANCH  22  25
ATOM     25  C   UNL     1      48.768   7.518  17.701  0.00  0.00    +0.000 A 
ATOM     26  C   UNL     1      48.535   8.514  18.641  0.00  0.00    +0.000 A 
ATOM     27  S   UNL     1      48.290   7.920  20.220  0.00  0.00    +0.000 S 
ATOM     28  C   UNL     1      48.539   6.314  19.714  0.00  0.00    +0.000 A 
ATOM     29  N   UNL     1      48.485   5.283  20.599  0.00  0.00    +0.000 NA
ATOM     30  C   UNL     1      48.726   4.124  20.084  0.00  0.00    +0.000 A 
ATOM     31  N   UNL     1      49.013   3.902  18.762  0.00  0.00    +0.000 N 
ATOM     32  C   UNL     1      49.043   4.908  17.825  0.00  0.00    +0.000 A 
ATOM     33  O   UNL     1      49.247   4.672  16.639  0.00  0.00    +0.000 OA
ATOM     34  C   UNL     1      48.791   6.233  18.356  0.00  0.00    +0.000 A 
ATOM     35  H   UNL     1      49.182   2.968  18.418  0.00  0.00    +0.000 HD
ENDBRANCH  22  25
ENDBRANCH  20  21
ENDBRANCH   4  20
TORSDOF 6
ENDMDL
MODEL 3
REMARK VINA RESULT:    -7.711      2.122      2.621
REMARK INTER + INTRA:         -11.442
REMARK INTER:                 -10.345
REMARK INTRA:                  -1.096
REMARK UNBOUND:                -1.026
REMARK  Name = 
REMARK  7 active torsions:
REMARK  status: ('A' for Active; 'I' for Inactive)
REMARK    1  A    between atoms: C_1  and  C_2
REMARK    2  A    between atoms: C_6  and  C_7
REMARK    3  A    between atoms: N_9  and  C_10
REMARK    4  A    between atoms: C_10  and  C_11
REMARK    5  A    between atoms: C_14  and  C_15
REMARK    6  A    between atoms: C_15  and  N_16
REMARK    7  A    between atoms: C_17  and  C_19
REMARK                            x       y       z     vdW  Elec       q    Type
REMARK                         _______ _______ _______ _____ _____    ______ ____
ROOT
ATOM      1  C   UNL     1      45.120   6.495  11.417  0.00  0.00    +0.000 A 
ATOM      2  C   UNL     1      46.357   5.991  11.840  0.00  0.00    +0.000 A 
ATOM      3  C   UNL     1      47.213   6.765  12.635  0.00  0.00    +0.000 A 
ATOM      4  C   UNL     1      46.840   8.053  13.043  0.00  0.00    +0.000 A 
ATOM      5  C   UNL     1      45.612   8.551  12.607  0.00  0.00    +0.000 A 
ATOM      6  F   UNL     1      45.232   9.789  12.956  0.00  0.00    +0.000 F 
ATOM      7  C   UNL     1      44.755   7.788  11.812  0.00  0.00    +0.000 A 
ENDROOT
BRANCH   1   8
ATOM      8  C   UNL     1      44.195   5.665  10.563  0.00  0.00    +0.000 C 
BRANCH   8  11
ATOM      9  C   UNL     1      45.014   3.536   9.633  0.00  0.00    +0.000 C 
ATOM     10  O   UNL     1      44.542   2.865  10.543  0.00  0.00    +0.000 OA
ATOM     11  N   UNL     1      44.902   4.910   9.559  0.00  0.00    +0.000 N 
ATOM     12  H   UNL     1      45.321   5.366   8.753  0.00  0.00    +0.000 HD
BRANCH   9  18
ATOM     13  C   UNL     1      46.733  -0.530   7.598  0.00  0.00    +0.000 C 
ATOM     14  C   UNL     1      46.587   0.960   7.534  0.00  0.00    +0.000 A 
ATOM     15  C   UNL     1      47.134   1.684   6.476  0.00  0.00    +0.000 A 
ATOM     16  C   UNL     1      46.980   3.069   6.453  0.00  0.00    +0.000 A 
ATOM     17  C   UNL     1      46.285   3.695   7.481  0.00  0.00    +0.000 A 
ATOM     18  C   UNL     1      45.771   2.903   8.501  0.00  0.00    +0.000 A 
ATOM     19  N   UNL     1      45.906   1.547   8.549  0.00  0.00    +0.000 NA
ENDBRANCH   9  18
ENDBRANCH   8  11
ENDBRANCH   1   8
BRANCH   4  20
ATOM     20  C   UNL     1      47.745   8.874  13.921  0.00  0.00    +0.000 C 
BRANCH  20  21
ATOM     21  N   UNL     1      47.697   8.430  15.294  0.00  0.00    +0.000 N 
ATOM     22  C   UNL     1      48.750   7.772  15.880  0.00  0.00    +0.000 C 
ATOM     23  O   UNL     1      49.828   7.616  15.311  0.00  0.00    +0.000 OA
ATOM     24  H   UNL     1      46.770   8.307  15.687  0.00  0.00    +0.000 HD
BRANCH  22  25
ATOM     25  C   UNL     1      48.549   7.323  17.264  0.00  0.00    +0.000 A 
ATOM     26  C   UNL     1      48.756   5.991  17.597  0.00  0.00    +0.000 A 
ATOM     27  S   UNL     1      48.529   5.657  19.254  0.00  0.00    +0.000 S 
ATOM     28  C   UNL     1      48.092   7.270  19.575  0.00  0.00    +0.000 A 
ATOM     29  N   UNL     1      47.750   7.668  20.830  0.00  0.00    +0.000 NA
ATOM     30  C   UNL     1      47.410   8.910  20.922  0.00  0.00    +0.000 A 
ATOM     31  N   UNL     1      47.383   9.792  19.873  0.00  0.00    +0.000 N 
ATOM     32  C   UNL     1      47.754   9.444  18.595  0.00  0.00    +0.000 A 
ATOM     33  O   UNL     1      47.775  10.269  17.688  0.00  0.00    +0.000 OA
ATOM     34  C   UNL     1      48.134   8.055  18.436  0.00  0.00    +0.000 A 
ATOM     35  H   UNL     1      47.117  10.755  20.013  0.00  0.00    +0.000 HD
ENDBRANCH  22  25
ENDBRANCH  20  21
ENDBRANCH   4  20
TORSDOF 6
ENDMDL
MODEL 4
REMARK VINA RESULT:    -7.646      3.651      5.131
REMARK INTER + INTRA:         -11.354
REMARK INTER:                 -10.030
REMARK INTRA:                  -1.324
REMARK UNBOUND:                -1.026
REMARK  Name = 
REMARK  7 active torsions:
REMARK  status: ('A' for Active; 'I' for Inactive)
REMARK    1  A    between atoms: C_1  and  C_2
REMARK    2  A    between atoms: C_6  and  C_7
REMARK    3  A    between atoms: N_9  and  C_10
REMARK    4  A    between atoms: C_10  and  C_11
REMARK    5  A    between atoms: C_14  and  C_15
REMARK    6  A    between atoms: C_15  and  N_16
REMARK    7  A    between atoms: C_17  and  C_19
REMARK                            x       y       z     vdW  Elec       q    Type
REMARK                         _______ _______ _______ _____ _____    ______ ____
ROOT
ATOM      1  C   UNL     1      45.091   5.238  12.269  0.00  0.00    +0.000 A 
ATOM      2  C   UNL     1      44.584   6.502  11.938  0.00  0.00    +0.000 A 
ATOM      3  C   UNL     1      45.183   7.668  12.432  0.00  0.00    +0.000 A 
ATOM      4  C   UNL     1      46.318   7.597  13.252  0.00  0.00    +0.000 A 
ATOM      5  C   UNL     1      46.809   6.335  13.587  0.00  0.00    +0.000 A 
ATOM      6  F   UNL     1      47.877   6.226  14.391  0.00  0.00    +0.000 F 
ATOM      7  C   UNL     1      46.216   5.168  13.102  0.00  0.00    +0.000 A 
ENDROOT
BRANCH   1   8
ATOM      8  C   UNL     1      44.451   3.982  11.738  0.00  0.00    +0.000 C 
BRANCH   8  11
ATOM      9  C   UNL     1      44.886   3.702   9.330  0.00  0.00    +0.000 C 
ATOM     10  O   UNL     1      43.974   4.450   8.998  0.00  0.00    +0.000 OA
ATOM     11  N   UNL     1      45.192   3.407  10.644  0.00  0.00    +0.000 N 
ATOM     12  H   UNL     1      45.978   2.784  10.807  0.00  0.00    +0.000 HD
BRANCH   9  18
ATOM     13  C   UNL     1      46.764  -0.439   7.611  0.00  0.00    +0.000 C 
ATOM     14  C   UNL     1      46.654   1.052   7.496  0.00  0.00    +0.000 A 
ATOM     15  C   UNL     1      47.338   1.741   6.496  0.00  0.00    +0.000 A 
ATOM     16  C   UNL     1      47.213   3.127   6.423  0.00  0.00    +0.000 A 
ATOM     17  C   UNL     1      46.410   3.788   7.345  0.00  0.00    +0.000 A 
ATOM     18  C   UNL     1      45.762   3.030   8.312  0.00  0.00    +0.000 A 
ATOM     19  N   UNL     1      45.866   1.674   8.407  0.00  0.00    +0.000 NA
ENDBRANCH   9  18
ENDBRANCH   8  11
ENDBRANCH   1   8
BRANCH   4  20
ATOM     20  C   UNL     1      46.980   8.849  13.760  0.00  0.00    +0.000 C 
BRANCH  20  21
ATOM     21  N   UNL     1      48.212   9.119  13.059  0.00  0.00    +0.000 N 
ATOM     22  C   UNL     1      48.262   9.967  11.981  0.00  0.00    +0.000 C 
ATOM     23  O   UNL     1      47.290  10.625  11.615  0.00  0.00    +0.000 OA
ATOM     24  H   UNL     1      48.940   8.419  13.158  0.00  0.00    +0.000 HD
BRANCH  22  25
ATOM     25  C   UNL     1      49.567  10.108  11.322  0.00  0.00    +0.000 A 
ATOM     26  C   UNL     1      49.972  11.350  10.848  0.00  0.00    +0.000 A 
ATOM     27  S   UNL     1      51.533  11.341  10.161  0.00  0.00    +0.000 S 
ATOM     28  C   UNL     1      51.700   9.668  10.423  0.00  0.00    +0.000 A 
ATOM     29  N   UNL     1      52.826   9.007  10.040  0.00  0.00    +0.000 NA
ATOM     30  C   UNL     1      52.802   7.737  10.271  0.00  0.00    +0.000 A 
ATOM     31  N   UNL     1      51.756   7.068  10.852  0.00  0.00    +0.000 N 
ATOM     32  C   UNL     1      50.615   7.699  11.287  0.00  0.00    +0.000 A 
ATOM     33  O   UNL     1      49.720   7.084  11.856  0.00  0.00    +0.000 OA
ATOM     34  C   UNL     1      50.586   9.128  11.040  0.00  0.00    +0.000 A 
ATOM     35  H   UNL     1      51.804   6.073  11.015  0.00  0.00    +0.000 HD
ENDBRANCH  22  25
ENDBRANCH  20  21
ENDBRANCH   4  20
TORSDOF 6
ENDMDL
MODEL 5
REMARK VINA RESULT:    -7.445      3.016      4.606
REMARK INTER + INTRA:         -11.082
REMARK INTER:                  -9.947
REMARK INTRA:                  -1.136
REMARK UNBOUND:                -1.026
REMARK  Name = 
REMARK  7 active torsions:
REMARK  status: ('A' for Active; 'I' for Inactive)
REMARK    1  A    between atoms: C_1  and  C_2
REMARK    2  A    between atoms: C_6  and  C_7
REMARK    3  A    between atoms: N_9  and  C_10
REMARK    4  A    between atoms: C_10  and  C_11
REMARK    5  A    between atoms: C_14  and  C_15
REMARK    6  A    between atoms: C_15  and  N_16
REMARK    7  A    between atoms: C_17  and  C_19
REMARK                            x       y       z     vdW  Elec       q    Type
REMARK                         _______ _______ _______ _____ _____    ______ ____
ROOT
ATOM      1  C   UNL     1      45.147   4.651  11.946  0.00  0.00    +0.000 A 
ATOM      2  C   UNL     1      45.410   6.005  12.196  0.00  0.00    +0.000 A 
ATOM      3  C   UNL     1      46.316   6.388  13.193  0.00  0.00    +0.000 A 
ATOM      4  C   UNL     1      46.998   5.423  13.949  0.00  0.00    +0.000 A 
ATOM      5  C   UNL     1      46.721   4.078  13.701  0.00  0.00    +0.000 A 
ATOM      6  F   UNL     1      47.335   3.127  14.422  0.00  0.00    +0.000 F 
ATOM      7  C   UNL     1      45.817   3.689  12.712  0.00  0.00    +0.000 A 
ENDROOT
BRANCH   1   8
ATOM      8  C   UNL     1      44.174   4.235  10.873  0.00  0.00    +0.000 C 
BRANCH   8  11
ATOM      9  C   UNL     1      45.540   4.111   8.827  0.00  0.00    +0.000 C 
ATOM     10  O   UNL     1      45.697   5.325   8.763  0.00  0.00    +0.000 OA
ATOM     11  N   UNL     1      44.807   3.487   9.817  0.00  0.00    +0.000 N 
ATOM     12  H   UNL     1      44.752   2.473   9.781  0.00  0.00    +0.000 HD
BRANCH   9  18
ATOM     13  C   UNL     1      46.786  -0.431   7.626  0.00  0.00    +0.000 C 
ATOM     14  C   UNL     1      46.734   1.016   7.242  0.00  0.00    +0.000 A 
ATOM     15  C   UNL     1      47.226   1.444   6.010  0.00  0.00    +0.000 A 
ATOM     16  C   UNL     1      47.163   2.799   5.690  0.00  0.00    +0.000 A 
ATOM     17  C   UNL     1      46.611   3.690   6.603  0.00  0.00    +0.000 A 
ATOM     18  C   UNL     1      46.143   3.186   7.810  0.00  0.00    +0.000 A 
ATOM     19  N   UNL     1      46.192   1.866   8.150  0.00  0.00    +0.000 NA
ENDBRANCH   9  18
ENDBRANCH   8  11
ENDBRANCH   1   8
BRANCH   4  20
ATOM     20  C   UNL     1      47.994   5.832  15.000  0.00  0.00    +0.000 C 
BRANCH  20  21
ATOM     21  N   UNL     1      48.704   7.029  14.620  0.00  0.00    +0.000 N 
ATOM     22  C   UNL     1      49.979   7.286  15.059  0.00  0.00    +0.000 C 
ATOM     23  O   UNL     1      50.628   6.470  15.710  0.00  0.00    +0.000 OA
ATOM     24  H   UNL     1      48.128   7.810  14.322  0.00  0.00    +0.000 HD
BRANCH  22  25
ATOM     25  C   UNL     1      50.565   8.568  14.646  0.00  0.00    +0.000 A 
ATOM     26  C   UNL     1      50.969   9.486  15.606  0.00  0.00    +0.000 A 
ATOM     27  S   UNL     1      51.674  10.894  14.952  0.00  0.00    +0.000 S 
ATOM     28  C   UNL     1      51.416  10.350  13.360  0.00  0.00    +0.000 A 
ATOM     29  N   UNL     1      51.782  11.108  12.291  0.00  0.00    +0.000 NA
ATOM     30  C   UNL     1      51.496  10.587  11.145  0.00  0.00    +0.000 A 
ATOM     31  N   UNL     1      50.880   9.374  10.970  0.00  0.00    +0.000 N 
ATOM     32  C   UNL     1      50.525   8.559  12.019  0.00  0.00    +0.000 A 
ATOM     33  O   UNL     1      50.027   7.455  11.830  0.00  0.00    +0.000 OA
ATOM     34  C   UNL     1      50.814   9.105  13.330  0.00  0.00    +0.000 A 
ATOM     35  H   UNL     1      50.693   9.017  10.045  0.00  0.00    +0.000 HD
ENDBRANCH  22  25
ENDBRANCH  20  21
ENDBRANCH   4  20
TORSDOF 6
ENDMDL
MODEL 6
REMARK VINA RESULT:    -7.289      2.218      2.635
REMARK INTER + INTRA:         -10.871
REMARK INTER:                 -10.261
REMARK INTRA:                  -0.610
REMARK UNBOUND:                -1.026
REMARK  Name = 
REMARK  7 active torsions:
REMARK  status: ('A' for Active; 'I' for Inactive)
REMARK    1  A    between atoms: C_1  and  C_2
REMARK    2  A    between atoms: C_6  and  C_7
REMARK    3  A    between atoms: N_9  and  C_10
REMARK    4  A    between atoms: C_10  and  C_11
REMARK    5  A    between atoms: C_14  and  C_15
REMARK    6  A    between atoms: C_15  and  N_16
REMARK    7  A    between atoms: C_17  and  C_19
REMARK                            x       y       z     vdW  Elec       q    Type
REMARK                         _______ _______ _______ _____ _____    ______ ____
ROOT
ATOM      1  C   UNL     1      45.447   4.841  12.277  0.00  0.00    +0.000 A 
ATOM      2  C   UNL     1      45.515   6.170  11.836  0.00  0.00    +0.000 A 
ATOM      3  C   UNL     1      46.338   7.100  12.484  0.00  0.00    +0.000 A 
ATOM      4  C   UNL     1      47.129   6.716  13.576  0.00  0.00    +0.000 A 
ATOM      5  C   UNL     1      47.046   5.395  14.017  0.00  0.00    +0.000 A 
ATOM      6  F   UNL     1      47.768   4.997  15.075  0.00  0.00    +0.000 F 
ATOM      7  C   UNL     1      46.225   4.463  13.379  0.00  0.00    +0.000 A 
ENDROOT
BRANCH   1   8
ATOM      8  C   UNL     1      44.564   3.837  11.582  0.00  0.00    +0.000 C 
BRANCH   8  11
ATOM      9  C   UNL     1      44.997   3.678   9.162  0.00  0.00    +0.000 C 
ATOM     10  O   UNL     1      44.245   4.606   8.886  0.00  0.00    +0.000 OA
ATOM     11  N   UNL     1      45.212   3.226  10.449  0.00  0.00    +0.000 N 
ATOM     12  H   UNL     1      45.866   2.457  10.566  0.00  0.00    +0.000 HD
BRANCH   9  18
ATOM     13  C   UNL     1      46.912  -0.522   7.639  0.00  0.00    +0.000 C 
ATOM     14  C   UNL     1      46.669   0.934   7.377  0.00  0.00    +0.000 A 
ATOM     15  C   UNL     1      47.136   1.535   6.210  0.00  0.00    +0.000 A 
ATOM     16  C   UNL     1      46.893   2.891   6.003  0.00  0.00    +0.000 A 
ATOM     17  C   UNL     1      46.190   3.611   6.962  0.00  0.00    +0.000 A 
ATOM     18  C   UNL     1      45.758   2.940   8.099  0.00  0.00    +0.000 A 
ATOM     19  N   UNL     1      45.982   1.614   8.327  0.00  0.00    +0.000 NA
ENDBRANCH   9  18
ENDBRANCH   8  11
ENDBRANCH   1   8
BRANCH   4  20
ATOM     20  C   UNL     1      48.036   7.706  14.255  0.00  0.00    +0.000 C 
BRANCH  20  21
ATOM     21  N   UNL     1      49.247   7.079  14.728  0.00  0.00    +0.000 N 
ATOM     22  C   UNL     1      49.740   7.313  15.987  0.00  0.00    +0.000 C 
ATOM     23  O   UNL     1      49.130   7.981  16.819  0.00  0.00    +0.000 OA
ATOM     24  H   UNL     1      49.886   6.754  14.010  0.00  0.00    +0.000 HD
BRANCH  22  25
ATOM     25  C   UNL     1      51.011   6.657  16.322  0.00  0.00    +0.000 A 
ATOM     26  C   UNL     1      52.207   7.190  15.858  0.00  0.00    +0.000 A 
ATOM     27  S   UNL     1      53.585   6.333  16.384  0.00  0.00    +0.000 S 
ATOM     28  C   UNL     1      52.629   5.190  17.206  0.00  0.00    +0.000 A 
ATOM     29  N   UNL     1      53.197   4.149  17.872  0.00  0.00    +0.000 NA
ATOM     30  C   UNL     1      52.352   3.342  18.421  0.00  0.00    +0.000 A 
ATOM     31  N   UNL     1      50.989   3.483  18.366  0.00  0.00    +0.000 N 
ATOM     32  C   UNL     1      50.372   4.537  17.736  0.00  0.00    +0.000 A 
ATOM     33  O   UNL     1      49.153   4.668  17.752  0.00  0.00    +0.000 OA
ATOM     34  C   UNL     1      51.278   5.467  17.092  0.00  0.00    +0.000 A 
ATOM     35  H   UNL     1      50.382   2.821  18.826  0.00  0.00    +0.000 HD
ENDBRANCH  22  25
ENDBRANCH  20  21
ENDBRANCH   4  20
TORSDOF 6
ENDMDL
MODEL 7
REMARK VINA RESULT:    -7.147      3.353      8.652
REMARK INTER + INTRA:         -10.680
REMARK INTER:                  -9.579
REMARK INTRA:                  -1.101
REMARK UNBOUND:                -1.026
REMARK  Name = 
REMARK  7 active torsions:
REMARK  status: ('A' for Active; 'I' for Inactive)
REMARK    1  A    between atoms: C_1  and  C_2
REMARK    2  A    between atoms: C_6  and  C_7
REMARK    3  A    between atoms: N_9  and  C_10
REMARK    4  A    between atoms: C_10  and  C_11
REMARK    5  A    between atoms: C_14  and  C_15
REMARK    6  A    between atoms: C_15  and  N_16
REMARK    7  A    between atoms: C_17  and  C_19
REMARK                            x       y       z     vdW  Elec       q    Type
REMARK                         _______ _______ _______ _____ _____    ______ ____
ROOT
ATOM      1  C   UNL     1      49.824   7.806  15.461  0.00  0.00    +0.000 A 
ATOM      2  C   UNL     1      48.532   8.330  15.609  0.00  0.00    +0.000 A 
ATOM      3  C   UNL     1      47.671   8.437  14.510  0.00  0.00    +0.000 A 
ATOM      4  C   UNL     1      48.075   8.002  13.240  0.00  0.00    +0.000 A 
ATOM      5  C   UNL     1      49.366   7.493  13.099  0.00  0.00    +0.000 A 
ATOM      6  F   UNL     1      49.798   7.090  11.895  0.00  0.00    +0.000 F 
ATOM      7  C   UNL     1      50.232   7.386  14.189  0.00  0.00    +0.000 A 
ENDROOT
BRANCH   1   8
ATOM      8  C   UNL     1      50.752   7.687  16.643  0.00  0.00    +0.000 C 
BRANCH   8  11
ATOM      9  C   UNL     1      50.513   5.392  17.502  0.00  0.00    +0.000 C 
ATOM     10  O   UNL     1      49.417   5.609  18.004  0.00  0.00    +0.000 OA
ATOM     11  N   UNL     1      51.245   6.345  16.822  0.00  0.00    +0.000 N 
ATOM     12  H   UNL     1      52.137   6.053  16.434  0.00  0.00    +0.000 HD
BRANCH   9  18
ATOM     13  C   UNL     1      54.528   2.811  18.426  0.00  0.00    +0.000 C 
ATOM     14  C   UNL     1      53.081   2.815  18.032  0.00  0.00    +0.000 A 
ATOM     15  C   UNL     1      52.412   1.622  17.767  0.00  0.00    +0.000 A 
ATOM     16  C   UNL     1      51.068   1.666  17.401  0.00  0.00    +0.000 A 
ATOM     17  C   UNL     1      50.427   2.897  17.310  0.00  0.00    +0.000 A 
ATOM     18  C   UNL     1      51.163   4.041  17.589  0.00  0.00    +0.000 A 
ATOM     19  N   UNL     1      52.479   4.027  17.949  0.00  0.00    +0.000 NA
ENDBRANCH   9  18
ENDBRANCH   8  11
ENDBRANCH   1   8
BRANCH   4  20
ATOM     20  C   UNL     1      47.141   8.089  12.064  0.00  0.00    +0.000 C 
BRANCH  20  21
ATOM     21  N   UNL     1      46.532   6.813  11.774  0.00  0.00    +0.000 N 
ATOM     22  C   UNL     1      45.174   6.672  11.635  0.00  0.00    +0.000 C 
ATOM     23  O   UNL     1      44.409   7.634  11.642  0.00  0.00    +0.000 OA
ATOM     24  H   UNL     1      47.081   5.995  12.020  0.00  0.00    +0.000 HD
BRANCH  22  25
ATOM     25  C   UNL     1      44.680   5.309  11.399  0.00  0.00    +0.000 A 
ATOM     26  C   UNL     1      43.915   4.673  12.368  0.00  0.00    +0.000 A 
ATOM     27  S   UNL     1      43.384   3.119  11.908  0.00  0.00    +0.000 S 
ATOM     28  C   UNL     1      44.202   3.220  10.419  0.00  0.00    +0.000 A 
ATOM     29  N   UNL     1      44.172   2.191   9.531  0.00  0.00    +0.000 NA
ATOM     30  C   UNL     1      44.863   2.391   8.458  0.00  0.00    +0.000 A 
ATOM     31  N   UNL     1      45.580   3.529   8.193  0.00  0.00    +0.000 N 
ATOM     32  C   UNL     1      45.611   4.608   9.044  0.00  0.00    +0.000 A 
ATOM     33  O   UNL     1      46.214   5.635   8.754  0.00  0.00    +0.000 OA
ATOM     34  C   UNL     1      44.859   4.429  10.271  0.00  0.00    +0.000 A 
ATOM     35  H   UNL     1      46.092   3.628   7.329  0.00  0.00    +0.000 HD
ENDBRANCH  22  25
ENDBRANCH  20  21
ENDBRANCH   4  20
TORSDOF 6
ENDMDL
MODEL 8
REMARK VINA RESULT:    -6.757      5.173      7.611
REMARK INTER + INTRA:         -10.153
REMARK INTER:                  -9.106
REMARK INTRA:                  -1.047
REMARK UNBOUND:                -1.026
REMARK  Name = 
REMARK  7 active torsions:
REMARK  status: ('A' for Active; 'I' for Inactive)
REMARK    1  A    between atoms: C_1  and  C_2
REMARK    2  A    between atoms: C_6  and  C_7
REMARK    3  A    between atoms: N_9  and  C_10
REMARK    4  A    between atoms: C_10  and  C_11
REMARK    5  A    between atoms: C_14  and  C_15
REMARK    6  A    between atoms: C_15  and  N_16
REMARK    7  A    between atoms: C_17  and  C_19
REMARK                            x       y       z     vdW  Elec       q    Type
REMARK                         _______ _______ _______ _____ _____    ______ ____
ROOT
ATOM      1  C   UNL     1      50.543   8.936  11.423  0.00  0.00    +0.000 A 
ATOM      2  C   UNL     1      50.073   7.644  11.699  0.00  0.00    +0.000 A 
ATOM      3  C   UNL     1      48.718   7.417  11.975  0.00  0.00    +0.000 A 
ATOM      4  C   UNL     1      47.798   8.475  11.960  0.00  0.00    +0.000 A 
ATOM      5  C   UNL     1      48.276   9.759  11.696  0.00  0.00    +0.000 A 
ATOM      6  F   UNL     1      47.430  10.800  11.699  0.00  0.00    +0.000 F 
ATOM      7  C   UNL     1      49.625   9.994  11.424  0.00  0.00    +0.000 A 
ENDROOT
BRANCH   1   8
ATOM      8  C   UNL     1      51.999   9.184  11.124  0.00  0.00    +0.000 C 
BRANCH   8  11
ATOM      9  C   UNL     1      53.279   7.468   9.906  0.00  0.00    +0.000 C 
ATOM     10  O   UNL     1      53.742   6.975  10.928  0.00  0.00    +0.000 OA
ATOM     11  N   UNL     1      52.424   8.553   9.900  0.00  0.00    +0.000 N 
ATOM     12  H   UNL     1      52.090   8.873   8.996  0.00  0.00    +0.000 HD
BRANCH   9  18
ATOM     13  C   UNL     1      55.154   3.830   7.283  0.00  0.00    +0.000 C 
ATOM     14  C   UNL     1      54.508   5.182   7.302  0.00  0.00    +0.000 A 
ATOM     15  C   UNL     1      54.248   5.864   6.114  0.00  0.00    +0.000 A 
ATOM     16  C   UNL     1      53.648   7.120   6.172  0.00  0.00    +0.000 A 
ATOM     17  C   UNL     1      53.322   7.663   7.410  0.00  0.00    +0.000 A 
ATOM     18  C   UNL     1      53.613   6.922   8.548  0.00  0.00    +0.000 A 
ATOM     19  N   UNL     1      54.199   5.690   8.521  0.00  0.00    +0.000 NA
ENDBRANCH   9  18
ENDBRANCH   8  11
ENDBRANCH   1   8
BRANCH   4  20
ATOM     20  C   UNL     1      46.338   8.228  12.227  0.00  0.00    +0.000 C 
BRANCH  20  21
ATOM     21  N   UNL     1      45.960   6.876  11.893  0.00  0.00    +0.000 N 
ATOM     22  C   UNL     1      44.682   6.555  11.507  0.00  0.00    +0.000 C 
ATOM     23  O   UNL     1      43.817   7.408  11.321  0.00  0.00    +0.000 OA
ATOM     24  H   UNL     1      46.547   6.143  12.279  0.00  0.00    +0.000 HD
BRANCH  22  25
ATOM     25  C   UNL     1      44.415   5.133  11.252  0.00  0.00    +0.000 A 
ATOM     26  C   UNL     1      43.648   4.401  12.149  0.00  0.00    +0.000 A 
ATOM     27  S   UNL     1      43.395   2.784  11.671  0.00  0.00    +0.000 S 
ATOM     28  C   UNL     1      44.347   2.990  10.275  0.00  0.00    +0.000 A 
ATOM     29  N   UNL     1      44.560   1.960   9.413  0.00  0.00    +0.000 NA
ATOM     30  C   UNL     1      45.327   2.249   8.416  0.00  0.00    +0.000 A 
ATOM     31  N   UNL     1      45.900   3.476   8.201  0.00  0.00    +0.000 N 
ATOM     32  C   UNL     1      45.685   4.555   9.026  0.00  0.00    +0.000 A 
ATOM     33  O   UNL     1      46.164   5.656   8.778  0.00  0.00    +0.000 OA
ATOM     34  C   UNL     1      44.838   4.279  10.170  0.00  0.00    +0.000 A 
ATOM     35  H   UNL     1      46.484   3.641   7.395  0.00  0.00    +0.000 HD
ENDBRANCH  22  25
ENDBRANCH  20  21
ENDBRANCH   4  20
TORSDOF 6
ENDMDL
MODEL 9
REMARK VINA RESULT:    -6.734      5.710      7.910
REMARK INTER + INTRA:         -10.121
REMARK INTER:                  -9.218
REMARK INTRA:                  -0.903
REMARK UNBOUND:                -1.026
REMARK  Name = 
REMARK  7 active torsions:
REMARK  status: ('A' for Active; 'I' for Inactive)
REMARK    1  A    between atoms: C_1  and  C_2
REMARK    2  A    between atoms: C_6  and  C_7
REMARK    3  A    between atoms: N_9  and  C_10
REMARK    4  A    between atoms: C_10  and  C_11
REMARK    5  A    between atoms: C_14  and  C_15
REMARK    6  A    between atoms: C_15  and  N_16
REMARK    7  A    between atoms: C_17  and  C_19
REMARK                            x       y       z     vdW  Elec       q    Type
REMARK                         _______ _______ _______ _____ _____    ______ ____
ROOT
ATOM      1  C   UNL     1      49.050   7.086  13.820  0.00  0.00    +0.000 A 
ATOM      2  C   UNL     1      48.971   7.189  12.424  0.00  0.00    +0.000 A 
ATOM      3  C   UNL     1      49.900   7.956  11.708  0.00  0.00    +0.000 A 
ATOM      4  C   UNL     1      50.942   8.619  12.371  0.00  0.00    +0.000 A 
ATOM      5  C   UNL     1      51.006   8.521  13.762  0.00  0.00    +0.000 A 
ATOM      6  F   UNL     1      51.973   9.162  14.433  0.00  0.00    +0.000 F 
ATOM      7  C   UNL     1      50.082   7.762  14.482  0.00  0.00    +0.000 A 
ENDROOT
BRANCH   1   8
ATOM      8  C   UNL     1      48.054   6.260  14.593  0.00  0.00    +0.000 C 
BRANCH   8  11
ATOM      9  C   UNL     1      46.396   4.646  13.750  0.00  0.00    +0.000 C 
ATOM     10  O   UNL     1      46.910   3.695  14.327  0.00  0.00    +0.000 OA
ATOM     11  N   UNL     1      46.886   5.935  13.815  0.00  0.00    +0.000 N 
ATOM     12  H   UNL     1      46.373   6.651  13.307  0.00  0.00    +0.000 HD
BRANCH   9  18
ATOM     13  C   UNL     1      44.322   2.607   9.854  0.00  0.00    +0.000 C 
ATOM     14  C   UNL     1      44.181   3.504  11.047  0.00  0.00    +0.000 A 
ATOM     15  C   UNL     1      42.968   4.132  11.325  0.00  0.00    +0.000 A 
ATOM     16  C   UNL     1      42.876   4.961  12.442  0.00  0.00    +0.000 A 
ATOM     17  C   UNL     1      43.992   5.140  13.251  0.00  0.00    +0.000 A 
ATOM     18  C   UNL     1      45.165   4.481  12.906  0.00  0.00    +0.000 A 
ATOM     19  N   UNL     1      45.283   3.664  11.820  0.00  0.00    +0.000 NA
ENDBRANCH   9  18
ENDBRANCH   8  11
ENDBRANCH   1   8
BRANCH   4  20
ATOM     20  C   UNL     1      51.958   9.419  11.601  0.00  0.00    +0.000 C 
BRANCH  20  21
ATOM     21  N   UNL     1      52.157   8.886  10.275  0.00  0.00    +0.000 N 
ATOM     22  C   UNL     1      53.404   8.548   9.809  0.00  0.00    +0.000 C 
ATOM     23  O   UNL     1      54.403   8.578  10.524  0.00  0.00    +0.000 OA
ATOM     24  H   UNL     1      51.428   9.093   9.600  0.00  0.00    +0.000 HD
BRANCH  22  25
ATOM     25  C   UNL     1      53.474   8.072   8.422  0.00  0.00    +0.000 A 
ATOM     26  C   UNL     1      53.366   8.976   7.374  0.00  0.00    +0.000 A 
ATOM     27  S   UNL     1      53.523   8.259   5.834  0.00  0.00    +0.000 S 
ATOM     28  C   UNL     1      53.687   6.707   6.512  0.00  0.00    +0.000 A 
ATOM     29  N   UNL     1      53.841   5.610   5.724  0.00  0.00    +0.000 NA
ATOM     30  C   UNL     1      53.921   4.495   6.371  0.00  0.00    +0.000 A 
ATOM     31  N   UNL     1      53.862   4.379   7.736  0.00  0.00    +0.000 N 
ATOM     32  C   UNL     1      53.743   5.463   8.574  0.00  0.00    +0.000 A 
ATOM     33  O   UNL     1      53.751   5.333   9.793  0.00  0.00    +0.000 OA
ATOM     34  C   UNL     1      53.638   6.739   7.895  0.00  0.00    +0.000 A 
ATOM     35  H   UNL     1      53.941   3.477   8.183  0.00  0.00    +0.000 HD
ENDBRANCH  22  25
ENDBRANCH  20  21
ENDBRANCH   4  20
TORSDOF 6
ENDMDL
