MODEL 1
REMARK VINA RESULT:    -8.607      0.000      0.000
REMARK INTER + INTRA:         -12.650
REMARK INTER:                 -11.878
REMARK INTRA:                  -0.772
REMARK UNBOUND:                -0.772
REMARK  Name = 
REMARK  7 active torsions:
REMARK  status: ('A' for Active; 'I' for Inactive)
REMARK    1  A    between atoms: N_1  and  C_2
REMARK    2  A    between atoms: C_2  and  C_3
REMARK    3  A    between atoms: C_6  and  C_7
REMARK    4  A    between atoms: C_7  and  C_8
REMARK    5  A    between atoms: C_11  and  C_12
REMARK    6  A    between atoms: C_12  and  N_13
REMARK    7  A    between atoms: C_14  and  C_16
REMARK                            x       y       z     vdW  Elec       q    Type
REMARK                         _______ _______ _______ _____ _____    ______ ____
ROOT
ATOM      1  C   UNL     1      44.750   5.537  10.997  0.00  0.00    +0.000 A 
ATOM      2  C   UNL     1      44.387   6.862  11.202  0.00  0.00    +0.000 A 
ATOM      3  N   UNL     1      45.099   7.714  11.979  0.00  0.00    +0.000 NA
ATOM      4  C   UNL     1      46.212   7.197  12.561  0.00  0.00    +0.000 A 
ATOM      5  C   UNL     1      46.573   5.868  12.363  0.00  0.00    +0.000 A 
ATOM      6  N   UNL     1      45.854   5.013  11.593  0.00  0.00    +0.000 NA
ENDROOT
BRANCH   1   7
ATOM      7  C   UNL     1      43.976   4.661  10.043  0.00  0.00    +0.000 C 
BRANCH   7  11
ATOM      8  C   UNL     1      46.410   2.024   7.730  0.00  0.00    +0.000 A 
ATOM      9  C   UNL     1      46.432   3.379   7.423  0.00  0.00    +0.000 A 
ATOM     10  C   UNL     1      45.649   4.256   8.170  0.00  0.00    +0.000 A 
ATOM     11  C   UNL     1      44.851   3.761   9.207  0.00  0.00    +0.000 A 
ATOM     12  C   UNL     1      44.889   2.388   9.432  0.00  0.00    +0.000 A 
ATOM     13  N   UNL     1      45.648   1.517   8.733  0.00  0.00    +0.000 NA
BRANCH   8  14
ATOM     14  C   UNL     1      47.335   1.065   7.011  0.00  0.00    +0.000 C 
BRANCH  14  15
ATOM     15  N   UNL     1      48.306   1.785   6.182  0.00  0.00    +0.000 NA
ATOM     16  H   UNL     1      47.981   1.777   5.217  0.00  0.00    +0.000 HD
ATOM     17  H   UNL     1      49.167   1.233   6.191  0.00  0.00    +0.000 HD
ENDBRANCH  14  15
ENDBRANCH   8  14
ENDBRANCH   7  11
ENDBRANCH   1   7
BRANCH   4  18
ATOM     18  C   UNL     1      47.077   8.104  13.395  0.00  0.00    +0.000 C 
BRANCH  18  19
ATOM     19  N   UNL     1      47.503   7.467  14.622  0.00  0.00    +0.000 N 
ATOM     20  C   UNL     1      48.745   6.892  14.731  0.00  0.00    +0.000 C 
ATOM     21  O   UNL     1      49.577   6.960  13.831  0.00  0.00    +0.000 OA
ATOM     22  H   UNL     1      46.760   7.158  15.244  0.00  0.00    +0.000 HD
BRANCH  20  23
ATOM     23  C   UNL     1      49.060   6.260  16.015  0.00  0.00    +0.000 A 
ATOM     24  C   UNL     1      50.075   6.773  16.812  0.00  0.00    +0.000 A 
ATOM     25  S   UNL     1      50.284   5.921  18.276  0.00  0.00    +0.000 S 
ATOM     26  C   UNL     1      49.055   4.816  17.873  0.00  0.00    +0.000 A 
ATOM     27  N   UNL     1      48.736   3.785  18.700  0.00  0.00    +0.000 NA
ATOM     28  C   UNL     1      47.798   3.015  18.254  0.00  0.00    +0.000 A 
ATOM     29  N   UNL     1      47.144   3.188  17.062  0.00  0.00    +0.000 N 
ATOM     30  C   UNL     1      47.419   4.225  16.204  0.00  0.00    +0.000 A 
ATOM     31  O   UNL     1      46.793   4.380  15.161  0.00  0.00    +0.000 OA
ATOM     32  C   UNL     1      48.476   5.110  16.652  0.00  0.00    +0.000 A 
ATOM     33  H   UNL     1      46.407   2.561  16.778  0.00  0.00    +0.000 HD
ENDBRANCH  20  23
ENDBRANCH  18  19
ENDBRANCH   4  18
TORSDOF 7
ENDMDL
MODEL 2
REMARK VINA RESULT:    -7.921      1.875      2.245
REMARK INTER + INTRA:         -11.703
REMARK INTER:                 -10.771
REMARK INTRA:                  -0.932
REMARK UNBOUND:                -0.772
REMARK  Name = 
REMARK  7 active torsions:
REMARK  status: ('A' for Active; 'I' for Inactive)
REMARK    1  A    between atoms: N_1  and  C_2
REMARK    2  A    between atoms: C_2  and  C_3
REMARK    3  A    between atoms: C_6  and  C_7
REMARK    4  A    between atoms: C_7  and  C_8
REMARK    5  A    between atoms: C_11  and  C_12
REMARK    6  A    between atoms: C_12  and  N_13
REMARK    7  A    between atoms: C_14  and  C_16
REMARK                            x       y       z     vdW  Elec       q    Type
REMARK                         _______ _______ _______ _____ _____    ______ ____
ROOT
ATOM      1  C   UNL     1      45.142   5.288  11.192  0.00  0.00    +0.000 A 
ATOM      2  C   UNL     1      45.230   6.672  11.107  0.00  0.00    +0.000 A 
ATOM      3  N   UNL     1      46.033   7.413  11.909  0.00  0.00    +0.000 NA
ATOM      4  C   UNL     1      46.764   6.721  12.821  0.00  0.00    +0.000 A 
ATOM      5  C   UNL     1      46.671   5.335  12.911  0.00  0.00    +0.000 A 
ATOM      6  N   UNL     1      45.859   4.595  12.115  0.00  0.00    +0.000 NA
ENDROOT
BRANCH   1   7
ATOM      7  C   UNL     1      44.308   4.504  10.208  0.00  0.00    +0.000 C 
BRANCH   7  11
ATOM      8  C   UNL     1      46.582   2.028   7.577  0.00  0.00    +0.000 A 
ATOM      9  C   UNL     1      46.619   3.404   7.382  0.00  0.00    +0.000 A 
ATOM     10  C   UNL     1      45.888   4.229   8.234  0.00  0.00    +0.000 A 
ATOM     11  C   UNL     1      45.126   3.662   9.262  0.00  0.00    +0.000 A 
ATOM     12  C   UNL     1      45.145   2.275   9.370  0.00  0.00    +0.000 A 
ATOM     13  N   UNL     1      45.854   1.452   8.568  0.00  0.00    +0.000 NA
BRANCH   8  14
ATOM     14  C   UNL     1      47.453   1.116   6.740  0.00  0.00    +0.000 C 
BRANCH  14  15
ATOM     15  N   UNL     1      48.317   1.887   5.840  0.00  0.00    +0.000 NA
ATOM     16  H   UNL     1      48.553   1.307   5.038  0.00  0.00    +0.000 HD
ATOM     17  H   UNL     1      49.196   2.044   6.339  0.00  0.00    +0.000 HD
ENDBRANCH  14  15
ENDBRANCH   8  14
ENDBRANCH   7  11
ENDBRANCH   1   7
BRANCH   4  18
ATOM     18  C   UNL     1      47.715   7.479  13.708  0.00  0.00    +0.000 C 
BRANCH  18  19
ATOM     19  N   UNL     1      47.728   6.957  15.058  0.00  0.00    +0.000 N 
ATOM     20  C   UNL     1      48.900   6.581  15.663  0.00  0.00    +0.000 C 
ATOM     21  O   UNL     1      49.993   6.741  15.128  0.00  0.00    +0.000 OA
ATOM     22  H   UNL     1      46.852   6.562  15.390  0.00  0.00    +0.000 HD
BRANCH  20  23
ATOM     23  C   UNL     1      48.790   6.050  17.025  0.00  0.00    +0.000 A 
ATOM     24  C   UNL     1      49.093   4.719  17.280  0.00  0.00    +0.000 A 
ATOM     25  S   UNL     1      48.926   4.287  18.923  0.00  0.00    +0.000 S 
ATOM     26  C   UNL     1      48.404   5.852  19.339  0.00  0.00    +0.000 A 
ATOM     27  N   UNL     1      48.058   6.163  20.616  0.00  0.00    +0.000 NA
ATOM     28  C   UNL     1      47.662   7.383  20.779  0.00  0.00    +0.000 A 
ATOM     29  N   UNL     1      47.588   8.321  19.782  0.00  0.00    +0.000 N 
ATOM     30  C   UNL     1      47.946   8.058  18.482  0.00  0.00    +0.000 A 
ATOM     31  O   UNL     1      47.908   8.927  17.617  0.00  0.00    +0.000 OA
ATOM     32  C   UNL     1      48.384   6.698  18.245  0.00  0.00    +0.000 A 
ATOM     33  H   UNL     1      47.287   9.264  19.978  0.00  0.00    +0.000 HD
ENDBRANCH  20  23
ENDBRANCH  18  19
ENDBRANCH   4  18
TORSDOF 7
ENDMDL
MODEL 3
REMARK VINA RESULT:    -7.799      2.488      4.353
REMARK INTER + INTRA:         -11.535
REMARK INTER:                 -10.531
REMARK INTRA:                  -1.005
REMARK UNBOUND:                -0.772
REMARK  Name = 
REMARK  7 active torsions:
REMARK  status: ('A' for Active; 'I' for Inactive)
REMARK    1  A    between atoms: N_1  and  C_2
REMARK    2  A    between atoms: C_2  and  C_3
REMARK    3  A    between atoms: C_6  and  C_7
REMARK    4  A    between atoms: C_7  and  C_8
REMARK    5  A    between atoms: C_11  and  C_12
REMARK    6  A    between atoms: C_12  and  N_13
REMARK    7  A    between atoms: C_14  and  C_16
REMARK                            x       y       z     vdW  Elec       q    Type
REMARK                         _______ _______ _______ _____ _____    ______ ____
ROOT
ATOM      1  C   UNL     1      44.809   3.861  11.817  0.00  0.00    +0.000 A 
ATOM      2  C   UNL     1      44.704   5.175  12.256  0.00  0.00    +0.000 A 
ATOM      3  N   UNL     1      45.441   5.676  13.277  0.00  0.00    +0.000 NA
ATOM      4  C   UNL     1      46.307   4.810  13.864  0.00  0.00    +0.000 A 
ATOM      5  C   UNL     1      46.408   3.492  13.430  0.00  0.00    +0.000 A 
ATOM      6  N   UNL     1      45.663   2.989  12.414  0.00  0.00    +0.000 NA
ENDROOT
BRANCH   1   7
ATOM      7  C   UNL     1      44.037   3.385  10.611  0.00  0.00    +0.000 C 
BRANCH   7  11
ATOM      8  C   UNL     1      46.486   2.846   7.155  0.00  0.00    +0.000 A 
ATOM      9  C   UNL     1      46.138   1.723   7.896  0.00  0.00    +0.000 A 
ATOM     10  C   UNL     1      45.335   1.878   9.024  0.00  0.00    +0.000 A 
ATOM     11  C   UNL     1      44.900   3.155   9.395  0.00  0.00    +0.000 A 
ATOM     12  C   UNL     1      45.310   4.218   8.596  0.00  0.00    +0.000 A 
ATOM     13  N   UNL     1      46.075   4.096   7.490  0.00  0.00    +0.000 NA
BRANCH   8  14
ATOM     14  C   UNL     1      47.261   2.696   5.863  0.00  0.00    +0.000 C 
BRANCH  14  15
ATOM     15  N   UNL     1      48.366   1.743   6.016  0.00  0.00    +0.000 NA
ATOM     16  H   UNL     1      49.212   2.160   5.635  0.00  0.00    +0.000 HD
ATOM     17  H   UNL     1      48.151   0.946   5.411  0.00  0.00    +0.000 HD
ENDBRANCH  14  15
ENDBRANCH   8  14
ENDBRANCH   7  11
ENDBRANCH   1   7
BRANCH   4  18
ATOM     18  C   UNL     1      47.193   5.316  14.971  0.00  0.00    +0.000 C 
BRANCH  18  19
ATOM     19  N   UNL     1      47.633   6.674  14.733  0.00  0.00    +0.000 N 
ATOM     20  C   UNL     1      48.896   7.083  15.082  0.00  0.00    +0.000 C 
ATOM     21  O   UNL     1      49.733   6.308  15.534  0.00  0.00    +0.000 OA
ATOM     22  H   UNL     1      46.898   7.370  14.637  0.00  0.00    +0.000 HD
BRANCH  20  23
ATOM     23  C   UNL     1      49.225   8.485  14.810  0.00  0.00    +0.000 A 
ATOM     24  C   UNL     1      49.696   9.300  15.831  0.00  0.00    +0.000 A 
ATOM     25  S   UNL     1      50.045  10.892  15.323  0.00  0.00    +0.000 S 
ATOM     26  C   UNL     1      49.539  10.555  13.733  0.00  0.00    +0.000 A 
ATOM     27  N   UNL     1      49.551  11.515  12.772  0.00  0.00    +0.000 NA
ATOM     28  C   UNL     1      49.121  11.120  11.618  0.00  0.00    +0.000 A 
ATOM     29  N   UNL     1      48.688   9.850  11.338  0.00  0.00    +0.000 N 
ATOM     30  C   UNL     1      48.676   8.843  12.272  0.00  0.00    +0.000 A 
ATOM     31  O   UNL     1      48.321   7.705  11.986  0.00  0.00    +0.000 OA
ATOM     32  C   UNL     1      49.136   9.240  13.588  0.00  0.00    +0.000 A 
ATOM     33  H   UNL     1      48.380   9.599  10.411  0.00  0.00    +0.000 HD
ENDBRANCH  20  23
ENDBRANCH  18  19
ENDBRANCH   4  18
TORSDOF 7
ENDMDL
MODEL 4
REMARK VINA RESULT:    -7.384      3.538      8.266
REMARK INTER + INTRA:         -10.962
REMARK INTER:                 -10.083
REMARK INTRA:                  -0.879
REMARK UNBOUND:                -0.772
REMARK  Name = 
REMARK  7 active torsions:
REMARK  status: ('A' for Active; 'I' for Inactive)
REMARK    1  A    between atoms: N_1  and  C_2
REMARK    2  A    between atoms: C_2  and  C_3
REMARK    3  A    between atoms: C_6  and  C_7
REMARK    4  A    between atoms: C_7  and  C_8
REMARK    5  A    between atoms: C_11  and  C_12
REMARK    6  A    between atoms: C_12  and  N_13
REMARK    7  A    between atoms: C_14  and  C_16
REMARK                            x       y       z     vdW  Elec       q    Type
REMARK                         _______ _______ _______ _____ _____    ______ ____
ROOT
ATOM      1  C   UNL     1      49.393   5.509  17.037  0.00  0.00    +0.000 A 
ATOM      2  C   UNL     1      48.283   5.053  16.336  0.00  0.00    +0.000 A 
ATOM      3  N   UNL     1      47.895   5.569  15.144  0.00  0.00    +0.000 NA
ATOM      4  C   UNL     1      48.663   6.578  14.657  0.00  0.00    +0.000 A 
ATOM      5  C   UNL     1      49.771   7.040  15.361  0.00  0.00    +0.000 A 
ATOM      6  N   UNL     1      50.152   6.529  16.558  0.00  0.00    +0.000 NA
ENDROOT
BRANCH   1   7
ATOM      7  C   UNL     1      49.836   4.831  18.310  0.00  0.00    +0.000 C 
BRANCH   7  11
ATOM      8  C   UNL     1      52.526   1.588  17.621  0.00  0.00    +0.000 A 
ATOM      9  C   UNL     1      53.033   2.757  18.176  0.00  0.00    +0.000 A 
ATOM     10  C   UNL     1      52.170   3.825  18.413  0.00  0.00    +0.000 A 
ATOM     11  C   UNL     1      50.815   3.707  18.084  0.00  0.00    +0.000 A 
ATOM     12  C   UNL     1      50.404   2.500  17.524  0.00  0.00    +0.000 A 
ATOM     13  N   UNL     1      51.215   1.445  17.296  0.00  0.00    +0.000 NA
BRANCH   8  14
ATOM     14  C   UNL     1      53.415   0.374  17.457  0.00  0.00    +0.000 C 
BRANCH  14  15
ATOM     15  N   UNL     1      53.061  -0.677  18.417  0.00  0.00    +0.000 NA
ATOM     16  H   UNL     1      52.295  -0.343  18.998  0.00  0.00    +0.000 HD
ATOM     17  H   UNL     1      53.862  -0.782  19.045  0.00  0.00    +0.000 HD
ENDBRANCH  14  15
ENDBRANCH   8  14
ENDBRANCH   7  11
ENDBRANCH   1   7
BRANCH   4  18
ATOM     18  C   UNL     1      48.318   7.161  13.312  0.00  0.00    +0.000 C 
BRANCH  18  19
ATOM     19  N   UNL     1      47.567   6.231  12.497  0.00  0.00    +0.000 N 
ATOM     20  C   UNL     1      46.464   6.638  11.788  0.00  0.00    +0.000 C 
ATOM     21  O   UNL     1      46.111   7.813  11.746  0.00  0.00    +0.000 OA
ATOM     22  H   UNL     1      47.663   5.249  12.739  0.00  0.00    +0.000 HD
BRANCH  20  23
ATOM     23  C   UNL     1      45.771   5.606  11.012  0.00  0.00    +0.000 A 
ATOM     24  C   UNL     1      45.828   5.624   9.624  0.00  0.00    +0.000 A 
ATOM     25  S   UNL     1      44.980   4.335   8.894  0.00  0.00    +0.000 S 
ATOM     26  C   UNL     1      44.477   3.736  10.405  0.00  0.00    +0.000 A 
ATOM     27  N   UNL     1      43.678   2.641  10.497  0.00  0.00    +0.000 NA
ATOM     28  C   UNL     1      43.360   2.314  11.707  0.00  0.00    +0.000 A 
ATOM     29  N   UNL     1      43.775   2.979  12.832  0.00  0.00    +0.000 N 
ATOM     30  C   UNL     1      44.597   4.077  12.787  0.00  0.00    +0.000 A 
ATOM     31  O   UNL     1      44.986   4.631  13.811  0.00  0.00    +0.000 OA
ATOM     32  C   UNL     1      44.971   4.493  11.451  0.00  0.00    +0.000 A 
ATOM     33  H   UNL     1      43.505   2.662  13.751  0.00  0.00    +0.000 HD
ENDBRANCH  20  23
ENDBRANCH  18  19
ENDBRANCH   4  18
TORSDOF 7
ENDMDL
MODEL 5
REMARK VINA RESULT:    -7.198      1.772      2.293
REMARK INTER + INTRA:         -10.705
REMARK INTER:                  -9.924
REMARK INTRA:                  -0.781
REMARK UNBOUND:                -0.772
REMARK  Name = 
REMARK  7 active torsions:
REMARK  status: ('A' for Active; 'I' for Inactive)
REMARK    1  A    between atoms: N_1  and  C_2
REMARK    2  A    between atoms: C_2  and  C_3
REMARK    3  A    between atoms: C_6  and  C_7
REMARK    4  A    between atoms: C_7  and  C_8
REMARK    5  A    between atoms: C_11  and  C_12
REMARK    6  A    between atoms: C_12  and  N_13
REMARK    7  A    between atoms: C_14  and  C_16
REMARK                            x       y       z     vdW  Elec       q    Type
REMARK                         _______ _______ _______ _____ _____    ______ ____
ROOT
ATOM      1  C   UNL     1      45.221   5.585  11.476  0.00  0.00    +0.000 A 
ATOM      2  C   UNL     1      46.166   5.089  12.366  0.00  0.00    +0.000 A 
ATOM      3  N   UNL     1      46.916   5.883  13.169  0.00  0.00    +0.000 NA
ATOM      4  C   UNL     1      46.692   7.218  13.059  0.00  0.00    +0.000 A 
ATOM      5  C   UNL     1      45.751   7.716  12.164  0.00  0.00    +0.000 A 
ATOM      6  N   UNL     1      45.008   6.922  11.353  0.00  0.00    +0.000 NA
ENDROOT
BRANCH   1   7
ATOM      7  C   UNL     1      44.344   4.651  10.679  0.00  0.00    +0.000 C 
BRANCH   7  11
ATOM      8  C   UNL     1      46.414   2.849   7.409  0.00  0.00    +0.000 A 
ATOM      9  C   UNL     1      45.785   2.017   8.329  0.00  0.00    +0.000 A 
ATOM     10  C   UNL     1      45.100   2.587   9.399  0.00  0.00    +0.000 A 
ATOM     11  C   UNL     1      45.062   3.979   9.536  0.00  0.00    +0.000 A 
ATOM     12  C   UNL     1      45.730   4.726   8.570  0.00  0.00    +0.000 A 
ATOM     13  N   UNL     1      46.390   4.202   7.515  0.00  0.00    +0.000 NA
BRANCH   8  14
ATOM     14  C   UNL     1      47.069   2.263   6.176  0.00  0.00    +0.000 C 
BRANCH  14  15
ATOM     15  N   UNL     1      48.529   2.382   6.244  0.00  0.00    +0.000 NA
ATOM     16  H   UNL     1      48.907   1.531   6.654  0.00  0.00    +0.000 HD
ATOM     17  H   UNL     1      48.732   3.128   6.915  0.00  0.00    +0.000 HD
ENDBRANCH  14  15
ENDBRANCH   8  14
ENDBRANCH   7  11
ENDBRANCH   1   7
BRANCH   4  18
ATOM     18  C   UNL     1      47.455   8.153  13.960  0.00  0.00    +0.000 C 
BRANCH  18  19
ATOM     19  N   UNL     1      48.663   7.544  14.473  0.00  0.00    +0.000 N 
ATOM     20  C   UNL     1      49.090   7.781  15.755  0.00  0.00    +0.000 C 
ATOM     21  O   UNL     1      48.433   8.448  16.550  0.00  0.00    +0.000 OA
ATOM     22  H   UNL     1      49.339   7.242  13.776  0.00  0.00    +0.000 HD
BRANCH  20  23
ATOM     23  C   UNL     1      50.336   7.125  16.160  0.00  0.00    +0.000 A 
ATOM     24  C   UNL     1      51.559   7.722  15.882  0.00  0.00    +0.000 A 
ATOM     25  S   UNL     1      52.896   6.824  16.445  0.00  0.00    +0.000 S 
ATOM     26  C   UNL     1      51.888   5.589  17.040  0.00  0.00    +0.000 A 
ATOM     27  N   UNL     1      52.406   4.480  17.630  0.00  0.00    +0.000 NA
ATOM     28  C   UNL     1      51.522   3.619  18.015  0.00  0.00    +0.000 A 
ATOM     29  N   UNL     1      50.167   3.770  17.869  0.00  0.00    +0.000 N 
ATOM     30  C   UNL     1      49.598   4.882  17.297  0.00  0.00    +0.000 A 
ATOM     31  O   UNL     1      48.381   5.011  17.215  0.00  0.00    +0.000 OA
ATOM     32  C   UNL     1      50.550   5.872  16.836  0.00  0.00    +0.000 A 
ATOM     33  H   UNL     1      49.527   3.068  18.207  0.00  0.00    +0.000 HD
ENDBRANCH  20  23
ENDBRANCH  18  19
ENDBRANCH   4  18
TORSDOF 7
ENDMDL
MODEL 6
REMARK VINA RESULT:    -7.074      3.031      4.248
REMARK INTER + INTRA:         -10.534
REMARK INTER:                  -9.489
REMARK INTRA:                  -1.045
REMARK UNBOUND:                -0.772
REMARK  Name = 
REMARK  7 active torsions:
REMARK  status: ('A' for Active; 'I' for Inactive)
REMARK    1  A    between atoms: N_1  and  C_2
REMARK    2  A    between atoms: C_2  and  C_3
REMARK    3  A    between atoms: C_6  and  C_7
REMARK    4  A    between atoms: C_7  and  C_8
REMARK    5  A    between atoms: C_11  and  C_12
REMARK    6  A    between atoms: C_12  and  N_13
REMARK    7  A    between atoms: C_14  and  C_16
REMARK                            x       y       z     vdW  Elec       q    Type
REMARK                         _______ _______ _______ _____ _____    ______ ____
ROOT
ATOM      1  C   UNL     1      44.713   5.570  11.143  0.00  0.00    +0.000 A 
ATOM      2  C   UNL     1      45.701   5.280  12.076  0.00  0.00    +0.000 A 
ATOM      3  N   UNL     1      46.294   6.225  12.845  0.00  0.00    +0.000 NA
ATOM      4  C   UNL     1      45.867   7.500  12.654  0.00  0.00    +0.000 A 
ATOM      5  C   UNL     1      44.883   7.793  11.715  0.00  0.00    +0.000 A 
ATOM      6  N   UNL     1      44.296   6.847  10.939  0.00  0.00    +0.000 NA
ENDROOT
BRANCH   1   7
ATOM      7  C   UNL     1      44.016   4.467  10.386  0.00  0.00    +0.000 C 
BRANCH   7  11
ATOM      8  C   UNL     1      46.525   2.316   7.684  0.00  0.00    +0.000 A 
ATOM      9  C   UNL     1      46.424   3.694   7.533  0.00  0.00    +0.000 A 
ATOM     10  C   UNL     1      45.615   4.414   8.409  0.00  0.00    +0.000 A 
ATOM     11  C   UNL     1      44.913   3.741   9.416  0.00  0.00    +0.000 A 
ATOM     12  C   UNL     1      45.071   2.360   9.479  0.00  0.00    +0.000 A 
ATOM     13  N   UNL     1      45.859   1.638   8.654  0.00  0.00    +0.000 NA
BRANCH   8  14
ATOM     14  C   UNL     1      47.483   1.523   6.821  0.00  0.00    +0.000 C 
BRANCH  14  15
ATOM     15  N   UNL     1      48.507   2.391   6.229  0.00  0.00    +0.000 NA
ATOM     16  H   UNL     1      49.086   2.768   6.976  0.00  0.00    +0.000 HD
ATOM     17  H   UNL     1      48.015   3.192   5.826  0.00  0.00    +0.000 HD
ENDBRANCH  14  15
ENDBRANCH   8  14
ENDBRANCH   7  11
ENDBRANCH   1   7
BRANCH   4  18
ATOM     18  C   UNL     1      46.448   8.592  13.512  0.00  0.00    +0.000 C 
BRANCH  18  19
ATOM     19  N   UNL     1      47.873   8.741  13.306  0.00  0.00    +0.000 N 
ATOM     20  C   UNL     1      48.775   8.348  14.262  0.00  0.00    +0.000 C 
ATOM     21  O   UNL     1      48.427   7.782  15.295  0.00  0.00    +0.000 OA
ATOM     22  H   UNL     1      48.152   9.439  12.621  0.00  0.00    +0.000 HD
BRANCH  20  23
ATOM     23  C   UNL     1      50.190   8.563  13.952  0.00  0.00    +0.000 A 
ATOM     24  C   UNL     1      51.039   9.105  14.909  0.00  0.00    +0.000 A 
ATOM     25  S   UNL     1      52.652   9.263  14.375  0.00  0.00    +0.000 S 
ATOM     26  C   UNL     1      52.261   8.653  12.835  0.00  0.00    +0.000 A 
ATOM     27  N   UNL     1      53.201   8.550  11.859  0.00  0.00    +0.000 NA
ATOM     28  C   UNL     1      52.755   8.089  10.736  0.00  0.00    +0.000 A 
ATOM     29  N   UNL     1      51.456   7.715  10.505  0.00  0.00    +0.000 N 
ATOM     30  C   UNL     1      50.478   7.784  11.466  0.00  0.00    +0.000 A 
ATOM     31  O   UNL     1      49.332   7.406  11.245  0.00  0.00    +0.000 OA
ATOM     32  C   UNL     1      50.925   8.309  12.740  0.00  0.00    +0.000 A 
ATOM     33  H   UNL     1      51.174   7.346   9.609  0.00  0.00    +0.000 HD
ENDBRANCH  20  23
ENDBRANCH  18  19
ENDBRANCH   4  18
TORSDOF 7
ENDMDL
MODEL 7
REMARK VINA RESULT:    -6.816      3.844      8.547
REMARK INTER + INTRA:         -10.179
REMARK INTER:                  -9.324
REMARK INTRA:                  -0.854
REMARK UNBOUND:                -0.772
REMARK  Name = 
REMARK  7 active torsions:
REMARK  status: ('A' for Active; 'I' for Inactive)
REMARK    1  A    between atoms: N_1  and  C_2
REMARK    2  A    between atoms: C_2  and  C_3
REMARK    3  A    between atoms: C_6  and  C_7
REMARK    4  A    between atoms: C_7  and  C_8
REMARK    5  A    between atoms: C_11  and  C_12
REMARK    6  A    between atoms: C_12  and  N_13
REMARK    7  A    between atoms: C_14  and  C_16
REMARK                            x       y       z     vdW  Elec       q    Type
REMARK                         _______ _______ _______ _____ _____    ______ ____
ROOT
ATOM      1  C   UNL     1      51.015   4.906  17.967  0.00  0.00    +0.000 A 
ATOM      2  C   UNL     1      50.866   3.621  17.460  0.00  0.00    +0.000 A 
ATOM      3  N   UNL     1      49.678   3.126  17.034  0.00  0.00    +0.000 NA
ATOM      4  C   UNL     1      48.616   3.968  17.129  0.00  0.00    +0.000 A 
ATOM      5  C   UNL     1      48.763   5.252  17.643  0.00  0.00    +0.000 A 
ATOM      6  N   UNL     1      49.951   5.743  18.078  0.00  0.00    +0.000 NA
ENDROOT
BRANCH   1   7
ATOM      7  C   UNL     1      52.378   5.439  18.333  0.00  0.00    +0.000 C 
BRANCH   7  11
ATOM      8  C   UNL     1      54.734   6.459  14.922  0.00  0.00    +0.000 A 
ATOM      9  C   UNL     1      55.223   5.493  15.794  0.00  0.00    +0.000 A 
ATOM     10  C   UNL     1      54.466   5.143  16.910  0.00  0.00    +0.000 A 
ATOM     11  C   UNL     1      53.236   5.771  17.138  0.00  0.00    +0.000 A 
ATOM     12  C   UNL     1      52.838   6.732  16.214  0.00  0.00    +0.000 A 
ATOM     13  N   UNL     1      53.543   7.081  15.117  0.00  0.00    +0.000 NA
BRANCH   8  14
ATOM     14  C   UNL     1      55.480   6.778  13.644  0.00  0.00    +0.000 C 
BRANCH  14  15
ATOM     15  N   UNL     1      54.634   6.555  12.466  0.00  0.00    +0.000 NA
ATOM     16  H   UNL     1      53.998   7.344  12.368  0.00  0.00    +0.000 HD
ATOM     17  H   UNL     1      54.045   5.746  12.677  0.00  0.00    +0.000 HD
ENDBRANCH  14  15
ENDBRANCH   8  14
ENDBRANCH   7  11
ENDBRANCH   1   7
BRANCH   4  18
ATOM     18  C   UNL     1      47.277   3.499  16.624  0.00  0.00    +0.000 C 
BRANCH  18  19
ATOM     19  N   UNL     1      46.690   4.439  15.695  0.00  0.00    +0.000 N 
ATOM     20  C   UNL     1      46.748   4.229  14.339  0.00  0.00    +0.000 C 
ATOM     21  O   UNL     1      47.223   3.205  13.857  0.00  0.00    +0.000 OA
ATOM     22  H   UNL     1      46.560   5.386  16.042  0.00  0.00    +0.000 HD
BRANCH  20  23
ATOM     23  C   UNL     1      46.136   5.257  13.493  0.00  0.00    +0.000 A 
ATOM     24  C   UNL     1      46.805   6.450  13.253  0.00  0.00    +0.000 A 
ATOM     25  S   UNL     1      45.949   7.515  12.231  0.00  0.00    +0.000 S 
ATOM     26  C   UNL     1      44.639   6.435  12.110  0.00  0.00    +0.000 A 
ATOM     27  N   UNL     1      43.530   6.751  11.391  0.00  0.00    +0.000 NA
ATOM     28  C   UNL     1      42.609   5.844  11.406  0.00  0.00    +0.000 A 
ATOM     29  N   UNL     1      42.701   4.647  12.069  0.00  0.00    +0.000 N 
ATOM     30  C   UNL     1      43.808   4.278  12.792  0.00  0.00    +0.000 A 
ATOM     31  O   UNL     1      43.881   3.185  13.343  0.00  0.00    +0.000 OA
ATOM     32  C   UNL     1      44.865   5.269  12.818  0.00  0.00    +0.000 A 
ATOM     33  H   UNL     1      41.952   3.972  12.028  0.00  0.00    +0.000 HD
ENDBRANCH  20  23
ENDBRANCH  18  19
ENDBRANCH   4  18
TORSDOF 7
ENDMDL
MODEL 8
REMARK VINA RESULT:    -6.693      3.036      8.877
REMARK INTER + INTRA:         -10.009
REMARK INTER:                  -9.203
REMARK INTRA:                  -0.806
REMARK UNBOUND:                -0.772
REMARK  Name = 
REMARK  7 active torsions:
REMARK  status: ('A' for Active; 'I' for Inactive)
REMARK    1  A    between atoms: N_1  and  C_2
REMARK    2  A    between atoms: C_2  and  C_3
REMARK    3  A    between atoms: C_6  and  C_7
REMARK    4  A    between atoms: C_7  and  C_8
REMARK    5  A    between atoms: C_11  and  C_12
REMARK    6  A    between atoms: C_12  and  N_13
REMARK    7  A    between atoms: C_14  and  C_16
REMARK                            x       y       z     vdW  Elec       q    Type
REMARK                         _______ _______ _______ _____ _____    ______ ____
ROOT
ATOM      1  C   UNL     1      50.164   7.572  15.016  0.00  0.00    +0.000 A 
ATOM      2  C   UNL     1      50.115   8.683  14.183  0.00  0.00    +0.000 A 
ATOM      3  N   UNL     1      49.237   8.801  13.157  0.00  0.00    +0.000 NA
ATOM      4  C   UNL     1      48.387   7.756  12.980  0.00  0.00    +0.000 A 
ATOM      5  C   UNL     1      48.440   6.640  13.810  0.00  0.00    +0.000 A 
ATOM      6  N   UNL     1      49.326   6.519  14.830  0.00  0.00    +0.000 NA
ENDROOT
BRANCH   1   7
ATOM      7  C   UNL     1      51.094   7.537  16.204  0.00  0.00    +0.000 C 
BRANCH   7  11
ATOM      8  C   UNL     1      49.402   5.589  19.606  0.00  0.00    +0.000 A 
ATOM      9  C   UNL     1      50.285   4.871  18.807  0.00  0.00    +0.000 A 
ATOM     10  C   UNL     1      50.851   5.491  17.696  0.00  0.00    +0.000 A 
ATOM     11  C   UNL     1      50.519   6.817  17.398  0.00  0.00    +0.000 A 
ATOM     12  C   UNL     1      49.619   7.449  18.251  0.00  0.00    +0.000 A 
ATOM     13  N   UNL     1      49.065   6.878  19.343  0.00  0.00    +0.000 NA
BRANCH   8  14
ATOM     14  C   UNL     1      48.860   4.979  20.881  0.00  0.00    +0.000 C 
BRANCH  14  15
ATOM     15  N   UNL     1      48.316   3.639  20.639  0.00  0.00    +0.000 NA
ATOM     16  H   UNL     1      48.044   3.569  19.661  0.00  0.00    +0.000 HD
ATOM     17  H   UNL     1      47.448   3.573  21.175  0.00  0.00    +0.000 HD
ENDBRANCH  14  15
ENDBRANCH   8  14
ENDBRANCH   7  11
ENDBRANCH   1   7
BRANCH   4  18
ATOM     18  C   UNL     1      47.352   7.846  11.890  0.00  0.00    +0.000 C 
BRANCH  18  19
ATOM     19  N   UNL     1      46.691   6.578  11.667  0.00  0.00    +0.000 N 
ATOM     20  C   UNL     1      45.326   6.500  11.546  0.00  0.00    +0.000 C 
ATOM     21  O   UNL     1      44.612   7.499  11.540  0.00  0.00    +0.000 OA
ATOM     22  H   UNL     1      47.209   5.750  11.949  0.00  0.00    +0.000 HD
BRANCH  20  23
ATOM     23  C   UNL     1      44.765   5.162  11.340  0.00  0.00    +0.000 A 
ATOM     24  C   UNL     1      44.009   4.563  12.339  0.00  0.00    +0.000 A 
ATOM     25  S   UNL     1      43.423   3.017  11.913  0.00  0.00    +0.000 S 
ATOM     26  C   UNL     1      44.196   3.081  10.398  0.00  0.00    +0.000 A 
ATOM     27  N   UNL     1      44.124   2.041   9.527  0.00  0.00    +0.000 NA
ATOM     28  C   UNL     1      44.775   2.222   8.425  0.00  0.00    +0.000 A 
ATOM     29  N   UNL     1      45.486   3.353   8.114  0.00  0.00    +0.000 N 
ATOM     30  C   UNL     1      45.570   4.435   8.954  0.00  0.00    +0.000 A 
ATOM     31  O   UNL     1      46.179   5.451   8.635  0.00  0.00    +0.000 OA
ATOM     32  C   UNL     1      44.867   4.275  10.211  0.00  0.00    +0.000 A 
ATOM     33  H   UNL     1      45.960   3.440   7.227  0.00  0.00    +0.000 HD
ENDBRANCH  20  23
ENDBRANCH  18  19
ENDBRANCH   4  18
TORSDOF 7
ENDMDL
MODEL 9
REMARK VINA RESULT:    -6.566      3.202      4.550
REMARK INTER + INTRA:          -9.833
REMARK INTER:                  -9.166
REMARK INTRA:                  -0.668
REMARK UNBOUND:                -0.772
REMARK  Name = 
REMARK  7 active torsions:
REMARK  status: ('A' for Active; 'I' for Inactive)
REMARK    1  A    between atoms: N_1  and  C_2
REMARK    2  A    between atoms: C_2  and  C_3
REMARK    3  A    between atoms: C_6  and  C_7
REMARK    4  A    between atoms: C_7  and  C_8
REMARK    5  A    between atoms: C_11  and  C_12
REMARK    6  A    between atoms: C_12  and  N_13
REMARK    7  A    between atoms: C_14  and  C_16
REMARK                            x       y       z     vdW  Elec       q    Type
REMARK                         _______ _______ _______ _____ _____    ______ ____
ROOT
ATOM      1  C   UNL     1      47.911   7.481  13.372  0.00  0.00    +0.000 A 
ATOM      2  C   UNL     1      47.726   8.634  14.126  0.00  0.00    +0.000 A 
ATOM      3  N   UNL     1      48.247   8.800  15.366  0.00  0.00    +0.000 NA
ATOM      4  C   UNL     1      48.976   7.759  15.847  0.00  0.00    +0.000 A 
ATOM      5  C   UNL     1      49.156   6.602  15.096  0.00  0.00    +0.000 A 
ATOM      6  N   UNL     1      48.625   6.433  13.859  0.00  0.00    +0.000 NA
ENDROOT
BRANCH   1   7
ATOM      7  C   UNL     1      47.392   7.391  11.958  0.00  0.00    +0.000 C 
BRANCH   7  11
ATOM      8  C   UNL     1      44.344   4.430  11.550  0.00  0.00    +0.000 A 
ATOM      9  C   UNL     1      44.936   4.928  10.395  0.00  0.00    +0.000 A 
ATOM     10  C   UNL     1      45.936   5.891  10.508  0.00  0.00    +0.000 A 
ATOM     11  C   UNL     1      46.322   6.344  11.775  0.00  0.00    +0.000 A 
ATOM     12  C   UNL     1      45.663   5.793  12.870  0.00  0.00    +0.000 A 
ATOM     13  N   UNL     1      44.701   4.849  12.791  0.00  0.00    +0.000 NA
BRANCH   8  14
ATOM     14  C   UNL     1      43.336   3.304  11.464  0.00  0.00    +0.000 C 
BRANCH  14  15
ATOM     15  N   UNL     1      43.495   2.363  12.578  0.00  0.00    +0.000 NA
ATOM     16  H   UNL     1      44.393   2.535  13.024  0.00  0.00    +0.000 HD
ATOM     17  H   UNL     1      43.562   1.429  12.166  0.00  0.00    +0.000 HD
ENDBRANCH  14  15
ENDBRANCH   8  14
ENDBRANCH   7  11
ENDBRANCH   1   7
BRANCH   4  18
ATOM     18  C   UNL     1      49.627   7.899  17.198  0.00  0.00    +0.000 C 
BRANCH  18  19
ATOM     19  N   UNL     1      50.563   6.827  17.460  0.00  0.00    +0.000 N 
ATOM     20  C   UNL     1      50.298   5.867  18.404  0.00  0.00    +0.000 C 
ATOM     21  O   UNL     1      49.232   5.822  19.009  0.00  0.00    +0.000 OA
ATOM     22  H   UNL     1      51.528   7.005  17.194  0.00  0.00    +0.000 HD
BRANCH  20  23
ATOM     23  C   UNL     1      51.327   4.841  18.597  0.00  0.00    +0.000 A 
ATOM     24  C   UNL     1      52.468   5.130  19.334  0.00  0.00    +0.000 A 
ATOM     25  S   UNL     1      53.541   3.809  19.468  0.00  0.00    +0.000 S 
ATOM     26  C   UNL     1      52.536   2.823  18.512  0.00  0.00    +0.000 A 
ATOM     27  N   UNL     1      52.888   1.547  18.204  0.00  0.00    +0.000 NA
ATOM     28  C   UNL     1      52.038   0.926  17.454  0.00  0.00    +0.000 A 
ATOM     29  N   UNL     1      50.865   1.463  16.991  0.00  0.00    +0.000 N 
ATOM     30  C   UNL     1      50.460   2.741  17.291  0.00  0.00    +0.000 A 
ATOM     31  O   UNL     1      49.386   3.184  16.897  0.00  0.00    +0.000 OA
ATOM     32  C   UNL     1      51.387   3.485  18.119  0.00  0.00    +0.000 A 
ATOM     33  H   UNL     1      50.234   0.919  16.422  0.00  0.00    +0.000 HD
ENDBRANCH  20  23
ENDBRANCH  18  19
ENDBRANCH   4  18
TORSDOF 7
ENDMDL
