MODEL 1
REMARK VINA RESULT:    -7.502      0.000      0.000
REMARK INTER + INTRA:         -12.490
REMARK INTER:                 -11.229
REMARK INTRA:                  -1.261
REMARK UNBOUND:                -1.261
REMARK  Name = 
REMARK  9 active torsions:
REMARK  status: ('A' for Active; 'I' for Inactive)
REMARK    1  A    between atoms: C_2  and  C_21
REMARK    2  A    between atoms: N_3  and  CA_4
REMARK    3  A    between atoms: CA_4  and  C_5
REMARK    4  A    between atoms: CA_4  and  C_7
REMARK    5  A    between atoms: C_5  and  O_6
REMARK    6  A    between atoms: C_10  and  N_11
REMARK    7  A    between atoms: N_11  and  C_12
REMARK    8  A    between atoms: C_12  and  C_13
REMARK    9  A    between atoms: C_13  and  C_14
REMARK                            x       y       z     vdW  Elec       q    Type
REMARK                         _______ _______ _______ _____ _____    ______ ____
ROOT
ATOM      1  CA  UNL     1      48.620   5.670  16.989  0.00  0.00    +0.000 C 
ENDROOT
BRANCH   1   2
ATOM      2  C   UNL     1      49.473   4.411  17.020  0.00  0.00    +0.000 A 
ATOM      3  C   UNL     1      50.777   4.489  17.505  0.00  0.00    +0.000 A 
ATOM      4  C   UNL     1      51.501   3.315  17.699  0.00  0.00    +0.000 A 
ATOM      5  C   UNL     1      50.919   2.075  17.440  0.00  0.00    +0.000 A 
ATOM      6  C   UNL     1      49.643   2.108  16.870  0.00  0.00    +0.000 A 
ATOM      7  N   UNL     1      48.897   3.229  16.681  0.00  0.00    +0.000 NA
BRANCH   5   8
ATOM      8  N   UNL     1      51.581   0.845  17.616  0.00  0.00    +0.000 N 
ATOM      9  H   UNL     1      51.517   0.306  16.751  0.00  0.00    +0.000 HD
BRANCH   8  10
ATOM     10  C   UNL     1      52.972   0.929  18.094  0.00  0.00    +0.000 C 
BRANCH  10  11
ATOM     11  C   UNL     1      53.951   0.704  16.939  0.00  0.00    +0.000 C 
BRANCH  11  12
ATOM     12  C   UNL     1      54.411  -0.715  16.899  0.00  0.00    +0.000 A 
ATOM     13  N   UNL     1      54.738  -1.465  17.932  0.00  0.00    +0.000 NA
ATOM     14  C   UNL     1      55.089  -2.683  17.413  0.00  0.00    +0.000 A 
ATOM     15  C   UNL     1      54.975  -2.678  16.045  0.00  0.00    +0.000 A 
ATOM     16  N   UNL     1      54.544  -1.420  15.727  0.00  0.00    +0.000 N 
ATOM     17  H   UNL     1      54.355  -1.067  14.799  0.00  0.00    +0.000 HD
ENDBRANCH  11  12
ENDBRANCH  10  11
ENDBRANCH   8  10
ENDBRANCH   5   8
ENDBRANCH   1   2
BRANCH   1  20
ATOM     18  O   UNL     1      49.277   6.591  14.385  0.00  0.00    +0.000 OA
ATOM     19  C   UNL     1      48.138   6.192  14.606  0.00  0.00    +0.000 C 
ATOM     20  N   UNL     1      47.756   5.693  15.820  0.00  0.00    +0.000 N 
ATOM     21  H   UNL     1      46.809   5.368  15.966  0.00  0.00    +0.000 HD
BRANCH  19  22
ATOM     22  C   UNL     1      47.110   6.179  13.561  0.00  0.00    +0.000 A 
ATOM     23  C   UNL     1      46.678   7.362  12.979  0.00  0.00    +0.000 A 
ATOM     24  S   UNL     1      45.506   7.130  11.759  0.00  0.00    +0.000 S 
ATOM     25  C   UNL     1      45.517   5.443  11.990  0.00  0.00    +0.000 A 
ATOM     26  N   UNL     1      44.732   4.620  11.239  0.00  0.00    +0.000 NA
ATOM     27  C   UNL     1      44.837   3.369  11.535  0.00  0.00    +0.000 A 
ATOM     28  N   UNL     1      45.645   2.860  12.519  0.00  0.00    +0.000 N 
ATOM     29  C   UNL     1      46.449   3.648  13.297  0.00  0.00    +0.000 A 
ATOM     30  O   UNL     1      47.172   3.157  14.156  0.00  0.00    +0.000 OA
ATOM     31  C   UNL     1      46.392   5.066  12.989  0.00  0.00    +0.000 A 
ATOM     32  H   UNL     1      45.690   1.868  12.702  0.00  0.00    +0.000 HD
ENDBRANCH  19  22
ENDBRANCH   1  20
BRANCH   1  33
ATOM     33  C   UNL     1      47.794   5.768  18.295  0.00  0.00    +0.000 C 
BRANCH  33  34
ATOM     34  O   UNL     1      46.759   4.788  18.422  0.00  0.00    +0.000 OA
ATOM     35  H   UNL     1      45.903   5.226  18.251  0.00  0.00    +0.000 HD
ENDBRANCH  33  34
ENDBRANCH   1  33
TORSDOF 9
ENDMDL
MODEL 2
REMARK VINA RESULT:    -7.337      5.001      8.545
REMARK INTER + INTRA:         -12.244
REMARK INTER:                 -10.961
REMARK INTRA:                  -1.283
REMARK UNBOUND:                -1.261
REMARK  Name = 
REMARK  9 active torsions:
REMARK  status: ('A' for Active; 'I' for Inactive)
REMARK    1  A    between atoms: C_2  and  C_21
REMARK    2  A    between atoms: N_3  and  CA_4
REMARK    3  A    between atoms: CA_4  and  C_5
REMARK    4  A    between atoms: CA_4  and  C_7
REMARK    5  A    between atoms: C_5  and  O_6
REMARK    6  A    between atoms: C_10  and  N_11
REMARK    7  A    between atoms: N_11  and  C_12
REMARK    8  A    between atoms: C_12  and  C_13
REMARK    9  A    between atoms: C_13  and  C_14
REMARK                            x       y       z     vdW  Elec       q    Type
REMARK                         _______ _______ _______ _____ _____    ______ ____
ROOT
ATOM      1  CA  UNL     1      47.925   4.670  15.624  0.00  0.00    +0.000 C 
ENDROOT
BRANCH   1   2
ATOM      2  C   UNL     1      47.074   4.892  14.382  0.00  0.00    +0.000 A 
ATOM      3  C   UNL     1      47.300   6.022  13.600  0.00  0.00    +0.000 A 
ATOM      4  C   UNL     1      46.648   6.141  12.375  0.00  0.00    +0.000 A 
ATOM      5  C   UNL     1      45.803   5.129  11.922  0.00  0.00    +0.000 A 
ATOM      6  C   UNL     1      45.571   4.083  12.820  0.00  0.00    +0.000 A 
ATOM      7  N   UNL     1      46.198   3.920  14.015  0.00  0.00    +0.000 NA
BRANCH   5   8
ATOM      8  N   UNL     1      45.113   5.171  10.696  0.00  0.00    +0.000 N 
ATOM      9  H   UNL     1      45.553   5.865  10.090  0.00  0.00    +0.000 HD
BRANCH   8  10
ATOM     10  C   UNL     1      44.956   3.878  10.005  0.00  0.00    +0.000 C 
BRANCH  10  11
ATOM     11  C   UNL     1      45.037   4.067   8.488  0.00  0.00    +0.000 C 
BRANCH  11  12
ATOM     12  C   UNL     1      46.073   3.171   7.894  0.00  0.00    +0.000 A 
ATOM     13  N   UNL     1      46.177   1.869   8.064  0.00  0.00    +0.000 NA
ATOM     14  C   UNL     1      47.267   1.483   7.329  0.00  0.00    +0.000 A 
ATOM     15  C   UNL     1      47.836   2.563   6.701  0.00  0.00    +0.000 A 
ATOM     16  N   UNL     1      47.069   3.634   7.069  0.00  0.00    +0.000 N 
ATOM     17  H   UNL     1      47.206   4.595   6.786  0.00  0.00    +0.000 HD
ENDBRANCH  11  12
ENDBRANCH  10  11
ENDBRANCH   8  10
ENDBRANCH   5   8
ENDBRANCH   1   2
BRANCH   1  20
ATOM     18  O   UNL     1      49.783   5.595  17.561  0.00  0.00    +0.000 OA
ATOM     19  C   UNL     1      48.663   6.092  17.525  0.00  0.00    +0.000 C 
ATOM     20  N   UNL     1      47.727   5.732  16.596  0.00  0.00    +0.000 N 
ATOM     21  H   UNL     1      46.814   6.168  16.593  0.00  0.00    +0.000 HD
BRANCH  19  22
ATOM     22  C   UNL     1      48.260   7.151  18.457  0.00  0.00    +0.000 A 
ATOM     23  C   UNL     1      48.039   6.868  19.797  0.00  0.00    +0.000 A 
ATOM     24  S   UNL     1      47.616   8.240  20.720  0.00  0.00    +0.000 S 
ATOM     25  C   UNL     1      47.686   9.252  19.352  0.00  0.00    +0.000 A 
ATOM     26  N   UNL     1      47.437  10.589  19.447  0.00  0.00    +0.000 NA
ATOM     27  C   UNL     1      47.514  11.224  18.326  0.00  0.00    +0.000 A 
ATOM     28  N   UNL     1      47.806  10.650  17.116  0.00  0.00    +0.000 N 
ATOM     29  C   UNL     1      48.062   9.313  16.974  0.00  0.00    +0.000 A 
ATOM     30  O   UNL     1      48.335   8.836  15.879  0.00  0.00    +0.000 OA
ATOM     31  C   UNL     1      48.015   8.551  18.209  0.00  0.00    +0.000 A 
ATOM     32  H   UNL     1      47.858  11.200  16.271  0.00  0.00    +0.000 HD
ENDBRANCH  19  22
ENDBRANCH   1  20
BRANCH   1  33
ATOM     33  C   UNL     1      47.597   3.286  16.235  0.00  0.00    +0.000 C 
BRANCH  33  34
ATOM     34  O   UNL     1      46.512   3.288  17.169  0.00  0.00    +0.000 OA
ATOM     35  H   UNL     1      45.961   2.502  16.995  0.00  0.00    +0.000 HD
ENDBRANCH  33  34
ENDBRANCH   1  33
TORSDOF 9
ENDMDL
MODEL 3
REMARK VINA RESULT:    -7.329      4.975      8.464
REMARK INTER + INTRA:         -12.232
REMARK INTER:                 -10.718
REMARK INTRA:                  -1.514
REMARK UNBOUND:                -1.261
REMARK  Name = 
REMARK  9 active torsions:
REMARK  status: ('A' for Active; 'I' for Inactive)
REMARK    1  A    between atoms: C_2  and  C_21
REMARK    2  A    between atoms: N_3  and  CA_4
REMARK    3  A    between atoms: CA_4  and  C_5
REMARK    4  A    between atoms: CA_4  and  C_7
REMARK    5  A    between atoms: C_5  and  O_6
REMARK    6  A    between atoms: C_10  and  N_11
REMARK    7  A    between atoms: N_11  and  C_12
REMARK    8  A    between atoms: C_12  and  C_13
REMARK    9  A    between atoms: C_13  and  C_14
REMARK                            x       y       z     vdW  Elec       q    Type
REMARK                         _______ _______ _______ _____ _____    ______ ____
ROOT
ATOM      1  CA  UNL     1      47.844   4.687  15.065  0.00  0.00    +0.000 C 
ENDROOT
BRANCH   1   2
ATOM      2  C   UNL     1      46.850   4.811  13.920  0.00  0.00    +0.000 A 
ATOM      3  C   UNL     1      46.874   5.954  13.124  0.00  0.00    +0.000 A 
ATOM      4  C   UNL     1      46.089   5.997  11.975  0.00  0.00    +0.000 A 
ATOM      5  C   UNL     1      45.311   4.900  11.608  0.00  0.00    +0.000 A 
ATOM      6  C   UNL     1      45.284   3.841  12.519  0.00  0.00    +0.000 A 
ATOM      7  N   UNL     1      46.047   3.751  13.642  0.00  0.00    +0.000 NA
BRANCH   5   8
ATOM      8  N   UNL     1      44.496   4.863  10.460  0.00  0.00    +0.000 N 
ATOM      9  H   UNL     1      44.555   5.763   9.982  0.00  0.00    +0.000 HD
BRANCH   8  10
ATOM     10  C   UNL     1      44.747   3.745   9.534  0.00  0.00    +0.000 C 
BRANCH  10  11
ATOM     11  C   UNL     1      45.548   4.222   8.320  0.00  0.00    +0.000 C 
BRANCH  11  12
ATOM     12  C   UNL     1      46.383   3.117   7.764  0.00  0.00    +0.000 A 
ATOM     13  N   UNL     1      46.260   1.832   8.025  0.00  0.00    +0.000 NA
ATOM     14  C   UNL     1      47.233   1.207   7.290  0.00  0.00    +0.000 A 
ATOM     15  C   UNL     1      47.959   2.122   6.570  0.00  0.00    +0.000 A 
ATOM     16  N   UNL     1      47.411   3.336   6.880  0.00  0.00    +0.000 N 
ATOM     17  H   UNL     1      47.706   4.236   6.525  0.00  0.00    +0.000 HD
ENDBRANCH  11  12
ENDBRANCH  10  11
ENDBRANCH   8  10
ENDBRANCH   5   8
ENDBRANCH   1   2
BRANCH   1  20
ATOM     18  O   UNL     1      50.047   6.323  15.795  0.00  0.00    +0.000 OA
ATOM     19  C   UNL     1      48.937   6.578  16.252  0.00  0.00    +0.000 C 
ATOM     20  N   UNL     1      47.821   5.865  15.915  0.00  0.00    +0.000 N 
ATOM     21  H   UNL     1      46.920   6.107  16.308  0.00  0.00    +0.000 HD
BRANCH  19  22
ATOM     22  C   UNL     1      48.722   7.705  17.165  0.00  0.00    +0.000 A 
ATOM     23  C   UNL     1      48.982   9.005  16.758  0.00  0.00    +0.000 A 
ATOM     24  S   UNL     1      48.631  10.173  17.953  0.00  0.00    +0.000 S 
ATOM     25  C   UNL     1      48.148   8.976  19.063  0.00  0.00    +0.000 A 
ATOM     26  N   UNL     1      47.707   9.303  20.311  0.00  0.00    +0.000 NA
ATOM     27  C   UNL     1      47.389   8.290  21.044  0.00  0.00    +0.000 A 
ATOM     28  N   UNL     1      47.479   6.979  20.655  0.00  0.00    +0.000 N 
ATOM     29  C   UNL     1      47.917   6.605  19.414  0.00  0.00    +0.000 A 
ATOM     30  O   UNL     1      47.969   5.423  19.093  0.00  0.00    +0.000 OA
ATOM     31  C   UNL     1      48.265   7.706  18.534  0.00  0.00    +0.000 A 
ATOM     32  H   UNL     1      47.210   6.227  21.273  0.00  0.00    +0.000 HD
ENDBRANCH  19  22
ENDBRANCH   1  20
BRANCH   1  33
ATOM     33  C   UNL     1      47.539   3.405  15.878  0.00  0.00    +0.000 C 
BRANCH  33  34
ATOM     34  O   UNL     1      46.599   3.584  16.944  0.00  0.00    +0.000 OA
ATOM     35  H   UNL     1      45.978   4.291  16.685  0.00  0.00    +0.000 HD
ENDBRANCH  33  34
ENDBRANCH   1  33
TORSDOF 9
ENDMDL
MODEL 4
REMARK VINA RESULT:    -7.259      4.601      8.428
REMARK INTER + INTRA:         -12.127
REMARK INTER:                 -11.537
REMARK INTRA:                  -0.590
REMARK UNBOUND:                -1.261
REMARK  Name = 
REMARK  9 active torsions:
REMARK  status: ('A' for Active; 'I' for Inactive)
REMARK    1  A    between atoms: C_2  and  C_21
REMARK    2  A    between atoms: N_3  and  CA_4
REMARK    3  A    between atoms: CA_4  and  C_5
REMARK    4  A    between atoms: CA_4  and  C_7
REMARK    5  A    between atoms: C_5  and  O_6
REMARK    6  A    between atoms: C_10  and  N_11
REMARK    7  A    between atoms: N_11  and  C_12
REMARK    8  A    between atoms: C_12  and  C_13
REMARK    9  A    between atoms: C_13  and  C_14
REMARK                            x       y       z     vdW  Elec       q    Type
REMARK                         _______ _______ _______ _____ _____    ______ ____
ROOT
ATOM      1  CA  UNL     1      46.841   8.188  13.122  0.00  0.00    +0.000 C 
ENDROOT
BRANCH   1   2
ATOM      2  C   UNL     1      46.063   7.110  12.383  0.00  0.00    +0.000 A 
ATOM      3  C   UNL     1      44.833   6.695  12.890  0.00  0.00    +0.000 A 
ATOM      4  C   UNL     1      44.040   5.840  12.130  0.00  0.00    +0.000 A 
ATOM      5  C   UNL     1      44.454   5.427  10.865  0.00  0.00    +0.000 A 
ATOM      6  C   UNL     1      45.741   5.823  10.487  0.00  0.00    +0.000 A 
ATOM      7  N   UNL     1      46.540   6.669  11.190  0.00  0.00    +0.000 NA
BRANCH   5   8
ATOM      8  N   UNL     1      43.708   4.570  10.034  0.00  0.00    +0.000 N 
ATOM      9  H   UNL     1      42.845   5.040   9.761  0.00  0.00    +0.000 HD
BRANCH   8  10
ATOM     10  C   UNL     1      44.422   4.034   8.861  0.00  0.00    +0.000 C 
BRANCH  10  11
ATOM     11  C   UNL     1      44.689   2.537   9.032  0.00  0.00    +0.000 C 
BRANCH  11  12
ATOM     12  C   UNL     1      45.878   2.113   8.238  0.00  0.00    +0.000 A 
ATOM     13  N   UNL     1      46.328   0.883   8.090  0.00  0.00    +0.000 NA
ATOM     14  C   UNL     1      47.428   0.983   7.279  0.00  0.00    +0.000 A 
ATOM     15  C   UNL     1      47.654   2.290   6.927  0.00  0.00    +0.000 A 
ATOM     16  N   UNL     1      46.662   3.002   7.543  0.00  0.00    +0.000 N 
ATOM     17  H   UNL     1      46.526   4.003   7.499  0.00  0.00    +0.000 HD
ENDBRANCH  11  12
ENDBRANCH  10  11
ENDBRANCH   8  10
ENDBRANCH   5   8
ENDBRANCH   1   2
BRANCH   1  20
ATOM     18  O   UNL     1      48.798   6.150  13.399  0.00  0.00    +0.000 OA
ATOM     19  C   UNL     1      48.322   6.661  14.408  0.00  0.00    +0.000 C 
ATOM     20  N   UNL     1      47.409   7.677  14.358  0.00  0.00    +0.000 N 
ATOM     21  H   UNL     1      47.042   8.078  15.211  0.00  0.00    +0.000 HD
BRANCH  19  22
ATOM     22  C   UNL     1      48.739   6.245  15.751  0.00  0.00    +0.000 A 
ATOM     23  C   UNL     1      49.666   6.988  16.467  0.00  0.00    +0.000 A 
ATOM     24  S   UNL     1      49.988   6.357  18.020  0.00  0.00    +0.000 S 
ATOM     25  C   UNL     1      48.921   5.054  17.775  0.00  0.00    +0.000 A 
ATOM     26  N   UNL     1      48.711   4.118  18.743  0.00  0.00    +0.000 NA
ATOM     27  C   UNL     1      47.887   3.183  18.409  0.00  0.00    +0.000 A 
ATOM     28  N   UNL     1      47.259   3.087  17.195  0.00  0.00    +0.000 N 
ATOM     29  C   UNL     1      47.440   4.002  16.194  0.00  0.00    +0.000 A 
ATOM     30  O   UNL     1      46.849   3.894  15.125  0.00  0.00    +0.000 OA
ATOM     31  C   UNL     1      48.338   5.094  16.523  0.00  0.00    +0.000 A 
ATOM     32  H   UNL     1      46.618   2.333  16.992  0.00  0.00    +0.000 HD
ENDBRANCH  19  22
ENDBRANCH   1  20
BRANCH   1  33
ATOM     33  C   UNL     1      47.943   8.758  12.195  0.00  0.00    +0.000 C 
BRANCH  33  34
ATOM     34  O   UNL     1      48.616   9.913  12.708  0.00  0.00    +0.000 OA
ATOM     35  H   UNL     1      49.569   9.711  12.758  0.00  0.00    +0.000 HD
ENDBRANCH  33  34
ENDBRANCH   1  33
TORSDOF 9
ENDMDL
MODEL 5
REMARK VINA RESULT:    -7.245      3.013      8.317
REMARK INTER + INTRA:         -12.106
REMARK INTER:                 -10.883
REMARK INTRA:                  -1.223
REMARK UNBOUND:                -1.261
REMARK  Name = 
REMARK  9 active torsions:
REMARK  status: ('A' for Active; 'I' for Inactive)
REMARK    1  A    between atoms: C_2  and  C_21
REMARK    2  A    between atoms: N_3  and  CA_4
REMARK    3  A    between atoms: CA_4  and  C_5
REMARK    4  A    between atoms: CA_4  and  C_7
REMARK    5  A    between atoms: C_5  and  O_6
REMARK    6  A    between atoms: C_10  and  N_11
REMARK    7  A    between atoms: N_11  and  C_12
REMARK    8  A    between atoms: C_12  and  C_13
REMARK    9  A    between atoms: C_13  and  C_14
REMARK                            x       y       z     vdW  Elec       q    Type
REMARK                         _______ _______ _______ _____ _____    ______ ____
ROOT
ATOM      1  CA  UNL     1      47.733   6.437  15.033  0.00  0.00    +0.000 C 
ENDROOT
BRANCH   1   2
ATOM      2  C   UNL     1      47.053   5.515  14.031  0.00  0.00    +0.000 A 
ATOM      3  C   UNL     1      47.223   4.138  14.155  0.00  0.00    +0.000 A 
ATOM      4  C   UNL     1      46.467   3.286  13.353  0.00  0.00    +0.000 A 
ATOM      5  C   UNL     1      45.531   3.802  12.459  0.00  0.00    +0.000 A 
ATOM      6  C   UNL     1      45.502   5.195  12.343  0.00  0.00    +0.000 A 
ATOM      7  N   UNL     1      46.209   6.061  13.117  0.00  0.00    +0.000 NA
BRANCH   5   8
ATOM      8  N   UNL     1      44.726   3.009  11.619  0.00  0.00    +0.000 N 
ATOM      9  H   UNL     1      43.768   3.017  11.972  0.00  0.00    +0.000 HD
BRANCH   8  10
ATOM     10  C   UNL     1      44.772   3.344  10.185  0.00  0.00    +0.000 C 
BRANCH  10  11
ATOM     11  C   UNL     1      44.647   2.077   9.334  0.00  0.00    +0.000 C 
BRANCH  11  12
ATOM     12  C   UNL     1      45.797   1.953   8.391  0.00  0.00    +0.000 A 
ATOM     13  N   UNL     1      46.435   0.846   8.070  0.00  0.00    +0.000 NA
ATOM     14  C   UNL     1      47.404   1.219   7.177  0.00  0.00    +0.000 A 
ATOM     15  C   UNL     1      47.359   2.572   6.949  0.00  0.00    +0.000 A 
ATOM     16  N   UNL     1      46.333   3.031   7.728  0.00  0.00    +0.000 N 
ATOM     17  H   UNL     1      46.021   3.989   7.805  0.00  0.00    +0.000 HD
ENDBRANCH  11  12
ENDBRANCH  10  11
ENDBRANCH   8  10
ENDBRANCH   5   8
ENDBRANCH   1   2
BRANCH   1  20
ATOM     18  O   UNL     1      48.234   6.043  17.799  0.00  0.00    +0.000 OA
ATOM     19  C   UNL     1      49.077   5.684  16.984  0.00  0.00    +0.000 C 
ATOM     20  N   UNL     1      48.892   5.800  15.634  0.00  0.00    +0.000 N 
ATOM     21  H   UNL     1      49.607   5.488  14.990  0.00  0.00    +0.000 HD
BRANCH  19  22
ATOM     22  C   UNL     1      50.335   5.058  17.402  0.00  0.00    +0.000 A 
ATOM     23  C   UNL     1      51.382   5.828  17.888  0.00  0.00    +0.000 A 
ATOM     24  S   UNL     1      52.742   4.908  18.355  0.00  0.00    +0.000 S 
ATOM     25  C   UNL     1      51.986   3.453  17.896  0.00  0.00    +0.000 A 
ATOM     26  N   UNL     1      52.613   2.252  18.047  0.00  0.00    +0.000 NA
ATOM     27  C   UNL     1      51.923   1.239  17.643  0.00  0.00    +0.000 A 
ATOM     28  N   UNL     1      50.670   1.311  17.093  0.00  0.00    +0.000 N 
ATOM     29  C   UNL     1      50.004   2.494  16.922  0.00  0.00    +0.000 A 
ATOM     30  O   UNL     1      48.877   2.520  16.441  0.00  0.00    +0.000 OA
ATOM     31  C   UNL     1      50.722   3.668  17.384  0.00  0.00    +0.000 A 
ATOM     32  H   UNL     1      50.175   0.481  16.799  0.00  0.00    +0.000 HD
ENDBRANCH  19  22
ENDBRANCH   1  20
BRANCH   1  33
ATOM     33  C   UNL     1      48.124   7.761  14.333  0.00  0.00    +0.000 C 
BRANCH  33  34
ATOM     34  O   UNL     1      47.115   8.776  14.368  0.00  0.00    +0.000 OA
ATOM     35  H   UNL     1      47.281   9.394  13.631  0.00  0.00    +0.000 HD
ENDBRANCH  33  34
ENDBRANCH   1  33
TORSDOF 9
ENDMDL
MODEL 6
REMARK VINA RESULT:    -7.050      4.885      8.693
REMARK INTER + INTRA:         -11.813
REMARK INTER:                 -10.305
REMARK INTRA:                  -1.508
REMARK UNBOUND:                -1.261
REMARK  Name = 
REMARK  9 active torsions:
REMARK  status: ('A' for Active; 'I' for Inactive)
REMARK    1  A    between atoms: C_2  and  C_21
REMARK    2  A    between atoms: N_3  and  CA_4
REMARK    3  A    between atoms: CA_4  and  C_5
REMARK    4  A    between atoms: CA_4  and  C_7
REMARK    5  A    between atoms: C_5  and  O_6
REMARK    6  A    between atoms: C_10  and  N_11
REMARK    7  A    between atoms: N_11  and  C_12
REMARK    8  A    between atoms: C_12  and  C_13
REMARK    9  A    between atoms: C_13  and  C_14
REMARK                            x       y       z     vdW  Elec       q    Type
REMARK                         _______ _______ _______ _____ _____    ______ ____
ROOT
ATOM      1  CA  UNL     1      47.583   8.202  13.289  0.00  0.00    +0.000 C 
ENDROOT
BRANCH   1   2
ATOM      2  C   UNL     1      46.470   7.378  12.659  0.00  0.00    +0.000 A 
ATOM      3  C   UNL     1      45.418   8.034  12.023  0.00  0.00    +0.000 A 
ATOM      4  C   UNL     1      44.492   7.289  11.297  0.00  0.00    +0.000 A 
ATOM      5  C   UNL     1      44.631   5.906  11.182  0.00  0.00    +0.000 A 
ATOM      6  C   UNL     1      45.663   5.334  11.931  0.00  0.00    +0.000 A 
ATOM      7  N   UNL     1      46.597   6.025  12.638  0.00  0.00    +0.000 NA
BRANCH   5   8
ATOM      8  N   UNL     1      43.743   5.084  10.463  0.00  0.00    +0.000 N 
ATOM      9  H   UNL     1      43.282   5.642   9.743  0.00  0.00    +0.000 HD
BRANCH   8  10
ATOM     10  C   UNL     1      44.325   3.854   9.898  0.00  0.00    +0.000 C 
BRANCH  10  11
ATOM     11  C   UNL     1      44.856   4.110   8.486  0.00  0.00    +0.000 C 
BRANCH  11  12
ATOM     12  C   UNL     1      45.774   3.015   8.055  0.00  0.00    +0.000 A 
ATOM     13  N   UNL     1      45.725   1.754   8.433  0.00  0.00    +0.000 NA
ATOM     14  C   UNL     1      46.756   1.129   7.781  0.00  0.00    +0.000 A 
ATOM     15  C   UNL     1      47.443   2.020   6.994  0.00  0.00    +0.000 A 
ATOM     16  N   UNL     1      46.811   3.219   7.177  0.00  0.00    +0.000 N 
ATOM     17  H   UNL     1      47.058   4.099   6.746  0.00  0.00    +0.000 HD
ENDBRANCH  11  12
ENDBRANCH  10  11
ENDBRANCH   8  10
ENDBRANCH   5   8
ENDBRANCH   1   2
BRANCH   1  20
ATOM     18  O   UNL     1      48.914   9.832  15.194  0.00  0.00    +0.000 OA
ATOM     19  C   UNL     1      48.329   8.824  15.577  0.00  0.00    +0.000 C 
ATOM     20  N   UNL     1      47.629   8.012  14.729  0.00  0.00    +0.000 N 
ATOM     21  H   UNL     1      47.154   7.192  15.081  0.00  0.00    +0.000 HD
BRANCH  19  22
ATOM     22  C   UNL     1      48.301   8.442  16.993  0.00  0.00    +0.000 A 
ATOM     23  C   UNL     1      47.933   9.358  17.966  0.00  0.00    +0.000 A 
ATOM     24  S   UNL     1      47.929   8.707  19.545  0.00  0.00    +0.000 S 
ATOM     25  C   UNL     1      48.447   7.186  18.980  0.00  0.00    +0.000 A 
ATOM     26  N   UNL     1      48.636   6.141  19.833  0.00  0.00    +0.000 NA
ATOM     27  C   UNL     1      49.042   5.057  19.264  0.00  0.00    +0.000 A 
ATOM     28  N   UNL     1      49.289   4.919  17.923  0.00  0.00    +0.000 N 
ATOM     29  C   UNL     1      49.114   5.941  17.030  0.00  0.00    +0.000 A 
ATOM     30  O   UNL     1      49.329   5.778  15.834  0.00  0.00    +0.000 OA
ATOM     31  C   UNL     1      48.632   7.181  17.612  0.00  0.00    +0.000 A 
ATOM     32  H   UNL     1      49.602   4.042  17.532  0.00  0.00    +0.000 HD
ENDBRANCH  19  22
ENDBRANCH   1  20
BRANCH   1  33
ATOM     33  C   UNL     1      48.935   7.831  12.633  0.00  0.00    +0.000 C 
BRANCH  33  34
ATOM     34  O   UNL     1      49.437   6.539  12.990  0.00  0.00    +0.000 OA
ATOM     35  H   UNL     1      48.714   5.892  12.883  0.00  0.00    +0.000 HD
ENDBRANCH  33  34
ENDBRANCH   1  33
TORSDOF 9
ENDMDL
MODEL 7
REMARK VINA RESULT:    -6.991      1.654      2.073
REMARK INTER + INTRA:         -11.726
REMARK INTER:                 -10.762
REMARK INTRA:                  -0.964
REMARK UNBOUND:                -1.261
REMARK  Name = 
REMARK  9 active torsions:
REMARK  status: ('A' for Active; 'I' for Inactive)
REMARK    1  A    between atoms: C_2  and  C_21
REMARK    2  A    between atoms: N_3  and  CA_4
REMARK    3  A    between atoms: CA_4  and  C_5
REMARK    4  A    between atoms: CA_4  and  C_7
REMARK    5  A    between atoms: C_5  and  O_6
REMARK    6  A    between atoms: C_10  and  N_11
REMARK    7  A    between atoms: N_11  and  C_12
REMARK    8  A    between atoms: C_12  and  C_13
REMARK    9  A    between atoms: C_13  and  C_14
REMARK                            x       y       z     vdW  Elec       q    Type
REMARK                         _______ _______ _______ _____ _____    ______ ____
ROOT
ATOM      1  CA  UNL     1      48.900   7.112  15.576  0.00  0.00    +0.000 C 
ENDROOT
BRANCH   1   2
ATOM      2  C   UNL     1      49.305   5.897  16.396  0.00  0.00    +0.000 A 
ATOM      3  C   UNL     1      48.349   4.926  16.686  0.00  0.00    +0.000 A 
ATOM      4  C   UNL     1      48.751   3.734  17.283  0.00  0.00    +0.000 A 
ATOM      5  C   UNL     1      50.097   3.500  17.561  0.00  0.00    +0.000 A 
ATOM      6  C   UNL     1      50.963   4.570  17.318  0.00  0.00    +0.000 A 
ATOM      7  N   UNL     1      50.615   5.742  16.722  0.00  0.00    +0.000 NA
BRANCH   5   8
ATOM      8  N   UNL     1      50.583   2.321  18.156  0.00  0.00    +0.000 N 
ATOM      9  H   UNL     1      49.793   1.744  18.445  0.00  0.00    +0.000 HD
BRANCH   8  10
ATOM     10  C   UNL     1      51.547   1.549  17.353  0.00  0.00    +0.000 C 
BRANCH  10  11
ATOM     11  C   UNL     1      52.975   1.789  17.851  0.00  0.00    +0.000 C 
BRANCH  11  12
ATOM     12  C   UNL     1      53.701   0.498  18.031  0.00  0.00    +0.000 A 
ATOM     13  N   UNL     1      54.954   0.250  17.710  0.00  0.00    +0.000 NA
ATOM     14  C   UNL     1      55.177  -1.056  18.060  0.00  0.00    +0.000 A 
ATOM     15  C   UNL     1      54.046  -1.613  18.603  0.00  0.00    +0.000 A 
ATOM     16  N   UNL     1      53.110  -0.615  18.578  0.00  0.00    +0.000 N 
ATOM     17  H   UNL     1      52.155  -0.680  18.903  0.00  0.00    +0.000 HD
ENDBRANCH  11  12
ENDBRANCH  10  11
ENDBRANCH   8  10
ENDBRANCH   5   8
ENDBRANCH   1   2
BRANCH   1  20
ATOM     18  O   UNL     1      48.867   6.125  12.914  0.00  0.00    +0.000 OA
ATOM     19  C   UNL     1      47.803   6.393  13.464  0.00  0.00    +0.000 C 
ATOM     20  N   UNL     1      47.734   6.832  14.757  0.00  0.00    +0.000 N 
ATOM     21  H   UNL     1      46.838   7.039  15.180  0.00  0.00    +0.000 HD
BRANCH  19  22
ATOM     22  C   UNL     1      46.518   6.218  12.781  0.00  0.00    +0.000 A 
ATOM     23  C   UNL     1      45.853   7.304  12.232  0.00  0.00    +0.000 A 
ATOM     24  S   UNL     1      44.395   6.884  11.451  0.00  0.00    +0.000 S 
ATOM     25  C   UNL     1      44.590   5.239  11.845  0.00  0.00    +0.000 A 
ATOM     26  N   UNL     1      43.679   4.304  11.456  0.00  0.00    +0.000 NA
ATOM     27  C   UNL     1      43.953   3.103  11.838  0.00  0.00    +0.000 A 
ATOM     28  N   UNL     1      45.047   2.747  12.584  0.00  0.00    +0.000 N 
ATOM     29  C   UNL     1      45.986   3.651  12.997  0.00  0.00    +0.000 A 
ATOM     30  O   UNL     1      46.962   3.295  13.649  0.00  0.00    +0.000 OA
ATOM     31  C   UNL     1      45.743   5.018  12.572  0.00  0.00    +0.000 A 
ATOM     32  H   UNL     1      45.212   1.786  12.850  0.00  0.00    +0.000 HD
ENDBRANCH  19  22
ENDBRANCH   1  20
BRANCH   1  33
ATOM     33  C   UNL     1      48.644   8.311  16.521  0.00  0.00    +0.000 C 
BRANCH  33  34
ATOM     34  O   UNL     1      47.507   9.110  16.177  0.00  0.00    +0.000 OA
ATOM     35  H   UNL     1      46.887   8.553  15.669  0.00  0.00    +0.000 HD
ENDBRANCH  33  34
ENDBRANCH   1  33
TORSDOF 9
ENDMDL
MODEL 8
REMARK VINA RESULT:    -6.646      3.058      8.833
REMARK INTER + INTRA:         -11.208
REMARK INTER:                  -9.991
REMARK INTRA:                  -1.218
REMARK UNBOUND:                -1.261
REMARK  Name = 
REMARK  9 active torsions:
REMARK  status: ('A' for Active; 'I' for Inactive)
REMARK    1  A    between atoms: C_2  and  C_21
REMARK    2  A    between atoms: N_3  and  CA_4
REMARK    3  A    between atoms: CA_4  and  C_5
REMARK    4  A    between atoms: CA_4  and  C_7
REMARK    5  A    between atoms: C_5  and  O_6
REMARK    6  A    between atoms: C_10  and  N_11
REMARK    7  A    between atoms: N_11  and  C_12
REMARK    8  A    between atoms: C_12  and  C_13
REMARK    9  A    between atoms: C_13  and  C_14
REMARK                            x       y       z     vdW  Elec       q    Type
REMARK                         _______ _______ _______ _____ _____    ______ ____
ROOT
ATOM      1  CA  UNL     1      49.149   6.928  15.941  0.00  0.00    +0.000 C 
ENDROOT
BRANCH   1   2
ATOM      2  C   UNL     1      48.197   6.210  14.997  0.00  0.00    +0.000 A 
ATOM      3  C   UNL     1      47.719   4.949  15.346  0.00  0.00    +0.000 A 
ATOM      4  C   UNL     1      46.718   4.364  14.575  0.00  0.00    +0.000 A 
ATOM      5  C   UNL     1      46.178   5.044  13.483  0.00  0.00    +0.000 A 
ATOM      6  C   UNL     1      46.789   6.259  13.161  0.00  0.00    +0.000 A 
ATOM      7  N   UNL     1      47.755   6.872  13.895  0.00  0.00    +0.000 NA
BRANCH   5   8
ATOM      8  N   UNL     1      45.162   4.525  12.659  0.00  0.00    +0.000 N 
ATOM      9  H   UNL     1      45.130   3.510  12.768  0.00  0.00    +0.000 HD
BRANCH   8  10
ATOM     10  C   UNL     1      43.827   5.125  12.834  0.00  0.00    +0.000 C 
BRANCH  10  11
ATOM     11  C   UNL     1      43.142   5.314  11.478  0.00  0.00    +0.000 C 
BRANCH  11  12
ATOM     12  C   UNL     1      43.706   4.378  10.461  0.00  0.00    +0.000 A 
ATOM     13  N   UNL     1      43.760   3.065  10.546  0.00  0.00    +0.000 NA
ATOM     14  C   UNL     1      44.353   2.640   9.386  0.00  0.00    +0.000 A 
ATOM     15  C   UNL     1      44.665   3.707   8.581  0.00  0.00    +0.000 A 
ATOM     16  N   UNL     1      44.250   4.810   9.276  0.00  0.00    +0.000 N 
ATOM     17  H   UNL     1      44.328   5.772   8.976  0.00  0.00    +0.000 HD
ENDBRANCH  11  12
ENDBRANCH  10  11
ENDBRANCH   8  10
ENDBRANCH   5   8
ENDBRANCH   1   2
BRANCH   1  20
ATOM     18  O   UNL     1      49.274   5.712  18.504  0.00  0.00    +0.000 OA
ATOM     19  C   UNL     1      50.184   5.515  17.706  0.00  0.00    +0.000 C 
ATOM     20  N   UNL     1      50.176   6.029  16.439  0.00  0.00    +0.000 N 
ATOM     21  H   UNL     1      50.943   5.842  15.806  0.00  0.00    +0.000 HD
BRANCH  19  22
ATOM     22  C   UNL     1      51.334   4.669  18.043  0.00  0.00    +0.000 A 
ATOM     23  C   UNL     1      52.461   5.213  18.642  0.00  0.00    +0.000 A 
ATOM     24  S   UNL     1      53.670   4.057  18.986  0.00  0.00    +0.000 S 
ATOM     25  C   UNL     1      52.737   2.798  18.319  0.00  0.00    +0.000 A 
ATOM     26  N   UNL     1      53.190   1.513  18.304  0.00  0.00    +0.000 NA
ATOM     27  C   UNL     1      52.381   0.671  17.756  0.00  0.00    +0.000 A 
ATOM     28  N   UNL     1      51.165   0.992  17.210  0.00  0.00    +0.000 N 
ATOM     29  C   UNL     1      50.671   2.267  17.202  0.00  0.00    +0.000 A 
ATOM     30  O   UNL     1      49.572   2.516  16.720  0.00  0.00    +0.000 OA
ATOM     31  C   UNL     1      51.529   3.255  17.831  0.00  0.00    +0.000 A 
ATOM     32  H   UNL     1      50.571   0.286  16.798  0.00  0.00    +0.000 HD
ENDBRANCH  19  22
ENDBRANCH   1  20
BRANCH   1  33
ATOM     33  C   UNL     1      49.775   8.145  15.218  0.00  0.00    +0.000 C 
BRANCH  33  34
ATOM     34  O   UNL     1      49.409   9.417  15.765  0.00  0.00    +0.000 OA
ATOM     35  H   UNL     1      48.690   9.275  16.410  0.00  0.00    +0.000 HD
ENDBRANCH  33  34
ENDBRANCH   1  33
TORSDOF 9
ENDMDL
MODEL 9
REMARK VINA RESULT:    -6.626      3.997      8.710
REMARK INTER + INTRA:         -11.179
REMARK INTER:                  -9.754
REMARK INTRA:                  -1.424
REMARK UNBOUND:                -1.261
REMARK  Name = 
REMARK  9 active torsions:
REMARK  status: ('A' for Active; 'I' for Inactive)
REMARK    1  A    between atoms: C_2  and  C_21
REMARK    2  A    between atoms: N_3  and  CA_4
REMARK    3  A    between atoms: CA_4  and  C_5
REMARK    4  A    between atoms: CA_4  and  C_7
REMARK    5  A    between atoms: C_5  and  O_6
REMARK    6  A    between atoms: C_10  and  N_11
REMARK    7  A    between atoms: N_11  and  C_12
REMARK    8  A    between atoms: C_12  and  C_13
REMARK    9  A    between atoms: C_13  and  C_14
REMARK                            x       y       z     vdW  Elec       q    Type
REMARK                         _______ _______ _______ _____ _____    ______ ____
ROOT
ATOM      1  CA  UNL     1      48.378   7.706  13.120  0.00  0.00    +0.000 C 
ENDROOT
BRANCH   1   2
ATOM      2  C   UNL     1      47.116   6.870  12.965  0.00  0.00    +0.000 A 
ATOM      3  C   UNL     1      47.133   5.537  13.370  0.00  0.00    +0.000 A 
ATOM      4  C   UNL     1      45.941   4.819  13.394  0.00  0.00    +0.000 A 
ATOM      5  C   UNL     1      44.738   5.433  13.046  0.00  0.00    +0.000 A 
ATOM      6  C   UNL     1      44.840   6.742  12.567  0.00  0.00    +0.000 A 
ATOM      7  N   UNL     1      45.980   7.483  12.543  0.00  0.00    +0.000 NA
BRANCH   5   8
ATOM      8  N   UNL     1      43.492   4.779  13.050  0.00  0.00    +0.000 N 
ATOM      9  H   UNL     1      42.818   5.349  13.563  0.00  0.00    +0.000 HD
BRANCH   8  10
ATOM     10  C   UNL     1      42.969   4.390  11.728  0.00  0.00    +0.000 C 
BRANCH  10  11
ATOM     11  C   UNL     1      43.503   3.014  11.323  0.00  0.00    +0.000 C 
BRANCH  11  12
ATOM     12  C   UNL     1      44.275   3.096  10.049  0.00  0.00    +0.000 A 
ATOM     13  N   UNL     1      44.355   4.135   9.243  0.00  0.00    +0.000 NA
ATOM     14  C   UNL     1      45.172   3.748   8.214  0.00  0.00    +0.000 A 
ATOM     15  C   UNL     1      45.599   2.456   8.394  0.00  0.00    +0.000 A 
ATOM     16  N   UNL     1      45.021   2.049   9.564  0.00  0.00    +0.000 N 
ATOM     17  H   UNL     1      45.121   1.142   9.999  0.00  0.00    +0.000 HD
ENDBRANCH  11  12
ENDBRANCH  10  11
ENDBRANCH   8  10
ENDBRANCH   5   8
ENDBRANCH   1   2
BRANCH   1  20
ATOM     18  O   UNL     1      49.789   8.989  15.222  0.00  0.00    +0.000 OA
ATOM     19  C   UNL     1      49.976   7.794  15.021  0.00  0.00    +0.000 C 
ATOM     20  N   UNL     1      49.304   7.095  14.057  0.00  0.00    +0.000 N 
ATOM     21  H   UNL     1      49.481   6.108  13.923  0.00  0.00    +0.000 HD
BRANCH  19  22
ATOM     22  C   UNL     1      50.911   7.013  15.839  0.00  0.00    +0.000 A 
ATOM     23  C   UNL     1      52.273   7.272  15.800  0.00  0.00    +0.000 A 
ATOM     24  S   UNL     1      53.183   6.281  16.850  0.00  0.00    +0.000 S 
ATOM     25  C   UNL     1      51.788   5.454  17.370  0.00  0.00    +0.000 A 
ATOM     26  N   UNL     1      51.860   4.461  18.301  0.00  0.00    +0.000 NA
ATOM     27  C   UNL     1      50.725   3.917  18.586  0.00  0.00    +0.000 A 
ATOM     28  N   UNL     1      49.524   4.263  18.021  0.00  0.00    +0.000 N 
ATOM     29  C   UNL     1      49.406   5.252  17.083  0.00  0.00    +0.000 A 
ATOM     30  O   UNL     1      48.313   5.546  16.612  0.00  0.00    +0.000 OA
ATOM     31  C   UNL     1      50.650   5.919  16.742  0.00  0.00    +0.000 A 
ATOM     32  H   UNL     1      48.665   3.804  18.289  0.00  0.00    +0.000 HD
ENDBRANCH  19  22
ENDBRANCH   1  20
BRANCH   1  33
ATOM     33  C   UNL     1      49.038   7.907  11.734  0.00  0.00    +0.000 C 
BRANCH  33  34
ATOM     34  O   UNL     1      50.306   7.262  11.577  0.00  0.00    +0.000 OA
ATOM     35  H   UNL     1      50.146   6.345  11.284  0.00  0.00    +0.000 HD
ENDBRANCH  33  34
ENDBRANCH   1  33
TORSDOF 9
ENDMDL
