MODEL 1
REMARK VINA RESULT:    -8.879      0.000      0.000
REMARK INTER + INTRA:         -14.645
REMARK INTER:                 -13.032
REMARK INTRA:                  -1.613
REMARK UNBOUND:                -1.613
REMARK  Name = 
REMARK  9 active torsions:
REMARK  status: ('A' for Active; 'I' for Inactive)
REMARK    1  A    between atoms: C_1  and  O_2
REMARK    2  A    between atoms: O_2  and  C_3
REMARK    3  A    between atoms: C_10  and  C_11
REMARK    4  A    between atoms: N_13  and  C_14
REMARK    5  A    between atoms: C_14  and  C_15
REMARK    6  A    between atoms: C_18  and  N_19
REMARK    7  A    between atoms: N_19  and  C_20
REMARK    8  A    between atoms: C_20  and  C_21
REMARK    9  A    between atoms: C_21  and  C_22
REMARK                            x       y       z     vdW  Elec       q    Type
REMARK                         _______ _______ _______ _____ _____    ______ ____
ROOT
ATOM      1  C   UNL     1      46.225   7.277  12.395  0.00  0.00    +0.000 A 
ATOM      2  C   UNL     1      44.888   7.040  12.733  0.00  0.00    +0.000 A 
ATOM      3  C   UNL     1      44.081   6.220  11.933  0.00  0.00    +0.000 A 
ATOM      4  C   UNL     1      44.586   5.628  10.771  0.00  0.00    +0.000 A 
ATOM      5  C   UNL     1      45.945   5.801  10.485  0.00  0.00    +0.000 A 
ATOM      6  C   UNL     1      46.754   6.628  11.273  0.00  0.00    +0.000 A 
ENDROOT
BRANCH   4   7
ATOM      7  N   UNL     1      43.842   4.791   9.928  0.00  0.00    +0.000 N 
ATOM      8  H   UNL     1      43.022   5.295   9.586  0.00  0.00    +0.000 HD
BRANCH   7   9
ATOM      9  C   UNL     1      44.557   4.103   8.846  0.00  0.00    +0.000 C 
BRANCH   9  10
ATOM     10  C   UNL     1      44.623   2.606   9.143  0.00  0.00    +0.000 C 
BRANCH  10  11
ATOM     11  C   UNL     1      45.754   1.981   8.376  0.00  0.00    +0.000 A 
ATOM     12  N   UNL     1      45.845   0.651   8.378  0.00  0.00    +0.000 NA
ATOM     13  C   UNL     1      46.849   0.172   7.647  0.00  0.00    +0.000 A 
ATOM     14  N   UNL     1      47.717   0.889   6.940  0.00  0.00    +0.000 NA
ATOM     15  C   UNL     1      47.517   2.197   6.991  0.00  0.00    +0.000 A 
ATOM     16  N   UNL     1      48.378   2.999   6.271  0.00  0.00    +0.000 N 
ATOM     17  N   UNL     1      46.569   2.795   7.700  0.00  0.00    +0.000 NA
ATOM     18  H   UNL     1      49.250   2.519   6.105  0.00  0.00    +0.000 HD
ATOM     19  H   UNL     1      48.424   3.922   6.680  0.00  0.00    +0.000 HD
ENDBRANCH  10  11
ENDBRANCH   9  10
ENDBRANCH   7   9
ENDBRANCH   4   7
BRANCH   1  20
ATOM     20  C   UNL     1      47.090   8.170  13.248  0.00  0.00    +0.000 C 
BRANCH  20  23
ATOM     21  C   UNL     1      48.695   6.906  14.626  0.00  0.00    +0.000 C 
ATOM     22  O   UNL     1      49.538   6.931  13.731  0.00  0.00    +0.000 OA
ATOM     23  N   UNL     1      47.474   7.501  14.466  0.00  0.00    +0.000 N 
ATOM     24  H   UNL     1      46.812   7.511  15.229  0.00  0.00    +0.000 HD
BRANCH  21  32
ATOM     25  C   UNL     1      47.237   4.207  16.191  0.00  0.00    +0.000 A 
ATOM     26  N   UNL     1      46.923   3.147  16.963  0.00  0.00    +0.000 NA
ATOM     27  C   UNL     1      47.653   2.929  18.059  0.00  0.00    +0.000 A 
ATOM     28  N   UNL     1      48.672   3.660  18.502  0.00  0.00    +0.000 NA
ATOM     29  C   UNL     1      48.959   4.701  17.701  0.00  0.00    +0.000 A 
ATOM     30  S   UNL     1      50.221   5.757  18.119  0.00  0.00    +0.000 S 
ATOM     31  C   UNL     1      49.977   6.684  16.716  0.00  0.00    +0.000 A 
ATOM     32  C   UNL     1      48.951   6.215  15.903  0.00  0.00    +0.000 A 
ATOM     33  C   UNL     1      48.318   5.049  16.517  0.00  0.00    +0.000 A 
BRANCH  25  35
ATOM     34  C   UNL     1      46.894   3.816  13.895  0.00  0.00    +0.000 C 
ATOM     35  O   UNL     1      46.461   4.470  15.083  0.00  0.00    +0.000 OA
ENDBRANCH  25  35
ENDBRANCH  21  32
ENDBRANCH  20  23
ENDBRANCH   1  20
TORSDOF 8
ENDMDL
MODEL 2
REMARK VINA RESULT:    -7.926      1.627      2.028
REMARK INTER + INTRA:         -13.246
REMARK INTER:                 -12.044
REMARK INTRA:                  -1.202
REMARK UNBOUND:                -1.613
REMARK  Name = 
REMARK  9 active torsions:
REMARK  status: ('A' for Active; 'I' for Inactive)
REMARK    1  A    between atoms: C_1  and  O_2
REMARK    2  A    between atoms: O_2  and  C_3
REMARK    3  A    between atoms: C_10  and  C_11
REMARK    4  A    between atoms: N_13  and  C_14
REMARK    5  A    between atoms: C_14  and  C_15
REMARK    6  A    between atoms: C_18  and  N_19
REMARK    7  A    between atoms: N_19  and  C_20
REMARK    8  A    between atoms: C_20  and  C_21
REMARK    9  A    between atoms: C_21  and  C_22
REMARK                            x       y       z     vdW  Elec       q    Type
REMARK                         _______ _______ _______ _____ _____    ______ ____
ROOT
ATOM      1  C   UNL     1      47.252   6.110  12.818  0.00  0.00    +0.000 A 
ATOM      2  C   UNL     1      46.685   6.630  11.648  0.00  0.00    +0.000 A 
ATOM      3  C   UNL     1      45.652   5.951  10.988  0.00  0.00    +0.000 A 
ATOM      4  C   UNL     1      45.169   4.732  11.474  0.00  0.00    +0.000 A 
ATOM      5  C   UNL     1      45.682   4.260  12.687  0.00  0.00    +0.000 A 
ATOM      6  C   UNL     1      46.721   4.927  13.345  0.00  0.00    +0.000 A 
ENDROOT
BRANCH   4   7
ATOM      7  N   UNL     1      44.136   4.000  10.872  0.00  0.00    +0.000 N 
ATOM      8  H   UNL     1      43.468   4.643  10.444  0.00  0.00    +0.000 HD
BRANCH   7   9
ATOM      9  C   UNL     1      44.512   2.910   9.964  0.00  0.00    +0.000 C 
BRANCH   9  10
ATOM     10  C   UNL     1      44.866   3.481   8.592  0.00  0.00    +0.000 C 
BRANCH  10  11
ATOM     11  C   UNL     1      45.899   2.616   7.928  0.00  0.00    +0.000 A 
ATOM     12  N   UNL     1      46.025   1.359   8.356  0.00  0.00    +0.000 NA
ATOM     13  C   UNL     1      46.934   0.646   7.694  0.00  0.00    +0.000 A 
ATOM     14  N   UNL     1      47.678   1.072   6.679  0.00  0.00    +0.000 NA
ATOM     15  C   UNL     1      47.452   2.327   6.322  0.00  0.00    +0.000 A 
ATOM     16  N   UNL     1      48.186   2.830   5.267  0.00  0.00    +0.000 N 
ATOM     17  N   UNL     1      46.593   3.144   6.916  0.00  0.00    +0.000 NA
ATOM     18  H   UNL     1      49.040   2.305   5.152  0.00  0.00    +0.000 HD
ATOM     19  H   UNL     1      48.262   3.835   5.339  0.00  0.00    +0.000 HD
ENDBRANCH  10  11
ENDBRANCH   9  10
ENDBRANCH   7   9
ENDBRANCH   4   7
BRANCH   1  20
ATOM     20  C   UNL     1      48.372   6.835  13.521  0.00  0.00    +0.000 C 
BRANCH  20  23
ATOM     21  C   UNL     1      48.974   7.523  15.808  0.00  0.00    +0.000 C 
ATOM     22  O   UNL     1      49.889   8.232  15.393  0.00  0.00    +0.000 OA
ATOM     23  N   UNL     1      48.180   6.815  14.949  0.00  0.00    +0.000 N 
ATOM     24  H   UNL     1      47.404   6.275  15.305  0.00  0.00    +0.000 HD
BRANCH  21  32
ATOM     25  C   UNL     1      48.800   4.819  17.934  0.00  0.00    +0.000 A 
ATOM     26  N   UNL     1      48.767   3.971  18.981  0.00  0.00    +0.000 NA
ATOM     27  C   UNL     1      48.584   4.482  20.200  0.00  0.00    +0.000 A 
ATOM     28  N   UNL     1      48.409   5.763  20.514  0.00  0.00    +0.000 NA
ATOM     29  C   UNL     1      48.458   6.577  19.445  0.00  0.00    +0.000 A 
ATOM     30  S   UNL     1      48.237   8.247  19.653  0.00  0.00    +0.000 S 
ATOM     31  C   UNL     1      48.454   8.533  17.992  0.00  0.00    +0.000 A 
ATOM     32  C   UNL     1      48.705   7.384  17.251  0.00  0.00    +0.000 A 
ATOM     33  C   UNL     1      48.668   6.209  18.120  0.00  0.00    +0.000 A 
BRANCH  25  35
ATOM     34  C   UNL     1      47.996   3.287  16.338  0.00  0.00    +0.000 C 
ATOM     35  O   UNL     1      48.942   4.298  16.666  0.00  0.00    +0.000 OA
ENDBRANCH  25  35
ENDBRANCH  21  32
ENDBRANCH  20  23
ENDBRANCH   1  20
TORSDOF 8
ENDMDL
MODEL 3
REMARK VINA RESULT:    -7.719      2.100      2.744
REMARK INTER + INTRA:         -12.941
REMARK INTER:                 -11.792
REMARK INTRA:                  -1.149
REMARK UNBOUND:                -1.613
REMARK  Name = 
REMARK  9 active torsions:
REMARK  status: ('A' for Active; 'I' for Inactive)
REMARK    1  A    between atoms: C_1  and  O_2
REMARK    2  A    between atoms: O_2  and  C_3
REMARK    3  A    between atoms: C_10  and  C_11
REMARK    4  A    between atoms: N_13  and  C_14
REMARK    5  A    between atoms: C_14  and  C_15
REMARK    6  A    between atoms: C_18  and  N_19
REMARK    7  A    between atoms: N_19  and  C_20
REMARK    8  A    between atoms: C_20  and  C_21
REMARK    9  A    between atoms: C_21  and  C_22
REMARK                            x       y       z     vdW  Elec       q    Type
REMARK                         _______ _______ _______ _____ _____    ______ ____
ROOT
ATOM      1  C   UNL     1      46.852   6.440  12.883  0.00  0.00    +0.000 A 
ATOM      2  C   UNL     1      46.591   5.112  13.242  0.00  0.00    +0.000 A 
ATOM      3  C   UNL     1      45.659   4.347  12.528  0.00  0.00    +0.000 A 
ATOM      4  C   UNL     1      44.958   4.892  11.448  0.00  0.00    +0.000 A 
ATOM      5  C   UNL     1      45.284   6.191  11.044  0.00  0.00    +0.000 A 
ATOM      6  C   UNL     1      46.205   6.966  11.759  0.00  0.00    +0.000 A 
ENDROOT
BRANCH   4   7
ATOM      7  N   UNL     1      44.018   4.186  10.684  0.00  0.00    +0.000 N 
ATOM      8  H   UNL     1      43.435   4.844  10.168  0.00  0.00    +0.000 HD
BRANCH   7   9
ATOM      9  C   UNL     1      44.514   3.099   9.830  0.00  0.00    +0.000 C 
BRANCH   9  10
ATOM     10  C   UNL     1      44.952   3.664   8.480  0.00  0.00    +0.000 C 
BRANCH  10  11
ATOM     11  C   UNL     1      45.957   2.748   7.843  0.00  0.00    +0.000 A 
ATOM     12  N   UNL     1      46.038   1.499   8.303  0.00  0.00    +0.000 NA
ATOM     13  C   UNL     1      46.925   0.739   7.664  0.00  0.00    +0.000 A 
ATOM     14  N   UNL     1      47.688   1.113   6.642  0.00  0.00    +0.000 NA
ATOM     15  C   UNL     1      47.506   2.366   6.252  0.00  0.00    +0.000 A 
ATOM     16  N   UNL     1      48.261   2.816   5.189  0.00  0.00    +0.000 N 
ATOM     17  N   UNL     1      46.673   3.227   6.821  0.00  0.00    +0.000 NA
ATOM     18  H   UNL     1      49.097   2.259   5.091  0.00  0.00    +0.000 HD
ATOM     19  H   UNL     1      48.371   3.819   5.235  0.00  0.00    +0.000 HD
ENDBRANCH  10  11
ENDBRANCH   9  10
ENDBRANCH   7   9
ENDBRANCH   4   7
BRANCH   1  20
ATOM     20  C   UNL     1      47.845   7.268  13.659  0.00  0.00    +0.000 C 
BRANCH  20  23
ATOM     21  C   UNL     1      49.048   6.590  15.699  0.00  0.00    +0.000 C 
ATOM     22  O   UNL     1      50.135   6.692  15.135  0.00  0.00    +0.000 OA
ATOM     23  N   UNL     1      47.880   6.865  15.042  0.00  0.00    +0.000 N 
ATOM     24  H   UNL     1      47.000   6.821  15.535  0.00  0.00    +0.000 HD
BRANCH  21  32
ATOM     25  C   UNL     1      47.897   8.081  18.583  0.00  0.00    +0.000 A 
ATOM     26  N   UNL     1      47.437   8.380  19.814  0.00  0.00    +0.000 NA
ATOM     27  C   UNL     1      47.514   7.442  20.760  0.00  0.00    +0.000 A 
ATOM     28  N   UNL     1      48.020   6.218  20.635  0.00  0.00    +0.000 NA
ATOM     29  C   UNL     1      48.459   5.955  19.392  0.00  0.00    +0.000 A 
ATOM     30  S   UNL     1      49.154   4.444  19.052  0.00  0.00    +0.000 S 
ATOM     31  C   UNL     1      49.394   4.866  17.423  0.00  0.00    +0.000 A 
ATOM     32  C   UNL     1      48.949   6.144  17.101  0.00  0.00    +0.000 A 
ATOM     33  C   UNL     1      48.426   6.807  18.294  0.00  0.00    +0.000 A 
BRANCH  25  35
ATOM     34  C   UNL     1      49.036   9.864  17.551  0.00  0.00    +0.000 C 
ATOM     35  O   UNL     1      47.865   9.057  17.610  0.00  0.00    +0.000 OA
ENDBRANCH  25  35
ENDBRANCH  21  32
ENDBRANCH  20  23
ENDBRANCH   1  20
TORSDOF 8
ENDMDL
MODEL 4
REMARK VINA RESULT:    -7.430      2.225      2.941
REMARK INTER + INTRA:         -12.517
REMARK INTER:                 -11.137
REMARK INTRA:                  -1.380
REMARK UNBOUND:                -1.613
REMARK  Name = 
REMARK  9 active torsions:
REMARK  status: ('A' for Active; 'I' for Inactive)
REMARK    1  A    between atoms: C_1  and  O_2
REMARK    2  A    between atoms: O_2  and  C_3
REMARK    3  A    between atoms: C_10  and  C_11
REMARK    4  A    between atoms: N_13  and  C_14
REMARK    5  A    between atoms: C_14  and  C_15
REMARK    6  A    between atoms: C_18  and  N_19
REMARK    7  A    between atoms: N_19  and  C_20
REMARK    8  A    between atoms: C_20  and  C_21
REMARK    9  A    between atoms: C_21  and  C_22
REMARK                            x       y       z     vdW  Elec       q    Type
REMARK                         _______ _______ _______ _____ _____    ______ ____
ROOT
ATOM      1  C   UNL     1      47.884   6.800  14.185  0.00  0.00    +0.000 A 
ATOM      2  C   UNL     1      47.350   5.510  14.291  0.00  0.00    +0.000 A 
ATOM      3  C   UNL     1      46.597   4.958  13.247  0.00  0.00    +0.000 A 
ATOM      4  C   UNL     1      46.349   5.685  12.077  0.00  0.00    +0.000 A 
ATOM      5  C   UNL     1      46.954   6.939  11.944  0.00  0.00    +0.000 A 
ATOM      6  C   UNL     1      47.699   7.501  12.987  0.00  0.00    +0.000 A 
ENDROOT
BRANCH   4   7
ATOM      7  N   UNL     1      45.611   5.196  10.990  0.00  0.00    +0.000 N 
ATOM      8  H   UNL     1      46.208   5.154  10.164  0.00  0.00    +0.000 HD
BRANCH   7   9
ATOM      9  C   UNL     1      44.852   3.954  11.186  0.00  0.00    +0.000 C 
BRANCH   9  10
ATOM     10  C   UNL     1      44.147   3.571   9.886  0.00  0.00    +0.000 C 
BRANCH  10  11
ATOM     11  C   UNL     1      45.162   3.211   8.839  0.00  0.00    +0.000 A 
ATOM     12  N   UNL     1      45.690   4.202   8.119  0.00  0.00    +0.000 NA
ATOM     13  C   UNL     1      46.608   3.808   7.239  0.00  0.00    +0.000 A 
ATOM     14  N   UNL     1      47.025   2.561   7.046  0.00  0.00    +0.000 NA
ATOM     15  C   UNL     1      46.452   1.663   7.832  0.00  0.00    +0.000 A 
ATOM     16  N   UNL     1      46.847   0.349   7.689  0.00  0.00    +0.000 N 
ATOM     17  N   UNL     1      45.510   1.926   8.728  0.00  0.00    +0.000 NA
ATOM     18  H   UNL     1      47.239   0.198   6.771  0.00  0.00    +0.000 HD
ATOM     19  H   UNL     1      46.111  -0.275   7.989  0.00  0.00    +0.000 HD
ENDBRANCH  10  11
ENDBRANCH   9  10
ENDBRANCH   7   9
ENDBRANCH   4   7
BRANCH   1  20
ATOM     20  C   UNL     1      48.685   7.399  15.314  0.00  0.00    +0.000 C 
BRANCH  20  23
ATOM     21  C   UNL     1      49.740   6.234  17.211  0.00  0.00    +0.000 C 
ATOM     22  O   UNL     1      49.070   6.872  18.021  0.00  0.00    +0.000 OA
ATOM     23  N   UNL     1      49.599   6.430  15.865  0.00  0.00    +0.000 N 
ATOM     24  H   UNL     1      50.123   5.864  15.214  0.00  0.00    +0.000 HD
BRANCH  21  32
ATOM     25  C   UNL     1      49.969   2.809  16.930  0.00  0.00    +0.000 A 
ATOM     26  N   UNL     1      50.351   1.517  16.881  0.00  0.00    +0.000 NA
ATOM     27  C   UNL     1      51.539   1.193  17.394  0.00  0.00    +0.000 A 
ATOM     28  N   UNL     1      52.411   2.011  17.978  0.00  0.00    +0.000 NA
ATOM     29  C   UNL     1      51.998   3.290  17.999  0.00  0.00    +0.000 A 
ATOM     30  S   UNL     1      52.976   4.474  18.723  0.00  0.00    +0.000 S 
ATOM     31  C   UNL     1      51.862   5.699  18.338  0.00  0.00    +0.000 A 
ATOM     32  C   UNL     1      50.741   5.246  17.652  0.00  0.00    +0.000 A 
ATOM     33  C   UNL     1      50.808   3.795  17.485  0.00  0.00    +0.000 A 
BRANCH  25  35
ATOM     34  C   UNL     1      47.680   3.079  17.410  0.00  0.00    +0.000 C 
ATOM     35  O   UNL     1      48.724   3.149  16.445  0.00  0.00    +0.000 OA
ENDBRANCH  25  35
ENDBRANCH  21  32
ENDBRANCH  20  23
ENDBRANCH   1  20
TORSDOF 8
ENDMDL
MODEL 5
REMARK VINA RESULT:    -7.418      2.292      3.558
REMARK INTER + INTRA:         -12.499
REMARK INTER:                 -11.384
REMARK INTRA:                  -1.115
REMARK UNBOUND:                -1.613
REMARK  Name = 
REMARK  9 active torsions:
REMARK  status: ('A' for Active; 'I' for Inactive)
REMARK    1  A    between atoms: C_1  and  O_2
REMARK    2  A    between atoms: O_2  and  C_3
REMARK    3  A    between atoms: C_10  and  C_11
REMARK    4  A    between atoms: N_13  and  C_14
REMARK    5  A    between atoms: C_14  and  C_15
REMARK    6  A    between atoms: C_18  and  N_19
REMARK    7  A    between atoms: N_19  and  C_20
REMARK    8  A    between atoms: C_20  and  C_21
REMARK    9  A    between atoms: C_21  and  C_22
REMARK                            x       y       z     vdW  Elec       q    Type
REMARK                         _______ _______ _______ _____ _____    ______ ____
ROOT
ATOM      1  C   UNL     1      46.767   4.459  13.972  0.00  0.00    +0.000 A 
ATOM      2  C   UNL     1      47.161   5.680  13.413  0.00  0.00    +0.000 A 
ATOM      3  C   UNL     1      46.627   6.116  12.192  0.00  0.00    +0.000 A 
ATOM      4  C   UNL     1      45.697   5.337  11.496  0.00  0.00    +0.000 A 
ATOM      5  C   UNL     1      45.246   4.159  12.101  0.00  0.00    +0.000 A 
ATOM      6  C   UNL     1      45.782   3.713  13.314  0.00  0.00    +0.000 A 
ENDROOT
BRANCH   4   7
ATOM      7  N   UNL     1      45.116   5.711  10.276  0.00  0.00    +0.000 N 
ATOM      8  H   UNL     1      45.007   6.725  10.247  0.00  0.00    +0.000 HD
BRANCH   7   9
ATOM      9  C   UNL     1      45.719   5.185   9.046  0.00  0.00    +0.000 C 
BRANCH   9  10
ATOM     10  C   UNL     1      44.906   3.994   8.542  0.00  0.00    +0.000 C 
BRANCH  10  11
ATOM     11  C   UNL     1      45.829   2.900   8.085  0.00  0.00    +0.000 A 
ATOM     12  N   UNL     1      45.550   1.653   8.466  0.00  0.00    +0.000 NA
ATOM     13  C   UNL     1      46.391   0.737   7.991  0.00  0.00    +0.000 A 
ATOM     14  N   UNL     1      47.429   0.963   7.192  0.00  0.00    +0.000 NA
ATOM     15  C   UNL     1      47.596   2.233   6.858  0.00  0.00    +0.000 A 
ATOM     16  N   UNL     1      48.651   2.537   6.022  0.00  0.00    +0.000 N 
ATOM     17  N   UNL     1      46.843   3.238   7.284  0.00  0.00    +0.000 NA
ATOM     18  H   UNL     1      49.359   1.819   6.076  0.00  0.00    +0.000 HD
ATOM     19  H   UNL     1      48.946   3.493   6.160  0.00  0.00    +0.000 HD
ENDBRANCH  10  11
ENDBRANCH   9  10
ENDBRANCH   7   9
ENDBRANCH   4   7
BRANCH   1  20
ATOM     20  C   UNL     1      47.350   3.985  15.279  0.00  0.00    +0.000 C 
BRANCH  20  23
ATOM     21  C   UNL     1      48.465   5.453  16.913  0.00  0.00    +0.000 C 
ATOM     22  O   UNL     1      49.560   4.947  16.675  0.00  0.00    +0.000 OA
ATOM     23  N   UNL     1      47.336   5.040  16.261  0.00  0.00    +0.000 N 
ATOM     24  H   UNL     1      46.454   5.499  16.435  0.00  0.00    +0.000 HD
BRANCH  21  32
ATOM     25  C   UNL     1      48.426   8.893  16.761  0.00  0.00    +0.000 A 
ATOM     26  N   UNL     1      48.281  10.217  16.974  0.00  0.00    +0.000 NA
ATOM     27  C   UNL     1      48.012  10.629  18.214  0.00  0.00    +0.000 A 
ATOM     28  N   UNL     1      47.882   9.871  19.300  0.00  0.00    +0.000 NA
ATOM     29  C   UNL     1      48.024   8.559  19.045  0.00  0.00    +0.000 A 
ATOM     30  S   UNL     1      47.907   7.441  20.318  0.00  0.00    +0.000 S 
ATOM     31  C   UNL     1      48.149   6.135  19.258  0.00  0.00    +0.000 A 
ATOM     32  C   UNL     1      48.312   6.511  17.929  0.00  0.00    +0.000 A 
ATOM     33  C   UNL     1      48.276   7.967  17.812  0.00  0.00    +0.000 A 
BRANCH  25  35
ATOM     34  C   UNL     1      50.147   8.320  15.260  0.00  0.00    +0.000 C 
ATOM     35  O   UNL     1      48.749   8.459  15.493  0.00  0.00    +0.000 OA
ENDBRANCH  25  35
ENDBRANCH  21  32
ENDBRANCH  20  23
ENDBRANCH   1  20
TORSDOF 8
ENDMDL
MODEL 6
REMARK VINA RESULT:    -7.351      1.570      2.236
REMARK INTER + INTRA:         -12.402
REMARK INTER:                 -11.141
REMARK INTRA:                  -1.260
REMARK UNBOUND:                -1.613
REMARK  Name = 
REMARK  9 active torsions:
REMARK  status: ('A' for Active; 'I' for Inactive)
REMARK    1  A    between atoms: C_1  and  O_2
REMARK    2  A    between atoms: O_2  and  C_3
REMARK    3  A    between atoms: C_10  and  C_11
REMARK    4  A    between atoms: N_13  and  C_14
REMARK    5  A    between atoms: C_14  and  C_15
REMARK    6  A    between atoms: C_18  and  N_19
REMARK    7  A    between atoms: N_19  and  C_20
REMARK    8  A    between atoms: C_20  and  C_21
REMARK    9  A    between atoms: C_21  and  C_22
REMARK                            x       y       z     vdW  Elec       q    Type
REMARK                         _______ _______ _______ _____ _____    ______ ____
ROOT
ATOM      1  C   UNL     1      46.610   6.894  12.950  0.00  0.00    +0.000 A 
ATOM      2  C   UNL     1      45.680   7.300  11.985  0.00  0.00    +0.000 A 
ATOM      3  C   UNL     1      44.840   6.369  11.361  0.00  0.00    +0.000 A 
ATOM      4  C   UNL     1      44.917   5.008  11.676  0.00  0.00    +0.000 A 
ATOM      5  C   UNL     1      45.788   4.620  12.699  0.00  0.00    +0.000 A 
ATOM      6  C   UNL     1      46.638   5.544  13.319  0.00  0.00    +0.000 A 
ENDROOT
BRANCH   4   7
ATOM      7  N   UNL     1      44.105   4.021  11.099  0.00  0.00    +0.000 N 
ATOM      8  H   UNL     1      43.292   4.459  10.666  0.00  0.00    +0.000 HD
BRANCH   7   9
ATOM      9  C   UNL     1      44.748   3.047  10.208  0.00  0.00    +0.000 C 
BRANCH   9  10
ATOM     10  C   UNL     1      45.083   3.711   8.874  0.00  0.00    +0.000 C 
BRANCH  10  11
ATOM     11  C   UNL     1      46.032   2.846   8.095  0.00  0.00    +0.000 A 
ATOM     12  N   UNL     1      46.944   3.453   7.335  0.00  0.00    +0.000 NA
ATOM     13  C   UNL     1      47.771   2.621   6.706  0.00  0.00    +0.000 A 
ATOM     14  N   UNL     1      47.763   1.295   6.788  0.00  0.00    +0.000 NA
ATOM     15  C   UNL     1      46.832   0.801   7.590  0.00  0.00    +0.000 A 
ATOM     16  N   UNL     1      46.773  -0.570   7.728  0.00  0.00    +0.000 N 
ATOM     17  N   UNL     1      45.936   1.523   8.251  0.00  0.00    +0.000 NA
ATOM     18  H   UNL     1      47.196  -1.022   6.930  0.00  0.00    +0.000 HD
ATOM     19  H   UNL     1      45.840  -0.859   7.987  0.00  0.00    +0.000 HD
ENDBRANCH  10  11
ENDBRANCH   9  10
ENDBRANCH   7   9
ENDBRANCH   4   7
BRANCH   1  20
ATOM     20  C   UNL     1      47.522   7.895  13.613  0.00  0.00    +0.000 C 
BRANCH  20  23
ATOM     21  C   UNL     1      49.316   7.873  15.300  0.00  0.00    +0.000 C 
ATOM     22  O   UNL     1      49.137   9.062  15.558  0.00  0.00    +0.000 OA
ATOM     23  N   UNL     1      48.556   7.229  14.364  0.00  0.00    +0.000 N 
ATOM     24  H   UNL     1      48.686   6.241  14.199  0.00  0.00    +0.000 HD
BRANCH  21  32
ATOM     25  C   UNL     1      49.315   4.928  17.085  0.00  0.00    +0.000 A 
ATOM     26  N   UNL     1      49.612   3.779  17.725  0.00  0.00    +0.000 NA
ATOM     27  C   UNL     1      50.892   3.526  18.003  0.00  0.00    +0.000 A 
ATOM     28  N   UNL     1      51.939   4.299  17.729  0.00  0.00    +0.000 NA
ATOM     29  C   UNL     1      51.604   5.429  17.083  0.00  0.00    +0.000 A 
ATOM     30  S   UNL     1      52.813   6.547  16.668  0.00  0.00    +0.000 S 
ATOM     31  C   UNL     1      51.678   7.574  15.929  0.00  0.00    +0.000 A 
ATOM     32  C   UNL     1      50.373   7.093  15.970  0.00  0.00    +0.000 A 
ATOM     33  C   UNL     1      50.328   5.827  16.698  0.00  0.00    +0.000 A 
BRANCH  25  35
ATOM     34  C   UNL     1      47.147   4.082  16.726  0.00  0.00    +0.000 C 
ATOM     35  O   UNL     1      47.992   5.222  16.835  0.00  0.00    +0.000 OA
ENDBRANCH  25  35
ENDBRANCH  21  32
ENDBRANCH  20  23
ENDBRANCH   1  20
TORSDOF 8
ENDMDL
MODEL 7
REMARK VINA RESULT:    -7.081      4.157      9.269
REMARK INTER + INTRA:         -12.006
REMARK INTER:                 -10.459
REMARK INTRA:                  -1.547
REMARK UNBOUND:                -1.613
REMARK  Name = 
REMARK  9 active torsions:
REMARK  status: ('A' for Active; 'I' for Inactive)
REMARK    1  A    between atoms: C_1  and  O_2
REMARK    2  A    between atoms: O_2  and  C_3
REMARK    3  A    between atoms: C_10  and  C_11
REMARK    4  A    between atoms: N_13  and  C_14
REMARK    5  A    between atoms: C_14  and  C_15
REMARK    6  A    between atoms: C_18  and  N_19
REMARK    7  A    between atoms: N_19  and  C_20
REMARK    8  A    between atoms: C_20  and  C_21
REMARK    9  A    between atoms: C_21  and  C_22
REMARK                            x       y       z     vdW  Elec       q    Type
REMARK                         _______ _______ _______ _____ _____    ______ ____
ROOT
ATOM      1  C   UNL     1      48.762   3.602  17.131  0.00  0.00    +0.000 A 
ATOM      2  C   UNL     1      49.354   4.857  17.320  0.00  0.00    +0.000 A 
ATOM      3  C   UNL     1      50.723   4.969  17.598  0.00  0.00    +0.000 A 
ATOM      4  C   UNL     1      51.530   3.832  17.706  0.00  0.00    +0.000 A 
ATOM      5  C   UNL     1      50.949   2.588  17.434  0.00  0.00    +0.000 A 
ATOM      6  C   UNL     1      49.581   2.467  17.166  0.00  0.00    +0.000 A 
ENDROOT
BRANCH   4   7
ATOM      7  N   UNL     1      52.905   3.867  17.975  0.00  0.00    +0.000 N 
ATOM      8  H   UNL     1      53.345   4.590  17.405  0.00  0.00    +0.000 HD
BRANCH   7   9
ATOM      9  C   UNL     1      53.323   3.942  19.380  0.00  0.00    +0.000 C 
BRANCH   9  10
ATOM     10  C   UNL     1      54.618   3.157  19.576  0.00  0.00    +0.000 C 
BRANCH  10  11
ATOM     11  C   UNL     1      54.624   1.947  18.685  0.00  0.00    +0.000 A 
ATOM     12  N   UNL     1      55.429   1.962  17.622  0.00  0.00    +0.000 NA
ATOM     13  C   UNL     1      55.405   0.842  16.904  0.00  0.00    +0.000 A 
ATOM     14  N   UNL     1      54.683  -0.243  17.166  0.00  0.00    +0.000 NA
ATOM     15  C   UNL     1      53.940  -0.157  18.259  0.00  0.00    +0.000 A 
ATOM     16  N   UNL     1      53.172  -1.253  18.594  0.00  0.00    +0.000 N 
ATOM     17  N   UNL     1      53.859   0.911  19.042  0.00  0.00    +0.000 NA
ATOM     18  H   UNL     1      52.998  -1.822  17.778  0.00  0.00    +0.000 HD
ATOM     19  H   UNL     1      52.373  -0.969  19.144  0.00  0.00    +0.000 HD
ENDBRANCH  10  11
ENDBRANCH   9  10
ENDBRANCH   7   9
ENDBRANCH   4   7
BRANCH   1  20
ATOM     20  C   UNL     1      47.287   3.481  16.843  0.00  0.00    +0.000 C 
BRANCH  20  23
ATOM     21  C   UNL     1      46.879   4.198  14.522  0.00  0.00    +0.000 C 
ATOM     22  O   UNL     1      47.228   3.103  14.084  0.00  0.00    +0.000 OA
ATOM     23  N   UNL     1      46.872   4.455  15.865  0.00  0.00    +0.000 N 
ATOM     24  H   UNL     1      46.537   5.343  16.209  0.00  0.00    +0.000 HD
BRANCH  21  32
ATOM     25  C   UNL     1      44.046   4.805  12.660  0.00  0.00    +0.000 A 
ATOM     26  N   UNL     1      43.042   5.327  11.927  0.00  0.00    +0.000 NA
ATOM     27  C   UNL     1      43.220   6.532  11.383  0.00  0.00    +0.000 A 
ATOM     28  N   UNL     1      44.306   7.297  11.467  0.00  0.00    +0.000 NA
ATOM     29  C   UNL     1      45.279   6.747  12.213  0.00  0.00    +0.000 A 
ATOM     30  S   UNL     1      46.748   7.574  12.415  0.00  0.00    +0.000 S 
ATOM     31  C   UNL     1      47.362   6.341  13.412  0.00  0.00    +0.000 A 
ATOM     32  C   UNL     1      46.474   5.291  13.620  0.00  0.00    +0.000 A 
ATOM     33  C   UNL     1      45.243   5.520  12.867  0.00  0.00    +0.000 A 
BRANCH  25  35
ATOM     34  C   UNL     1      43.580   2.538  12.226  0.00  0.00    +0.000 C 
ATOM     35  O   UNL     1      43.892   3.541  13.187  0.00  0.00    +0.000 OA
ENDBRANCH  25  35
ENDBRANCH  21  32
ENDBRANCH  20  23
ENDBRANCH   1  20
TORSDOF 8
ENDMDL
MODEL 8
REMARK VINA RESULT:    -6.854      3.335      7.812
REMARK INTER + INTRA:         -11.673
REMARK INTER:                  -9.780
REMARK INTRA:                  -1.893
REMARK UNBOUND:                -1.613
REMARK  Name = 
REMARK  9 active torsions:
REMARK  status: ('A' for Active; 'I' for Inactive)
REMARK    1  A    between atoms: C_1  and  O_2
REMARK    2  A    between atoms: O_2  and  C_3
REMARK    3  A    between atoms: C_10  and  C_11
REMARK    4  A    between atoms: N_13  and  C_14
REMARK    5  A    between atoms: C_14  and  C_15
REMARK    6  A    between atoms: C_18  and  N_19
REMARK    7  A    between atoms: N_19  and  C_20
REMARK    8  A    between atoms: C_20  and  C_21
REMARK    9  A    between atoms: C_21  and  C_22
REMARK                            x       y       z     vdW  Elec       q    Type
REMARK                         _______ _______ _______ _____ _____    ______ ____
ROOT
ATOM      1  C   UNL     1      48.447   7.990  13.482  0.00  0.00    +0.000 A 
ATOM      2  C   UNL     1      48.033   8.943  14.420  0.00  0.00    +0.000 A 
ATOM      3  C   UNL     1      48.234   8.734  15.791  0.00  0.00    +0.000 A 
ATOM      4  C   UNL     1      48.844   7.565  16.257  0.00  0.00    +0.000 A 
ATOM      5  C   UNL     1      49.329   6.656  15.311  0.00  0.00    +0.000 A 
ATOM      6  C   UNL     1      49.122   6.853  13.941  0.00  0.00    +0.000 A 
ENDROOT
BRANCH   4   7
ATOM      7  N   UNL     1      49.084   7.291  17.611  0.00  0.00    +0.000 N 
ATOM      8  H   UNL     1      49.781   7.943  17.972  0.00  0.00    +0.000 HD
BRANCH   7   9
ATOM      9  C   UNL     1      47.921   7.177  18.500  0.00  0.00    +0.000 C 
BRANCH   9  10
ATOM     10  C   UNL     1      48.033   5.903  19.335  0.00  0.00    +0.000 C 
BRANCH  10  11
ATOM     11  C   UNL     1      48.381   4.739  18.451  0.00  0.00    +0.000 A 
ATOM     12  N   UNL     1      47.473   4.347  17.556  0.00  0.00    +0.000 NA
ATOM     13  C   UNL     1      47.869   3.336  16.786  0.00  0.00    +0.000 A 
ATOM     14  N   UNL     1      49.051   2.729  16.833  0.00  0.00    +0.000 NA
ATOM     15  C   UNL     1      49.882   3.218  17.741  0.00  0.00    +0.000 A 
ATOM     16  N   UNL     1      51.131   2.638  17.837  0.00  0.00    +0.000 N 
ATOM     17  N   UNL     1      49.597   4.203  18.581  0.00  0.00    +0.000 NA
ATOM     18  H   UNL     1      51.111   1.700  17.465  0.00  0.00    +0.000 HD
ATOM     19  H   UNL     1      51.508   2.765  18.765  0.00  0.00    +0.000 HD
ENDBRANCH  10  11
ENDBRANCH   9  10
ENDBRANCH   7   9
ENDBRANCH   4   7
BRANCH   1  20
ATOM     20  C   UNL     1      48.219   8.209  12.007  0.00  0.00    +0.000 C 
BRANCH  20  23
ATOM     21  C   UNL     1      46.198   6.968  11.342  0.00  0.00    +0.000 C 
ATOM     22  O   UNL     1      45.466   7.859  11.769  0.00  0.00    +0.000 OA
ATOM     23  N   UNL     1      47.560   7.073  11.415  0.00  0.00    +0.000 N 
ATOM     24  H   UNL     1      48.145   6.352  11.017  0.00  0.00    +0.000 HD
BRANCH  21  32
ATOM     25  C   UNL     1      44.455   4.299  12.645  0.00  0.00    +0.000 A 
ATOM     26  N   UNL     1      43.697   3.205  12.865  0.00  0.00    +0.000 NA
ATOM     27  C   UNL     1      43.381   2.437  11.821  0.00  0.00    +0.000 A 
ATOM     28  N   UNL     1      43.746   2.617  10.554  0.00  0.00    +0.000 NA
ATOM     29  C   UNL     1      44.491   3.722  10.374  0.00  0.00    +0.000 A 
ATOM     30  S   UNL     1      45.063   4.102   8.821  0.00  0.00    +0.000 S 
ATOM     31  C   UNL     1      45.815   5.516   9.391  0.00  0.00    +0.000 A 
ATOM     32  C   UNL     1      45.643   5.735  10.753  0.00  0.00    +0.000 A 
ATOM     33  C   UNL     1      44.883   4.637  11.346  0.00  0.00    +0.000 A 
BRANCH  25  35
ATOM     34  C   UNL     1      46.152   4.837  14.186  0.00  0.00    +0.000 C 
ATOM     35  O   UNL     1      44.827   5.074  13.722  0.00  0.00    +0.000 OA
ENDBRANCH  25  35
ENDBRANCH  21  32
ENDBRANCH  20  23
ENDBRANCH   1  20
TORSDOF 8
ENDMDL
MODEL 9
REMARK VINA RESULT:    -6.672      3.042      4.800
REMARK INTER + INTRA:         -11.406
REMARK INTER:                 -10.020
REMARK INTRA:                  -1.386
REMARK UNBOUND:                -1.613
REMARK  Name = 
REMARK  9 active torsions:
REMARK  status: ('A' for Active; 'I' for Inactive)
REMARK    1  A    between atoms: C_1  and  O_2
REMARK    2  A    between atoms: O_2  and  C_3
REMARK    3  A    between atoms: C_10  and  C_11
REMARK    4  A    between atoms: N_13  and  C_14
REMARK    5  A    between atoms: C_14  and  C_15
REMARK    6  A    between atoms: C_18  and  N_19
REMARK    7  A    between atoms: N_19  and  C_20
REMARK    8  A    between atoms: C_20  and  C_21
REMARK    9  A    between atoms: C_21  and  C_22
REMARK                            x       y       z     vdW  Elec       q    Type
REMARK                         _______ _______ _______ _____ _____    ______ ____
ROOT
ATOM      1  C   UNL     1      49.992   7.315  15.015  0.00  0.00    +0.000 A 
ATOM      2  C   UNL     1      50.091   7.734  13.683  0.00  0.00    +0.000 A 
ATOM      3  C   UNL     1      49.104   7.394  12.749  0.00  0.00    +0.000 A 
ATOM      4  C   UNL     1      48.000   6.618  13.120  0.00  0.00    +0.000 A 
ATOM      5  C   UNL     1      47.865   6.274  14.469  0.00  0.00    +0.000 A 
ATOM      6  C   UNL     1      48.853   6.601  15.406  0.00  0.00    +0.000 A 
ENDROOT
BRANCH   4   7
ATOM      7  N   UNL     1      46.971   6.246  12.244  0.00  0.00    +0.000 N 
ATOM      8  H   UNL     1      46.761   5.255  12.367  0.00  0.00    +0.000 HD
BRANCH   7   9
ATOM      9  C   UNL     1      45.757   7.071  12.229  0.00  0.00    +0.000 C 
BRANCH   9  10
ATOM     10  C   UNL     1      44.601   6.298  12.862  0.00  0.00    +0.000 C 
BRANCH  10  11
ATOM     11  C   UNL     1      44.284   5.084  12.036  0.00  0.00    +0.000 A 
ATOM     12  N   UNL     1      43.870   3.989  12.675  0.00  0.00    +0.000 NA
ATOM     13  C   UNL     1      43.575   2.968  11.874  0.00  0.00    +0.000 A 
ATOM     14  N   UNL     1      43.645   2.967  10.546  0.00  0.00    +0.000 NA
ATOM     15  C   UNL     1      44.043   4.114  10.017  0.00  0.00    +0.000 A 
ATOM     16  N   UNL     1      44.130   4.183   8.642  0.00  0.00    +0.000 N 
ATOM     17  N   UNL     1      44.389   5.191  10.709  0.00  0.00    +0.000 NA
ATOM     18  H   UNL     1      44.234   3.259   8.250  0.00  0.00    +0.000 HD
ATOM     19  H   UNL     1      44.803   4.885   8.366  0.00  0.00    +0.000 HD
ENDBRANCH  10  11
ENDBRANCH   9  10
ENDBRANCH   7   9
ENDBRANCH   4   7
BRANCH   1  20
ATOM     20  C   UNL     1      51.061   7.671  16.017  0.00  0.00    +0.000 C 
BRANCH  20  23
ATOM     21  C   UNL     1      51.436   5.958  17.748  0.00  0.00    +0.000 C 
ATOM     22  O   UNL     1      50.597   6.469  18.487  0.00  0.00    +0.000 OA
ATOM     23  N   UNL     1      51.712   6.486  16.517  0.00  0.00    +0.000 N 
ATOM     24  H   UNL     1      52.370   6.025  15.904  0.00  0.00    +0.000 HD
BRANCH  21  32
ATOM     25  C   UNL     1      50.952   2.572  17.343  0.00  0.00    +0.000 A 
ATOM     26  N   UNL     1      51.058   1.231  17.251  0.00  0.00    +0.000 NA
ATOM     27  C   UNL     1      52.143   0.648  17.764  0.00  0.00    +0.000 A 
ATOM     28  N   UNL     1      53.155   1.247  18.388  0.00  0.00    +0.000 NA
ATOM     29  C   UNL     1      53.017   2.582  18.451  0.00  0.00    +0.000 A 
ATOM     30  S   UNL     1      54.207   3.511  19.228  0.00  0.00    +0.000 S 
ATOM     31  C   UNL     1      53.380   4.954  18.878  0.00  0.00    +0.000 A 
ATOM     32  C   UNL     1      52.202   4.768  18.163  0.00  0.00    +0.000 A 
ATOM     33  C   UNL     1      51.968   3.342  17.944  0.00  0.00    +0.000 A 
BRANCH  25  35
ATOM     34  C   UNL     1      48.749   3.266  17.798  0.00  0.00    +0.000 C 
ATOM     35  O   UNL     1      49.815   3.180  16.858  0.00  0.00    +0.000 OA
ENDBRANCH  25  35
ENDBRANCH  21  32
ENDBRANCH  20  23
ENDBRANCH   1  20
TORSDOF 8
ENDMDL
