MODEL 1
REMARK VINA RESULT:    -8.491      0.000      0.000
REMARK INTER + INTRA:         -12.748
REMARK INTER:                 -11.718
REMARK INTRA:                  -1.030
REMARK UNBOUND:                -1.030
REMARK  Name = 
REMARK  7 active torsions:
REMARK  status: ('A' for Active; 'I' for Inactive)
REMARK    1  A    between atoms: C_2  and  C_21
REMARK    2  A    between atoms: N_3  and  C_4
REMARK    3  A    between atoms: C_4  and  C_5
REMARK    4  A    between atoms: C_8  and  C_9
REMARK    5  A    between atoms: C_9  and  C_10
REMARK    6  A    between atoms: C_10  and  C_11
REMARK    7  A    between atoms: C_16  and  O_17
REMARK                            x       y       z     vdW  Elec       q    Type
REMARK                         _______ _______ _______ _____ _____    ______ ____
ROOT
ATOM      1  C   UNL     1      46.317   7.304  12.678  0.00  0.00    +0.000 A 
ATOM      2  C   UNL     1      46.685   5.996  12.345  0.00  0.00    +0.000 A 
ATOM      3  C   UNL     1      45.846   5.195  11.568  0.00  0.00    +0.000 A 
ATOM      4  C   UNL     1      44.616   5.684  11.106  0.00  0.00    +0.000 A 
ATOM      5  C   UNL     1      44.265   7.006  11.405  0.00  0.00    +0.000 A 
ATOM      6  C   UNL     1      45.110   7.811  12.178  0.00  0.00    +0.000 A 
ENDROOT
BRANCH   1   7
ATOM      7  C   UNL     1      47.217   8.148  13.540  0.00  0.00    +0.000 C 
BRANCH   7  10
ATOM      8  O   UNL     1      49.746   6.961  13.972  0.00  0.00    +0.000 OA
ATOM      9  C   UNL     1      48.906   6.920  14.865  0.00  0.00    +0.000 C 
ATOM     10  N   UNL     1      47.645   7.438  14.717  0.00  0.00    +0.000 N 
ATOM     11  H   UNL     1      47.047   7.533  15.530  0.00  0.00    +0.000 HD
BRANCH   9  12
ATOM     12  C   UNL     1      49.177   6.251  16.146  0.00  0.00    +0.000 A 
ATOM     13  C   UNL     1      50.157   6.755  16.992  0.00  0.00    +0.000 A 
ATOM     14  S   UNL     1      50.358   5.850  18.423  0.00  0.00    +0.000 S 
ATOM     15  C   UNL     1      49.110   4.779  17.986  0.00  0.00    +0.000 A 
ATOM     16  N   UNL     1      48.744   3.760  18.812  0.00  0.00    +0.000 NA
ATOM     17  C   UNL     1      47.756   3.051  18.375  0.00  0.00    +0.000 A 
ATOM     18  N   UNL     1      47.114   3.258  17.182  0.00  0.00    +0.000 N 
ATOM     19  C   UNL     1      47.503   4.221  16.286  0.00  0.00    +0.000 A 
ATOM     20  O   UNL     1      46.996   4.285  15.170  0.00  0.00    +0.000 OA
ATOM     21  C   UNL     1      48.572   5.086  16.750  0.00  0.00    +0.000 A 
ATOM     22  H   UNL     1      46.370   2.646  16.883  0.00  0.00    +0.000 HD
ENDBRANCH   9  12
ENDBRANCH   7  10
ENDBRANCH   1   7
BRANCH   4  23
ATOM     23  C   UNL     1      43.700   4.822  10.266  0.00  0.00    +0.000 C 
BRANCH  23  24
ATOM     24  C   UNL     1      44.348   4.353   8.963  0.00  0.00    +0.000 C 
BRANCH  24  25
ATOM     25  C   UNL     1      44.821   2.911   9.051  0.00  0.00    +0.000 C 
ATOM     26  O   UNL     1      44.319   2.105   9.834  0.00  0.00    +0.000 OA
ATOM     27  N   UNL     1      45.828   2.547   8.183  0.00  0.00    +0.000 N 
ATOM     28  C   UNL     1      46.245   1.160   8.062  0.00  0.00    +0.000 C 
ATOM     29  C   UNL     1      47.277   1.137   6.942  0.00  0.00    +0.000 C 
ATOM     30  C   UNL     1      47.010   2.420   6.159  0.00  0.00    +0.000 C 
ATOM     31  C   UNL     1      46.533   3.392   7.236  0.00  0.00    +0.000 C 
BRANCH  30  32
ATOM     32  O   UNL     1      48.166   2.871   5.477  0.00  0.00    +0.000 OA
ATOM     33  H   UNL     1      48.921   2.323   5.748  0.00  0.00    +0.000 HD
ENDBRANCH  30  32
ENDBRANCH  24  25
ENDBRANCH  23  24
ENDBRANCH   4  23
TORSDOF 7
ENDMDL
MODEL 2
REMARK VINA RESULT:    -8.142      1.901      2.343
REMARK INTER + INTRA:         -12.266
REMARK INTER:                 -11.368
REMARK INTRA:                  -0.897
REMARK UNBOUND:                -1.030
REMARK  Name = 
REMARK  7 active torsions:
REMARK  status: ('A' for Active; 'I' for Inactive)
REMARK    1  A    between atoms: C_2  and  C_21
REMARK    2  A    between atoms: N_3  and  C_4
REMARK    3  A    between atoms: C_4  and  C_5
REMARK    4  A    between atoms: C_8  and  C_9
REMARK    5  A    between atoms: C_9  and  C_10
REMARK    6  A    between atoms: C_10  and  C_11
REMARK    7  A    between atoms: C_16  and  O_17
REMARK                            x       y       z     vdW  Elec       q    Type
REMARK                         _______ _______ _______ _____ _____    ______ ____
ROOT
ATOM      1  C   UNL     1      46.955   6.267  12.883  0.00  0.00    +0.000 A 
ATOM      2  C   UNL     1      46.754   6.770  11.593  0.00  0.00    +0.000 A 
ATOM      3  C   UNL     1      45.747   6.253  10.775  0.00  0.00    +0.000 A 
ATOM      4  C   UNL     1      44.917   5.218  11.228  0.00  0.00    +0.000 A 
ATOM      5  C   UNL     1      45.092   4.742  12.534  0.00  0.00    +0.000 A 
ATOM      6  C   UNL     1      46.096   5.265  13.355  0.00  0.00    +0.000 A 
ENDROOT
BRANCH   1   7
ATOM      7  C   UNL     1      48.062   6.813  13.745  0.00  0.00    +0.000 C 
BRANCH   7  10
ATOM      8  O   UNL     1      50.187   6.614  15.598  0.00  0.00    +0.000 OA
ATOM      9  C   UNL     1      49.058   6.280  15.944  0.00  0.00    +0.000 C 
ATOM     10  N   UNL     1      47.984   6.311  15.092  0.00  0.00    +0.000 N 
ATOM     11  H   UNL     1      47.050   6.191  15.463  0.00  0.00    +0.000 HD
BRANCH   9  12
ATOM     12  C   UNL     1      48.789   5.761  17.293  0.00  0.00    +0.000 A 
ATOM     13  C   UNL     1      49.031   4.423  17.576  0.00  0.00    +0.000 A 
ATOM     14  S   UNL     1      48.646   3.981  19.178  0.00  0.00    +0.000 S 
ATOM     15  C   UNL     1      48.188   5.573  19.564  0.00  0.00    +0.000 A 
ATOM     16  N   UNL     1      47.774   5.894  20.821  0.00  0.00    +0.000 NA
ATOM     17  C   UNL     1      47.497   7.145  20.986  0.00  0.00    +0.000 A 
ATOM     18  N   UNL     1      47.579   8.099  20.005  0.00  0.00    +0.000 N 
ATOM     19  C   UNL     1      47.914   7.803  18.708  0.00  0.00    +0.000 A 
ATOM     20  O   UNL     1      47.841   8.657  17.829  0.00  0.00    +0.000 OA
ATOM     21  C   UNL     1      48.293   6.422  18.478  0.00  0.00    +0.000 A 
ATOM     22  H   UNL     1      47.316   9.054  20.191  0.00  0.00    +0.000 HD
ENDBRANCH   9  12
ENDBRANCH   7  10
ENDBRANCH   1   7
BRANCH   4  23
ATOM     23  C   UNL     1      43.827   4.652  10.348  0.00  0.00    +0.000 C 
BRANCH  23  24
ATOM     24  C   UNL     1      44.339   4.184   8.985  0.00  0.00    +0.000 C 
BRANCH  24  25
ATOM     25  C   UNL     1      44.858   2.756   9.033  0.00  0.00    +0.000 C 
ATOM     26  O   UNL     1      44.381   1.911   9.791  0.00  0.00    +0.000 OA
ATOM     27  N   UNL     1      45.878   2.450   8.158  0.00  0.00    +0.000 N 
ATOM     28  C   UNL     1      46.341   1.081   7.999  0.00  0.00    +0.000 C 
ATOM     29  C   UNL     1      47.375   1.124   6.882  0.00  0.00    +0.000 C 
ATOM     30  C   UNL     1      47.068   2.420   6.135  0.00  0.00    +0.000 C 
ATOM     31  C   UNL     1      46.558   3.345   7.238  0.00  0.00    +0.000 C 
BRANCH  30  32
ATOM     32  O   UNL     1      48.211   2.928   5.470  0.00  0.00    +0.000 OA
ATOM     33  H   UNL     1      48.616   3.614   6.028  0.00  0.00    +0.000 HD
ENDBRANCH  30  32
ENDBRANCH  24  25
ENDBRANCH  23  24
ENDBRANCH   4  23
TORSDOF 7
ENDMDL
MODEL 3
REMARK VINA RESULT:    -8.093      1.769      2.173
REMARK INTER + INTRA:         -12.198
REMARK INTER:                 -10.931
REMARK INTRA:                  -1.267
REMARK UNBOUND:                -1.030
REMARK  Name = 
REMARK  7 active torsions:
REMARK  status: ('A' for Active; 'I' for Inactive)
REMARK    1  A    between atoms: C_2  and  C_21
REMARK    2  A    between atoms: N_3  and  C_4
REMARK    3  A    between atoms: C_4  and  C_5
REMARK    4  A    between atoms: C_8  and  C_9
REMARK    5  A    between atoms: C_9  and  C_10
REMARK    6  A    between atoms: C_10  and  C_11
REMARK    7  A    between atoms: C_16  and  O_17
REMARK                            x       y       z     vdW  Elec       q    Type
REMARK                         _______ _______ _______ _____ _____    ______ ____
ROOT
ATOM      1  C   UNL     1      47.450   6.573  13.361  0.00  0.00    +0.000 A 
ATOM      2  C   UNL     1      47.052   5.269  13.676  0.00  0.00    +0.000 A 
ATOM      3  C   UNL     1      45.738   4.851  13.450  0.00  0.00    +0.000 A 
ATOM      4  C   UNL     1      44.792   5.729  12.903  0.00  0.00    +0.000 A 
ATOM      5  C   UNL     1      45.201   7.021  12.549  0.00  0.00    +0.000 A 
ATOM      6  C   UNL     1      46.519   7.437  12.770  0.00  0.00    +0.000 A 
ENDROOT
BRANCH   1   7
ATOM      7  C   UNL     1      48.861   7.020  13.636  0.00  0.00    +0.000 C 
BRANCH   7  10
ATOM      8  O   UNL     1      48.222   8.866  15.679  0.00  0.00    +0.000 OA
ATOM      9  C   UNL     1      48.814   7.832  15.970  0.00  0.00    +0.000 C 
ATOM     10  N   UNL     1      49.193   6.907  15.032  0.00  0.00    +0.000 N 
ATOM     11  H   UNL     1      49.525   5.999  15.333  0.00  0.00    +0.000 HD
BRANCH   9  12
ATOM     12  C   UNL     1      49.216   7.541  17.355  0.00  0.00    +0.000 A 
ATOM     13  C   UNL     1      49.994   8.455  18.052  0.00  0.00    +0.000 A 
ATOM     14  S   UNL     1      50.389   7.954  19.634  0.00  0.00    +0.000 S 
ATOM     15  C   UNL     1      49.493   6.518  19.460  0.00  0.00    +0.000 A 
ATOM     16  N   UNL     1      49.391   5.630  20.488  0.00  0.00    +0.000 NA
ATOM     17  C   UNL     1      48.648   4.605  20.233  0.00  0.00    +0.000 A 
ATOM     18  N   UNL     1      48.012   4.379  19.040  0.00  0.00    +0.000 N 
ATOM     19  C   UNL     1      48.153   5.206  17.954  0.00  0.00    +0.000 A 
ATOM     20  O   UNL     1      47.683   4.898  16.863  0.00  0.00    +0.000 OA
ATOM     21  C   UNL     1      48.931   6.405  18.202  0.00  0.00    +0.000 A 
ATOM     22  H   UNL     1      47.472   3.540  18.894  0.00  0.00    +0.000 HD
ENDBRANCH   9  12
ENDBRANCH   7  10
ENDBRANCH   1   7
BRANCH   4  23
ATOM     23  C   UNL     1      43.368   5.285  12.657  0.00  0.00    +0.000 C 
BRANCH  23  24
ATOM     24  C   UNL     1      43.098   4.921  11.196  0.00  0.00    +0.000 C 
BRANCH  24  25
ATOM     25  C   UNL     1      43.549   3.506  10.871  0.00  0.00    +0.000 C 
ATOM     26  O   UNL     1      43.066   2.521  11.429  0.00  0.00    +0.000 OA
ATOM     27  N   UNL     1      44.512   3.385   9.893  0.00  0.00    +0.000 N 
ATOM     28  C   UNL     1      44.901   2.080   9.384  0.00  0.00    +0.000 C 
ATOM     29  C   UNL     1      45.885   2.355   8.255  0.00  0.00    +0.000 C 
ATOM     30  C   UNL     1      45.608   3.803   7.859  0.00  0.00    +0.000 C 
ATOM     31  C   UNL     1      45.193   4.451   9.179  0.00  0.00    +0.000 C 
BRANCH  30  32
ATOM     32  O   UNL     1      46.743   4.416   7.274  0.00  0.00    +0.000 OA
ATOM     33  H   UNL     1      47.519   3.856   7.441  0.00  0.00    +0.000 HD
ENDBRANCH  30  32
ENDBRANCH  24  25
ENDBRANCH  23  24
ENDBRANCH   4  23
TORSDOF 7
ENDMDL
MODEL 4
REMARK VINA RESULT:    -7.523      2.080      2.613
REMARK INTER + INTRA:         -11.411
REMARK INTER:                 -10.488
REMARK INTRA:                  -0.924
REMARK UNBOUND:                -1.030
REMARK  Name = 
REMARK  7 active torsions:
REMARK  status: ('A' for Active; 'I' for Inactive)
REMARK    1  A    between atoms: C_2  and  C_21
REMARK    2  A    between atoms: N_3  and  C_4
REMARK    3  A    between atoms: C_4  and  C_5
REMARK    4  A    between atoms: C_8  and  C_9
REMARK    5  A    between atoms: C_9  and  C_10
REMARK    6  A    between atoms: C_10  and  C_11
REMARK    7  A    between atoms: C_16  and  O_17
REMARK                            x       y       z     vdW  Elec       q    Type
REMARK                         _______ _______ _______ _____ _____    ______ ____
ROOT
ATOM      1  C   UNL     1      46.145   7.505  12.650  0.00  0.00    +0.000 A 
ATOM      2  C   UNL     1      44.929   7.377  11.971  0.00  0.00    +0.000 A 
ATOM      3  C   UNL     1      44.525   6.141  11.461  0.00  0.00    +0.000 A 
ATOM      4  C   UNL     1      45.329   5.004  11.618  0.00  0.00    +0.000 A 
ATOM      5  C   UNL     1      46.528   5.124  12.333  0.00  0.00    +0.000 A 
ATOM      6  C   UNL     1      46.929   6.361  12.849  0.00  0.00    +0.000 A 
ENDROOT
BRANCH   1   7
ATOM      7  C   UNL     1      46.583   8.849  13.170  0.00  0.00    +0.000 C 
BRANCH   7  10
ATOM      8  O   UNL     1      49.191   9.093  14.231  0.00  0.00    +0.000 OA
ATOM      9  C   UNL     1      48.245   8.949  14.998  0.00  0.00    +0.000 C 
ATOM     10  N   UNL     1      46.956   8.785  14.559  0.00  0.00    +0.000 N 
ATOM     11  H   UNL     1      46.193   8.840  15.222  0.00  0.00    +0.000 HD
BRANCH   9  12
ATOM     12  C   UNL     1      48.438   8.882  16.455  0.00  0.00    +0.000 A 
ATOM     13  C   UNL     1      48.268  10.025  17.225  0.00  0.00    +0.000 A 
ATOM     14  S   UNL     1      48.550   9.778  18.889  0.00  0.00    +0.000 S 
ATOM     15  C   UNL     1      48.863   8.123  18.645  0.00  0.00    +0.000 A 
ATOM     16  N   UNL     1      49.149   7.305  19.696  0.00  0.00    +0.000 NA
ATOM     17  C   UNL     1      49.324   6.067  19.373  0.00  0.00    +0.000 A 
ATOM     18  N   UNL     1      49.255   5.576  18.095  0.00  0.00    +0.000 N 
ATOM     19  C   UNL     1      49.049   6.378  17.001  0.00  0.00    +0.000 A 
ATOM     20  O   UNL     1      49.134   5.925  15.863  0.00  0.00    +0.000 OA
ATOM     21  C   UNL     1      48.788   7.771  17.310  0.00  0.00    +0.000 A 
ATOM     22  H   UNL     1      49.435   4.602  17.906  0.00  0.00    +0.000 HD
ENDBRANCH   9  12
ENDBRANCH   7  10
ENDBRANCH   1   7
BRANCH   4  23
ATOM     23  C   UNL     1      44.900   3.663  11.067  0.00  0.00    +0.000 C 
BRANCH  23  24
ATOM     24  C   UNL     1      44.316   3.754   9.656  0.00  0.00    +0.000 C 
BRANCH  24  25
ATOM     25  C   UNL     1      45.392   4.004   8.612  0.00  0.00    +0.000 C 
ATOM     26  O   UNL     1      45.750   5.140   8.300  0.00  0.00    +0.000 OA
ATOM     27  N   UNL     1      45.967   2.884   8.051  0.00  0.00    +0.000 N 
ATOM     28  C   UNL     1      47.115   2.997   7.167  0.00  0.00    +0.000 C 
ATOM     29  C   UNL     1      47.531   1.566   6.849  0.00  0.00    +0.000 C 
ATOM     30  C   UNL     1      46.912   0.736   7.971  0.00  0.00    +0.000 C 
ATOM     31  C   UNL     1      45.625   1.493   8.294  0.00  0.00    +0.000 C 
BRANCH  30  32
ATOM     32  O   UNL     1      46.681  -0.603   7.571  0.00  0.00    +0.000 OA
ATOM     33  H   UNL     1      45.779  -0.670   7.215  0.00  0.00    +0.000 HD
ENDBRANCH  30  32
ENDBRANCH  24  25
ENDBRANCH  23  24
ENDBRANCH   4  23
TORSDOF 7
ENDMDL
MODEL 5
REMARK VINA RESULT:    -7.504      2.282      3.665
REMARK INTER + INTRA:         -11.385
REMARK INTER:                 -10.264
REMARK INTRA:                  -1.120
REMARK UNBOUND:                -1.030
REMARK  Name = 
REMARK  7 active torsions:
REMARK  status: ('A' for Active; 'I' for Inactive)
REMARK    1  A    between atoms: C_2  and  C_21
REMARK    2  A    between atoms: N_3  and  C_4
REMARK    3  A    between atoms: C_4  and  C_5
REMARK    4  A    between atoms: C_8  and  C_9
REMARK    5  A    between atoms: C_9  and  C_10
REMARK    6  A    between atoms: C_10  and  C_11
REMARK    7  A    between atoms: C_16  and  O_17
REMARK                            x       y       z     vdW  Elec       q    Type
REMARK                         _______ _______ _______ _____ _____    ______ ____
ROOT
ATOM      1  C   UNL     1      46.609   4.398  14.056  0.00  0.00    +0.000 A 
ATOM      2  C   UNL     1      46.288   3.280  13.279  0.00  0.00    +0.000 A 
ATOM      3  C   UNL     1      45.481   3.407  12.146  0.00  0.00    +0.000 A 
ATOM      4  C   UNL     1      44.974   4.657  11.765  0.00  0.00    +0.000 A 
ATOM      5  C   UNL     1      45.329   5.783  12.519  0.00  0.00    +0.000 A 
ATOM      6  C   UNL     1      46.143   5.655  13.650  0.00  0.00    +0.000 A 
ENDROOT
BRANCH   1   7
ATOM      7  C   UNL     1      47.457   4.244  15.291  0.00  0.00    +0.000 C 
BRANCH   7  10
ATOM      8  O   UNL     1      49.760   4.957  16.765  0.00  0.00    +0.000 OA
ATOM      9  C   UNL     1      48.880   5.792  16.589  0.00  0.00    +0.000 C 
ATOM     10  N   UNL     1      47.718   5.512  15.919  0.00  0.00    +0.000 N 
ATOM     11  H   UNL     1      47.100   6.270  15.652  0.00  0.00    +0.000 HD
BRANCH   9  12
ATOM     12  C   UNL     1      48.987   7.151  17.145  0.00  0.00    +0.000 A 
ATOM     13  C   UNL     1      49.113   7.325  18.517  0.00  0.00    +0.000 A 
ATOM     14  S   UNL     1      49.204   8.959  18.994  0.00  0.00    +0.000 S 
ATOM     15  C   UNL     1      49.125   9.491  17.380  0.00  0.00    +0.000 A 
ATOM     16  N   UNL     1      49.186  10.818  17.079  0.00  0.00    +0.000 NA
ATOM     17  C   UNL     1      49.158  11.078  15.814  0.00  0.00    +0.000 A 
ATOM     18  N   UNL     1      49.057  10.134  14.825  0.00  0.00    +0.000 N 
ATOM     19  C   UNL     1      48.912   8.795  15.088  0.00  0.00    +0.000 A 
ATOM     20  O   UNL     1      48.683   7.997  14.184  0.00  0.00    +0.000 OA
ATOM     21  C   UNL     1      48.996   8.440  16.492  0.00  0.00    +0.000 A 
ATOM     22  H   UNL     1      49.005  10.406  13.855  0.00  0.00    +0.000 HD
ENDBRANCH   9  12
ENDBRANCH   7  10
ENDBRANCH   1   7
BRANCH   4  23
ATOM     23  C   UNL     1      44.098   4.803  10.541  0.00  0.00    +0.000 C 
BRANCH  23  24
ATOM     24  C   UNL     1      44.251   3.645   9.554  0.00  0.00    +0.000 C 
BRANCH  24  25
ATOM     25  C   UNL     1      45.357   3.903   8.544  0.00  0.00    +0.000 C 
ATOM     26  O   UNL     1      45.718   5.041   8.244  0.00  0.00    +0.000 OA
ATOM     27  N   UNL     1      45.958   2.787   8.001  0.00  0.00    +0.000 N 
ATOM     28  C   UNL     1      47.132   2.907   7.154  0.00  0.00    +0.000 C 
ATOM     29  C   UNL     1      47.568   1.480   6.849  0.00  0.00    +0.000 C 
ATOM     30  C   UNL     1      46.919   0.646   7.951  0.00  0.00    +0.000 C 
ATOM     31  C   UNL     1      45.618   1.394   8.233  0.00  0.00    +0.000 C 
BRANCH  30  32
ATOM     32  O   UNL     1      46.710  -0.695   7.543  0.00  0.00    +0.000 OA
ATOM     33  H   UNL     1      46.907  -0.765   6.594  0.00  0.00    +0.000 HD
ENDBRANCH  30  32
ENDBRANCH  24  25
ENDBRANCH  23  24
ENDBRANCH   4  23
TORSDOF 7
ENDMDL
MODEL 6
REMARK VINA RESULT:    -7.458      2.876      8.311
REMARK INTER + INTRA:         -11.322
REMARK INTER:                  -9.867
REMARK INTRA:                  -1.455
REMARK UNBOUND:                -1.030
REMARK  Name = 
REMARK  7 active torsions:
REMARK  status: ('A' for Active; 'I' for Inactive)
REMARK    1  A    between atoms: C_2  and  C_21
REMARK    2  A    between atoms: N_3  and  C_4
REMARK    3  A    between atoms: C_4  and  C_5
REMARK    4  A    between atoms: C_8  and  C_9
REMARK    5  A    between atoms: C_9  and  C_10
REMARK    6  A    between atoms: C_10  and  C_11
REMARK    7  A    between atoms: C_16  and  O_17
REMARK                            x       y       z     vdW  Elec       q    Type
REMARK                         _______ _______ _______ _____ _____    ______ ____
ROOT
ATOM      1  C   UNL     1      48.334   7.948  13.318  0.00  0.00    +0.000 A 
ATOM      2  C   UNL     1      47.786   8.858  14.228  0.00  0.00    +0.000 A 
ATOM      3  C   UNL     1      48.283   8.950  15.530  0.00  0.00    +0.000 A 
ATOM      4  C   UNL     1      49.341   8.133  15.952  0.00  0.00    +0.000 A 
ATOM      5  C   UNL     1      49.916   7.251  15.029  0.00  0.00    +0.000 A 
ATOM      6  C   UNL     1      49.422   7.164  13.723  0.00  0.00    +0.000 A 
ENDROOT
BRANCH   1   7
ATOM      7  C   UNL     1      47.771   7.838  11.926  0.00  0.00    +0.000 C 
BRANCH   7  10
ATOM      8  O   UNL     1      44.964   7.575  12.128  0.00  0.00    +0.000 OA
ATOM      9  C   UNL     1      45.637   6.593  11.835  0.00  0.00    +0.000 C 
ATOM     10  N   UNL     1      47.005   6.631  11.755  0.00  0.00    +0.000 N 
ATOM     11  H   UNL     1      47.503   5.848  11.348  0.00  0.00    +0.000 HD
BRANCH   9  12
ATOM     12  C   UNL     1      45.019   5.278  11.606  0.00  0.00    +0.000 A 
ATOM     13  C   UNL     1      44.320   4.658  12.633  0.00  0.00    +0.000 A 
ATOM     14  S   UNL     1      43.686   3.132  12.208  0.00  0.00    +0.000 S 
ATOM     15  C   UNL     1      44.284   3.267  10.620  0.00  0.00    +0.000 A 
ATOM     16  N   UNL     1      44.056   2.286   9.703  0.00  0.00    +0.000 NA
ATOM     17  C   UNL     1      44.529   2.537   8.528  0.00  0.00    +0.000 A 
ATOM     18  N   UNL     1      45.223   3.670   8.191  0.00  0.00    +0.000 N 
ATOM     19  C   UNL     1      45.544   4.644   9.103  0.00  0.00    +0.000 A 
ATOM     20  O   UNL     1      46.285   5.573   8.797  0.00  0.00    +0.000 OA
ATOM     21  C   UNL     1      44.986   4.442  10.427  0.00  0.00    +0.000 A 
ATOM     22  H   UNL     1      45.596   3.790   7.262  0.00  0.00    +0.000 HD
ENDBRANCH   9  12
ENDBRANCH   7  10
ENDBRANCH   1   7
BRANCH   4  23
ATOM     23  C   UNL     1      49.883   8.225  17.360  0.00  0.00    +0.000 C 
BRANCH  23  24
ATOM     24  C   UNL     1      50.031   6.861  18.036  0.00  0.00    +0.000 C 
BRANCH  24  25
ATOM     25  C   UNL     1      48.682   6.240  18.361  0.00  0.00    +0.000 C 
ATOM     26  O   UNL     1      47.793   6.868  18.936  0.00  0.00    +0.000 OA
ATOM     27  N   UNL     1      48.497   4.937  17.950  0.00  0.00    +0.000 N 
ATOM     28  C   UNL     1      47.197   4.297  18.058  0.00  0.00    +0.000 C 
ATOM     29  C   UNL     1      47.357   2.929  17.408  0.00  0.00    +0.000 C 
ATOM     30  C   UNL     1      48.593   3.076  16.522  0.00  0.00    +0.000 C 
ATOM     31  C   UNL     1      49.459   4.067  17.297  0.00  0.00    +0.000 C 
BRANCH  30  32
ATOM     32  O   UNL     1      49.235   1.833  16.302  0.00  0.00    +0.000 OA
ATOM     33  H   UNL     1      49.817   1.646  17.058  0.00  0.00    +0.000 HD
ENDBRANCH  30  32
ENDBRANCH  24  25
ENDBRANCH  23  24
ENDBRANCH   4  23
TORSDOF 7
ENDMDL
MODEL 7
REMARK VINA RESULT:    -7.178      5.023      9.403
REMARK INTER + INTRA:         -10.935
REMARK INTER:                 -10.092
REMARK INTRA:                  -0.843
REMARK UNBOUND:                -1.030
REMARK  Name = 
REMARK  7 active torsions:
REMARK  status: ('A' for Active; 'I' for Inactive)
REMARK    1  A    between atoms: C_2  and  C_21
REMARK    2  A    between atoms: N_3  and  C_4
REMARK    3  A    between atoms: C_4  and  C_5
REMARK    4  A    between atoms: C_8  and  C_9
REMARK    5  A    between atoms: C_9  and  C_10
REMARK    6  A    between atoms: C_10  and  C_11
REMARK    7  A    between atoms: C_16  and  O_17
REMARK                            x       y       z     vdW  Elec       q    Type
REMARK                         _______ _______ _______ _____ _____    ______ ____
ROOT
ATOM      1  C   UNL     1      48.621   3.516  17.207  0.00  0.00    +0.000 A 
ATOM      2  C   UNL     1      49.182   4.729  17.622  0.00  0.00    +0.000 A 
ATOM      3  C   UNL     1      50.539   4.813  17.943  0.00  0.00    +0.000 A 
ATOM      4  C   UNL     1      51.366   3.685  17.857  0.00  0.00    +0.000 A 
ATOM      5  C   UNL     1      50.813   2.481  17.403  0.00  0.00    +0.000 A 
ATOM      6  C   UNL     1      49.456   2.399  17.074  0.00  0.00    +0.000 A 
ENDROOT
BRANCH   1   7
ATOM      7  C   UNL     1      47.151   3.431  16.890  0.00  0.00    +0.000 C 
BRANCH   7  10
ATOM      8  O   UNL     1      47.304   3.112  14.086  0.00  0.00    +0.000 OA
ATOM      9  C   UNL     1      46.837   4.149  14.545  0.00  0.00    +0.000 C 
ATOM     10  N   UNL     1      46.765   4.394  15.892  0.00  0.00    +0.000 N 
ATOM     11  H   UNL     1      46.223   5.182  16.228  0.00  0.00    +0.000 HD
BRANCH   9  12
ATOM     12  C   UNL     1      46.374   5.237  13.671  0.00  0.00    +0.000 A 
ATOM     13  C   UNL     1      47.199   6.329  13.435  0.00  0.00    +0.000 A 
ATOM     14  S   UNL     1      46.502   7.508  12.418  0.00  0.00    +0.000 S 
ATOM     15  C   UNL     1      45.091   6.579  12.219  0.00  0.00    +0.000 A 
ATOM     16  N   UNL     1      44.076   7.013  11.420  0.00  0.00    +0.000 NA
ATOM     17  C   UNL     1      43.085   6.191  11.326  0.00  0.00    +0.000 A 
ATOM     18  N   UNL     1      43.008   4.983  11.970  0.00  0.00    +0.000 N 
ATOM     19  C   UNL     1      43.969   4.545  12.846  0.00  0.00    +0.000 A 
ATOM     20  O   UNL     1      43.800   3.527  13.509  0.00  0.00    +0.000 OA
ATOM     21  C   UNL     1      45.135   5.403  12.945  0.00  0.00    +0.000 A 
ATOM     22  H   UNL     1      42.188   4.402  11.881  0.00  0.00    +0.000 HD
ENDBRANCH   9  12
ENDBRANCH   7  10
ENDBRANCH   1   7
BRANCH   4  23
ATOM     23  C   UNL     1      52.835   3.768  18.205  0.00  0.00    +0.000 C 
BRANCH  23  24
ATOM     24  C   UNL     1      53.684   2.729  17.470  0.00  0.00    +0.000 C 
BRANCH  24  25
ATOM     25  C   UNL     1      54.188   1.643  18.406  0.00  0.00    +0.000 C 
ATOM     26  O   UNL     1      54.108   1.744  19.630  0.00  0.00    +0.000 OA
ATOM     27  N   UNL     1      54.717   0.520  17.806  0.00  0.00    +0.000 N 
ATOM     28  C   UNL     1      55.078  -0.648  18.592  0.00  0.00    +0.000 C 
ATOM     29  C   UNL     1      55.508  -1.705  17.584  0.00  0.00    +0.000 C 
ATOM     30  C   UNL     1      54.885  -1.245  16.268  0.00  0.00    +0.000 C 
ATOM     31  C   UNL     1      54.907   0.277  16.387  0.00  0.00    +0.000 C 
BRANCH  30  32
ATOM     32  O   UNL     1      55.608  -1.724  15.147  0.00  0.00    +0.000 OA
ATOM     33  H   UNL     1      56.298  -2.333  15.459  0.00  0.00    +0.000 HD
ENDBRANCH  30  32
ENDBRANCH  24  25
ENDBRANCH  23  24
ENDBRANCH   4  23
TORSDOF 7
ENDMDL
MODEL 8
REMARK VINA RESULT:    -7.000      3.513      5.939
REMARK INTER + INTRA:         -10.690
REMARK INTER:                  -9.694
REMARK INTRA:                  -0.995
REMARK UNBOUND:                -1.030
REMARK  Name = 
REMARK  7 active torsions:
REMARK  status: ('A' for Active; 'I' for Inactive)
REMARK    1  A    between atoms: C_2  and  C_21
REMARK    2  A    between atoms: N_3  and  C_4
REMARK    3  A    between atoms: C_4  and  C_5
REMARK    4  A    between atoms: C_8  and  C_9
REMARK    5  A    between atoms: C_9  and  C_10
REMARK    6  A    between atoms: C_10  and  C_11
REMARK    7  A    between atoms: C_16  and  O_17
REMARK                            x       y       z     vdW  Elec       q    Type
REMARK                         _______ _______ _______ _____ _____    ______ ____
ROOT
ATOM      1  C   UNL     1      48.083   4.321  16.740  0.00  0.00    +0.000 A 
ATOM      2  C   UNL     1      48.767   5.541  16.713  0.00  0.00    +0.000 A 
ATOM      3  C   UNL     1      48.652   6.397  15.615  0.00  0.00    +0.000 A 
ATOM      4  C   UNL     1      47.852   6.052  14.518  0.00  0.00    +0.000 A 
ATOM      5  C   UNL     1      47.135   4.849  14.563  0.00  0.00    +0.000 A 
ATOM      6  C   UNL     1      47.245   3.995  15.665  0.00  0.00    +0.000 A 
ENDROOT
BRANCH   1   7
ATOM      7  C   UNL     1      48.237   3.393  17.916  0.00  0.00    +0.000 C 
BRANCH   7  10
ATOM      8  O   UNL     1      49.803   1.753  16.229  0.00  0.00    +0.000 OA
ATOM      9  C   UNL     1      50.314   2.240  17.232  0.00  0.00    +0.000 C 
ATOM     10  N   UNL     1      49.611   3.014  18.119  0.00  0.00    +0.000 N 
ATOM     11  H   UNL     1      50.109   3.530  18.834  0.00  0.00    +0.000 HD
BRANCH   9  12
ATOM     12  C   UNL     1      51.717   1.975  17.587  0.00  0.00    +0.000 A 
ATOM     13  C   UNL     1      52.160   0.665  17.708  0.00  0.00    +0.000 A 
ATOM     14  S   UNL     1      53.804   0.535  18.145  0.00  0.00    +0.000 S 
ATOM     15  C   UNL     1      53.994   2.225  18.141  0.00  0.00    +0.000 A 
ATOM     16  N   UNL     1      55.203   2.792  18.410  0.00  0.00    +0.000 NA
ATOM     17  C   UNL     1      55.215   4.081  18.331  0.00  0.00    +0.000 A 
ATOM     18  N   UNL     1      54.126   4.855  18.025  0.00  0.00    +0.000 N 
ATOM     19  C   UNL     1      52.874   4.330  17.827  0.00  0.00    +0.000 A 
ATOM     20  O   UNL     1      51.898   5.063  17.694  0.00  0.00    +0.000 OA
ATOM     21  C   UNL     1      52.813   2.881  17.845  0.00  0.00    +0.000 A 
ATOM     22  H   UNL     1      54.194   5.861  18.013  0.00  0.00    +0.000 HD
ENDBRANCH   9  12
ENDBRANCH   7  10
ENDBRANCH   1   7
BRANCH   4  23
ATOM     23  C   UNL     1      47.724   6.973  13.325  0.00  0.00    +0.000 C 
BRANCH  23  24
ATOM     24  C   UNL     1      46.980   6.334  12.152  0.00  0.00    +0.000 C 
BRANCH  24  25
ATOM     25  C   UNL     1      45.590   6.923  11.974  0.00  0.00    +0.000 C 
ATOM     26  O   UNL     1      45.398   8.137  11.903  0.00  0.00    +0.000 OA
ATOM     27  N   UNL     1      44.555   6.019  11.866  0.00  0.00    +0.000 N 
ATOM     28  C   UNL     1      43.211   6.458  11.530  0.00  0.00    +0.000 C 
ATOM     29  C   UNL     1      42.386   5.185  11.391  0.00  0.00    +0.000 C 
ATOM     30  C   UNL     1      43.422   4.088  11.158  0.00  0.00    +0.000 C 
ATOM     31  C   UNL     1      44.626   4.571  11.965  0.00  0.00    +0.000 C 
BRANCH  30  32
ATOM     32  O   UNL     1      42.950   2.820  11.575  0.00  0.00    +0.000 OA
ATOM     33  H   UNL     1      42.005   2.753  11.355  0.00  0.00    +0.000 HD
ENDBRANCH  30  32
ENDBRANCH  24  25
ENDBRANCH  23  24
ENDBRANCH   4  23
TORSDOF 7
ENDMDL
MODEL 9
REMARK VINA RESULT:    -6.685      3.957      9.260
REMARK INTER + INTRA:         -10.255
REMARK INTER:                  -9.134
REMARK INTRA:                  -1.121
REMARK UNBOUND:                -1.030
REMARK  Name = 
REMARK  7 active torsions:
REMARK  status: ('A' for Active; 'I' for Inactive)
REMARK    1  A    between atoms: C_2  and  C_21
REMARK    2  A    between atoms: N_3  and  C_4
REMARK    3  A    between atoms: C_4  and  C_5
REMARK    4  A    between atoms: C_8  and  C_9
REMARK    5  A    between atoms: C_9  and  C_10
REMARK    6  A    between atoms: C_10  and  C_11
REMARK    7  A    between atoms: C_16  and  O_17
REMARK                            x       y       z     vdW  Elec       q    Type
REMARK                         _______ _______ _______ _____ _____    ______ ____
ROOT
ATOM      1  C   UNL     1      48.176   4.237  17.606  0.00  0.00    +0.000 A 
ATOM      2  C   UNL     1      49.561   4.110  17.764  0.00  0.00    +0.000 A 
ATOM      3  C   UNL     1      50.228   4.800  18.779  0.00  0.00    +0.000 A 
ATOM      4  C   UNL     1      49.526   5.635  19.659  0.00  0.00    +0.000 A 
ATOM      5  C   UNL     1      48.135   5.730  19.526  0.00  0.00    +0.000 A 
ATOM      6  C   UNL     1      47.466   5.033  18.514  0.00  0.00    +0.000 A 
ENDROOT
BRANCH   1   7
ATOM      7  C   UNL     1      47.472   3.511  16.491  0.00  0.00    +0.000 C 
BRANCH   7  10
ATOM      8  O   UNL     1      47.258   3.181  13.692  0.00  0.00    +0.000 OA
ATOM      9  C   UNL     1      46.767   4.176  14.216  0.00  0.00    +0.000 C 
ATOM     10  N   UNL     1      46.863   4.426  15.561  0.00  0.00    +0.000 N 
ATOM     11  H   UNL     1      46.304   5.163  15.973  0.00  0.00    +0.000 HD
BRANCH   9  12
ATOM     12  C   UNL     1      46.088   5.209  13.420  0.00  0.00    +0.000 A 
ATOM     13  C   UNL     1      46.720   6.424  13.187  0.00  0.00    +0.000 A 
ATOM     14  S   UNL     1      45.787   7.516  12.267  0.00  0.00    +0.000 S 
ATOM     15  C   UNL     1      44.525   6.386  12.107  0.00  0.00    +0.000 A 
ATOM     16  N   UNL     1      43.407   6.686  11.389  0.00  0.00    +0.000 NA
ATOM     17  C   UNL     1      42.549   5.724  11.314  0.00  0.00    +0.000 A 
ATOM     18  N   UNL     1      42.699   4.496  11.906  0.00  0.00    +0.000 N 
ATOM     19  C   UNL     1      43.770   4.182  12.704  0.00  0.00    +0.000 A 
ATOM     20  O   UNL     1      43.801   3.127  13.330  0.00  0.00    +0.000 OA
ATOM     21  C   UNL     1      44.795   5.207  12.775  0.00  0.00    +0.000 A 
ATOM     22  H   UNL     1      41.974   3.798  11.838  0.00  0.00    +0.000 HD
ENDBRANCH   9  12
ENDBRANCH   7  10
ENDBRANCH   1   7
BRANCH   4  23
ATOM     23  C   UNL     1      50.242   6.386  20.758  0.00  0.00    +0.000 C 
BRANCH  23  24
ATOM     24  C   UNL     1      50.172   7.905  20.589  0.00  0.00    +0.000 C 
BRANCH  24  25
ATOM     25  C   UNL     1      51.022   8.385  19.424  0.00  0.00    +0.000 C 
ATOM     26  O   UNL     1      52.252   8.398  19.473  0.00  0.00    +0.000 OA
ATOM     27  N   UNL     1      50.338   8.780  18.295  0.00  0.00    +0.000 N 
ATOM     28  C   UNL     1      51.045   9.101  17.066  0.00  0.00    +0.000 C 
ATOM     29  C   UNL     1      49.964   9.375  16.029  0.00  0.00    +0.000 C 
ATOM     30  C   UNL     1      48.718   8.700  16.597  0.00  0.00    +0.000 C 
ATOM     31  C   UNL     1      48.899   8.850  18.106  0.00  0.00    +0.000 C 
BRANCH  30  32
ATOM     32  O   UNL     1      47.528   9.303  16.120  0.00  0.00    +0.000 OA
ATOM     33  H   UNL     1      47.186   8.772  15.381  0.00  0.00    +0.000 HD
ENDBRANCH  30  32
ENDBRANCH  24  25
ENDBRANCH  23  24
ENDBRANCH   4  23
TORSDOF 7
ENDMDL
