MODEL 1
REMARK VINA RESULT:    -8.114      0.000      0.000
REMARK INTER + INTRA:         -11.983
REMARK INTER:                 -10.960
REMARK INTRA:                  -1.023
REMARK UNBOUND:                -1.023
REMARK  Name = 
REMARK  7 active torsions:
REMARK  status: ('A' for Active; 'I' for Inactive)
REMARK    1  A    between atoms: C_1  and  C_2
REMARK    2  A    between atoms: C_2  and  N_3
REMARK    3  A    between atoms: C_2  and  C_12
REMARK    4  A    between atoms: C_4  and  C_6
REMARK    5  A    between atoms: C_15  and  C_16
REMARK    6  A    between atoms: C_16  and  N_17
REMARK    7  A    between atoms: C_18  and  C_20
REMARK                            x       y       z     vdW  Elec       q    Type
REMARK                         _______ _______ _______ _____ _____    ______ ____
ROOT
ATOM      1  C   UNL     1      45.713   5.422  12.323  0.00  0.00    +0.000 A 
ATOM      2  C   UNL     1      46.174   4.815  13.500  0.00  0.00    +0.000 A 
ATOM      3  C   UNL     1      47.130   5.445  14.305  0.00  0.00    +0.000 A 
ATOM      4  C   UNL     1      47.640   6.701  13.952  0.00  0.00    +0.000 A 
ATOM      5  C   UNL     1      47.232   7.277  12.742  0.00  0.00    +0.000 A 
ATOM      6  C   UNL     1      46.273   6.651  11.943  0.00  0.00    +0.000 A 
ENDROOT
BRANCH   1   8
ATOM      7  C   UNL     1      43.431   5.714  11.299  0.00  0.00    +0.000 C 
ATOM      8  C   UNL     1      44.620   4.763  11.502  0.00  0.00    +0.000 C 
BRANCH   8   9
ATOM      9  N   UNL     1      45.151   4.284  10.238  0.00  0.00    +0.000 N 
ATOM     10  C   UNL     1      44.689   3.149   9.617  0.00  0.00    +0.000 C 
ATOM     11  O   UNL     1      43.837   2.410  10.101  0.00  0.00    +0.000 OA
ATOM     12  H   UNL     1      45.824   4.842   9.720  0.00  0.00    +0.000 HD
BRANCH  10  13
ATOM     13  C   UNL     1      45.367   2.838   8.262  0.00  0.00    +0.000 C 
ATOM     14  C   UNL     1      46.198   1.555   8.357  0.00  0.00    +0.000 C 
ATOM     15  C   UNL     1      46.905   1.258   7.034  0.00  0.00    +0.000 C 
ATOM     16  C   UNL     1      47.687   2.475   6.549  0.00  0.00    +0.000 C 
ATOM     17  C   UNL     1      46.811   3.726   6.533  0.00  0.00    +0.000 C 
ATOM     18  N   UNL     1      46.223   3.984   7.851  0.00  0.00    +0.000 NA
ATOM     19  H   UNL     1      45.626   4.812   7.784  0.00  0.00    +0.000 HD
ENDBRANCH  10  13
ENDBRANCH   8   9
ENDBRANCH   1   8
BRANCH   4  20
ATOM     20  C   UNL     1      48.605   7.432  14.848  0.00  0.00    +0.000 C 
BRANCH  20  21
ATOM     21  N   UNL     1      49.595   6.548  15.403  0.00  0.00    +0.000 N 
ATOM     22  C   UNL     1      49.586   6.218  16.736  0.00  0.00    +0.000 C 
ATOM     23  O   UNL     1      48.699   6.590  17.500  0.00  0.00    +0.000 OA
ATOM     24  H   UNL     1      50.446   6.424  14.866  0.00  0.00    +0.000 HD
BRANCH  22  25
ATOM     25  C   UNL     1      50.669   5.335  17.185  0.00  0.00    +0.000 A 
ATOM     26  C   UNL     1      51.867   5.874  17.633  0.00  0.00    +0.000 A 
ATOM     27  S   UNL     1      52.988   4.700  18.159  0.00  0.00    +0.000 S 
ATOM     28  C   UNL     1      51.929   3.428  17.761  0.00  0.00    +0.000 A 
ATOM     29  N   UNL     1      52.286   2.130  17.949  0.00  0.00    +0.000 NA
ATOM     30  C   UNL     1      51.392   1.272  17.588  0.00  0.00    +0.000 A 
ATOM     31  N   UNL     1      50.169   1.593  17.056  0.00  0.00    +0.000 N 
ATOM     32  C   UNL     1      49.759   2.890  16.860  0.00  0.00    +0.000 A 
ATOM     33  O   UNL     1      48.642   3.143  16.423  0.00  0.00    +0.000 OA
ATOM     34  C   UNL     1      50.730   3.893  17.252  0.00  0.00    +0.000 A 
ATOM     35  H   UNL     1      49.507   0.875  16.808  0.00  0.00    +0.000 HD
ENDBRANCH  22  25
ENDBRANCH  20  21
ENDBRANCH   4  20
TORSDOF 6
ENDMDL
MODEL 2
REMARK VINA RESULT:    -8.090      2.098      2.525
REMARK INTER + INTRA:         -11.950
REMARK INTER:                 -11.073
REMARK INTRA:                  -0.877
REMARK UNBOUND:                -1.023
REMARK  Name = 
REMARK  7 active torsions:
REMARK  status: ('A' for Active; 'I' for Inactive)
REMARK    1  A    between atoms: C_1  and  C_2
REMARK    2  A    between atoms: C_2  and  N_3
REMARK    3  A    between atoms: C_2  and  C_12
REMARK    4  A    between atoms: C_4  and  C_6
REMARK    5  A    between atoms: C_15  and  C_16
REMARK    6  A    between atoms: C_16  and  N_17
REMARK    7  A    between atoms: C_18  and  C_20
REMARK                            x       y       z     vdW  Elec       q    Type
REMARK                         _______ _______ _______ _____ _____    ______ ____
ROOT
ATOM      1  C   UNL     1      45.265   5.674  12.117  0.00  0.00    +0.000 A 
ATOM      2  C   UNL     1      45.223   7.074  12.041  0.00  0.00    +0.000 A 
ATOM      3  C   UNL     1      46.189   7.856  12.685  0.00  0.00    +0.000 A 
ATOM      4  C   UNL     1      47.221   7.253  13.415  0.00  0.00    +0.000 A 
ATOM      5  C   UNL     1      47.224   5.859  13.549  0.00  0.00    +0.000 A 
ATOM      6  C   UNL     1      46.265   5.079  12.900  0.00  0.00    +0.000 A 
ENDROOT
BRANCH   1   8
ATOM      7  C   UNL     1      42.966   5.628  11.090  0.00  0.00    +0.000 C 
ATOM      8  C   UNL     1      44.258   4.838  11.349  0.00  0.00    +0.000 C 
BRANCH   8   9
ATOM      9  N   UNL     1      44.843   4.339  10.118  0.00  0.00    +0.000 N 
ATOM     10  C   UNL     1      44.558   3.096   9.607  0.00  0.00    +0.000 C 
ATOM     11  O   UNL     1      43.839   2.278  10.173  0.00  0.00    +0.000 OA
ATOM     12  H   UNL     1      45.412   4.947   9.537  0.00  0.00    +0.000 HD
BRANCH  10  13
ATOM     13  C   UNL     1      45.260   2.777   8.266  0.00  0.00    +0.000 C 
ATOM     14  C   UNL     1      46.134   1.527   8.400  0.00  0.00    +0.000 C 
ATOM     15  C   UNL     1      46.865   1.223   7.091  0.00  0.00    +0.000 C 
ATOM     16  C   UNL     1      47.608   2.455   6.584  0.00  0.00    +0.000 C 
ATOM     17  C   UNL     1      46.689   3.673   6.529  0.00  0.00    +0.000 C 
ATOM     18  N   UNL     1      46.079   3.942   7.836  0.00  0.00    +0.000 NA
ATOM     19  H   UNL     1      45.455   4.746   7.743  0.00  0.00    +0.000 HD
ENDBRANCH  10  13
ENDBRANCH   8   9
ENDBRANCH   1   8
BRANCH   4  20
ATOM     20  C   UNL     1      48.316   8.075  14.044  0.00  0.00    +0.000 C 
BRANCH  20  21
ATOM     21  N   UNL     1      48.306   7.971  15.479  0.00  0.00    +0.000 N 
ATOM     22  C   UNL     1      49.230   7.203  16.142  0.00  0.00    +0.000 C 
ATOM     23  O   UNL     1      50.151   6.633  15.561  0.00  0.00    +0.000 OA
ATOM     24  H   UNL     1      47.444   8.228  15.947  0.00  0.00    +0.000 HD
BRANCH  22  25
ATOM     25  C   UNL     1      49.094   7.154  17.602  0.00  0.00    +0.000 A 
ATOM     26  C   UNL     1      49.017   8.332  18.333  0.00  0.00    +0.000 A 
ATOM     27  S   UNL     1      48.812   8.081  20.009  0.00  0.00    +0.000 S 
ATOM     28  C   UNL     1      48.867   6.390  19.820  0.00  0.00    +0.000 A 
ATOM     29  N   UNL     1      48.766   5.559  20.892  0.00  0.00    +0.000 NA
ATOM     30  C   UNL     1      48.841   4.303  20.602  0.00  0.00    +0.000 A 
ATOM     31  N   UNL     1      49.007   3.800  19.337  0.00  0.00    +0.000 N 
ATOM     32  C   UNL     1      49.101   4.600  18.223  0.00  0.00    +0.000 A 
ATOM     33  O   UNL     1      49.204   4.116  17.102  0.00  0.00    +0.000 OA
ATOM     34  C   UNL     1      49.021   6.022  18.496  0.00  0.00    +0.000 A 
ATOM     35  H   UNL     1      49.042   2.806  19.174  0.00  0.00    +0.000 HD
ENDBRANCH  22  25
ENDBRANCH  20  21
ENDBRANCH   4  20
TORSDOF 6
ENDMDL
MODEL 3
REMARK VINA RESULT:    -7.955      3.704      9.875
REMARK INTER + INTRA:         -11.768
REMARK INTER:                 -10.839
REMARK INTRA:                  -0.929
REMARK UNBOUND:                -1.023
REMARK  Name = 
REMARK  7 active torsions:
REMARK  status: ('A' for Active; 'I' for Inactive)
REMARK    1  A    between atoms: C_1  and  C_2
REMARK    2  A    between atoms: C_2  and  N_3
REMARK    3  A    between atoms: C_2  and  C_12
REMARK    4  A    between atoms: C_4  and  C_6
REMARK    5  A    between atoms: C_15  and  C_16
REMARK    6  A    between atoms: C_16  and  N_17
REMARK    7  A    between atoms: C_18  and  C_20
REMARK                            x       y       z     vdW  Elec       q    Type
REMARK                         _______ _______ _______ _____ _____    ______ ____
ROOT
ATOM      1  C   UNL     1      51.403   2.964  17.713  0.00  0.00    +0.000 A 
ATOM      2  C   UNL     1      50.753   4.190  17.915  0.00  0.00    +0.000 A 
ATOM      3  C   UNL     1      49.389   4.333  17.636  0.00  0.00    +0.000 A 
ATOM      4  C   UNL     1      48.645   3.249  17.154  0.00  0.00    +0.000 A 
ATOM      5  C   UNL     1      49.306   2.044  16.886  0.00  0.00    +0.000 A 
ATOM      6  C   UNL     1      50.666   1.900  17.172  0.00  0.00    +0.000 A 
ENDROOT
BRANCH   1   8
ATOM      7  C   UNL     1      53.283   3.851  19.134  0.00  0.00    +0.000 C 
ATOM      8  C   UNL     1      52.863   2.802  18.094  0.00  0.00    +0.000 C 
BRANCH   8   9
ATOM      9  N   UNL     1      53.123   1.450  18.554  0.00  0.00    +0.000 N 
ATOM     10  C   UNL     1      53.937   0.574  17.877  0.00  0.00    +0.000 C 
ATOM     11  O   UNL     1      54.463   0.834  16.799  0.00  0.00    +0.000 OA
ATOM     12  H   UNL     1      52.782   1.142  19.461  0.00  0.00    +0.000 HD
BRANCH  10  13
ATOM     13  C   UNL     1      54.108  -0.802  18.560  0.00  0.00    +0.000 C 
ATOM     14  C   UNL     1      54.867  -1.767  17.644  0.00  0.00    +0.000 C 
ATOM     15  C   UNL     1      55.009  -3.145  18.292  0.00  0.00    +0.000 C 
ATOM     16  C   UNL     1      53.654  -3.666  18.764  0.00  0.00    +0.000 C 
ATOM     17  C   UNL     1      52.932  -2.632  19.625  0.00  0.00    +0.000 C 
ATOM     18  N   UNL     1      52.774  -1.360  18.912  0.00  0.00    +0.000 NA
ATOM     19  H   UNL     1      52.311  -0.694  19.535  0.00  0.00    +0.000 HD
ENDBRANCH  10  13
ENDBRANCH   8   9
ENDBRANCH   1   8
BRANCH   4  20
ATOM     20  C   UNL     1      47.160   3.361  16.928  0.00  0.00    +0.000 C 
BRANCH  20  21
ATOM     21  N   UNL     1      46.841   4.356  15.939  0.00  0.00    +0.000 N 
ATOM     22  C   UNL     1      46.989   4.098  14.599  0.00  0.00    +0.000 C 
ATOM     23  O   UNL     1      47.321   2.994  14.173  0.00  0.00    +0.000 OA
ATOM     24  H   UNL     1      46.798   5.318  16.259  0.00  0.00    +0.000 HD
BRANCH  22  25
ATOM     25  C   UNL     1      46.663   5.206  13.693  0.00  0.00    +0.000 A 
ATOM     26  C   UNL     1      47.587   6.218  13.469  0.00  0.00    +0.000 A 
ATOM     27  S   UNL     1      47.053   7.392  12.352  0.00  0.00    +0.000 S 
ATOM     28  C   UNL     1      45.550   6.615  12.166  0.00  0.00    +0.000 A 
ATOM     29  N   UNL     1      44.593   7.123  11.345  0.00  0.00    +0.000 NA
ATOM     30  C   UNL     1      43.499   6.439  11.314  0.00  0.00    +0.000 A 
ATOM     31  N   UNL     1      43.272   5.291  12.030  0.00  0.00    +0.000 N 
ATOM     32  C   UNL     1      44.213   4.734  12.862  0.00  0.00    +0.000 A 
ATOM     33  O   UNL     1      43.995   3.683  13.454  0.00  0.00    +0.000 OA
ATOM     34  C   UNL     1      45.464   5.466  12.930  0.00  0.00    +0.000 A 
ATOM     35  H   UNL     1      42.400   4.794  11.950  0.00  0.00    +0.000 HD
ENDBRANCH  22  25
ENDBRANCH  20  21
ENDBRANCH   4  20
TORSDOF 6
ENDMDL
MODEL 4
REMARK VINA RESULT:    -7.606      2.069      3.584
REMARK INTER + INTRA:         -11.297
REMARK INTER:                 -10.291
REMARK INTRA:                  -1.006
REMARK UNBOUND:                -1.023
REMARK  Name = 
REMARK  7 active torsions:
REMARK  status: ('A' for Active; 'I' for Inactive)
REMARK    1  A    between atoms: C_1  and  C_2
REMARK    2  A    between atoms: C_2  and  N_3
REMARK    3  A    between atoms: C_2  and  C_12
REMARK    4  A    between atoms: C_4  and  C_6
REMARK    5  A    between atoms: C_15  and  C_16
REMARK    6  A    between atoms: C_16  and  N_17
REMARK    7  A    between atoms: C_18  and  C_20
REMARK                            x       y       z     vdW  Elec       q    Type
REMARK                         _______ _______ _______ _____ _____    ______ ____
ROOT
ATOM      1  C   UNL     1      47.400   5.900  13.991  0.00  0.00    +0.000 A 
ATOM      2  C   UNL     1      46.814   4.658  14.274  0.00  0.00    +0.000 A 
ATOM      3  C   UNL     1      47.096   3.988  15.471  0.00  0.00    +0.000 A 
ATOM      4  C   UNL     1      47.967   4.551  16.412  0.00  0.00    +0.000 A 
ATOM      5  C   UNL     1      48.606   5.758  16.101  0.00  0.00    +0.000 A 
ATOM      6  C   UNL     1      48.318   6.429  14.910  0.00  0.00    +0.000 A 
ENDROOT
BRANCH   1   8
ATOM      7  C   UNL     1      48.230   7.414  12.158  0.00  0.00    +0.000 C 
ATOM      8  C   UNL     1      47.024   6.650  12.727  0.00  0.00    +0.000 C 
BRANCH   8   9
ATOM      9  N   UNL     1      46.448   5.744  11.749  0.00  0.00    +0.000 N 
ATOM     10  C   UNL     1      45.227   5.963  11.158  0.00  0.00    +0.000 C 
ATOM     11  O   UNL     1      44.493   6.903  11.447  0.00  0.00    +0.000 OA
ATOM     12  H   UNL     1      46.988   4.960  11.395  0.00  0.00    +0.000 HD
BRANCH  10  13
ATOM     13  C   UNL     1      44.817   4.895  10.118  0.00  0.00    +0.000 C 
ATOM     14  C   UNL     1      44.913   3.491  10.722  0.00  0.00    +0.000 C 
ATOM     15  C   UNL     1      44.548   2.421   9.691  0.00  0.00    +0.000 C 
ATOM     16  C   UNL     1      45.351   2.606   8.407  0.00  0.00    +0.000 C 
ATOM     17  C   UNL     1      45.253   4.041   7.894  0.00  0.00    +0.000 C 
ATOM     18  N   UNL     1      45.684   5.004   8.913  0.00  0.00    +0.000 NA
ATOM     19  H   UNL     1      45.575   5.947   8.534  0.00  0.00    +0.000 HD
ENDBRANCH  10  13
ENDBRANCH   8   9
ENDBRANCH   1   8
BRANCH   4  20
ATOM     20  C   UNL     1      48.217   3.886  17.740  0.00  0.00    +0.000 C 
BRANCH  20  21
ATOM     21  N   UNL     1      49.601   3.536  17.912  0.00  0.00    +0.000 N 
ATOM     22  C   UNL     1      50.161   2.489  17.223  0.00  0.00    +0.000 C 
ATOM     23  O   UNL     1      49.540   1.853  16.374  0.00  0.00    +0.000 OA
ATOM     24  H   UNL     1      50.056   3.878  18.752  0.00  0.00    +0.000 HD
BRANCH  22  25
ATOM     25  C   UNL     1      51.573   2.213  17.511  0.00  0.00    +0.000 A 
ATOM     26  C   UNL     1      52.012   0.903  17.648  0.00  0.00    +0.000 A 
ATOM     27  S   UNL     1      53.690   0.774  17.932  0.00  0.00    +0.000 S 
ATOM     28  C   UNL     1      53.878   2.465  17.929  0.00  0.00    +0.000 A 
ATOM     29  N   UNL     1      55.094   3.038  18.139  0.00  0.00    +0.000 NA
ATOM     30  C   UNL     1      55.085   4.329  18.126  0.00  0.00    +0.000 A 
ATOM     31  N   UNL     1      53.971   5.102  17.922  0.00  0.00    +0.000 N 
ATOM     32  C   UNL     1      52.725   4.569  17.693  0.00  0.00    +0.000 A 
ATOM     33  O   UNL     1      51.758   5.288  17.470  0.00  0.00    +0.000 OA
ATOM     34  C   UNL     1      52.682   3.119  17.696  0.00  0.00    +0.000 A 
ATOM     35  H   UNL     1      54.033   6.108  17.908  0.00  0.00    +0.000 HD
ENDBRANCH  22  25
ENDBRANCH  20  21
ENDBRANCH   4  20
TORSDOF 6
ENDMDL
MODEL 5
REMARK VINA RESULT:    -7.520      4.006      9.747
REMARK INTER + INTRA:         -11.181
REMARK INTER:                  -9.925
REMARK INTRA:                  -1.256
REMARK UNBOUND:                -1.023
REMARK  Name = 
REMARK  7 active torsions:
REMARK  status: ('A' for Active; 'I' for Inactive)
REMARK    1  A    between atoms: C_1  and  C_2
REMARK    2  A    between atoms: C_2  and  N_3
REMARK    3  A    between atoms: C_2  and  C_12
REMARK    4  A    between atoms: C_4  and  C_6
REMARK    5  A    between atoms: C_15  and  C_16
REMARK    6  A    between atoms: C_16  and  N_17
REMARK    7  A    between atoms: C_18  and  C_20
REMARK                            x       y       z     vdW  Elec       q    Type
REMARK                         _______ _______ _______ _____ _____    ______ ____
ROOT
ATOM      1  C   UNL     1      51.613   2.832  17.756  0.00  0.00    +0.000 A 
ATOM      2  C   UNL     1      51.025   4.066  18.069  0.00  0.00    +0.000 A 
ATOM      3  C   UNL     1      49.667   4.296  17.822  0.00  0.00    +0.000 A 
ATOM      4  C   UNL     1      48.866   3.292  17.263  0.00  0.00    +0.000 A 
ATOM      5  C   UNL     1      49.466   2.084  16.886  0.00  0.00    +0.000 A 
ATOM      6  C   UNL     1      50.821   1.853  17.139  0.00  0.00    +0.000 A 
ENDROOT
BRANCH   1   8
ATOM      7  C   UNL     1      53.578   3.576  19.144  0.00  0.00    +0.000 C 
ATOM      8  C   UNL     1      53.068   2.571  18.100  0.00  0.00    +0.000 C 
BRANCH   8   9
ATOM      9  N   UNL     1      53.250   1.198  18.536  0.00  0.00    +0.000 N 
ATOM     10  C   UNL     1      54.183   0.356  17.981  0.00  0.00    +0.000 C 
ATOM     11  O   UNL     1      54.897   0.667  17.032  0.00  0.00    +0.000 OA
ATOM     12  H   UNL     1      52.751   0.848  19.348  0.00  0.00    +0.000 HD
BRANCH  10  13
ATOM     13  C   UNL     1      54.237  -1.052  18.618  0.00  0.00    +0.000 C 
ATOM     14  C   UNL     1      54.868  -2.057  17.650  0.00  0.00    +0.000 C 
ATOM     15  C   UNL     1      54.892  -3.462  18.253  0.00  0.00    +0.000 C 
ATOM     16  C   UNL     1      53.507  -3.862  18.755  0.00  0.00    +0.000 C 
ATOM     17  C   UNL     1      52.918  -2.789  19.669  0.00  0.00    +0.000 C 
ATOM     18  N   UNL     1      52.865  -1.486  18.998  0.00  0.00    +0.000 NA
ATOM     19  H   UNL     1      52.491  -0.798  19.655  0.00  0.00    +0.000 HD
ENDBRANCH  10  13
ENDBRANCH   8   9
ENDBRANCH   1   8
BRANCH   4  20
ATOM     20  C   UNL     1      47.386   3.492  17.069  0.00  0.00    +0.000 C 
BRANCH  20  21
ATOM     21  N   UNL     1      47.105   4.505  16.088  0.00  0.00    +0.000 N 
ATOM     22  C   UNL     1      47.127   4.219  14.745  0.00  0.00    +0.000 C 
ATOM     23  O   UNL     1      47.305   3.082  14.317  0.00  0.00    +0.000 OA
ATOM     24  H   UNL     1      47.189   5.469  16.393  0.00  0.00    +0.000 HD
BRANCH  22  25
ATOM     25  C   UNL     1      46.856   5.347  13.846  0.00  0.00    +0.000 A 
ATOM     26  C   UNL     1      45.732   5.332  13.031  0.00  0.00    +0.000 A 
ATOM     27  S   UNL     1      45.555   6.745  12.090  0.00  0.00    +0.000 S 
ATOM     28  C   UNL     1      46.999   7.403  12.704  0.00  0.00    +0.000 A 
ATOM     29  N   UNL     1      47.451   8.617  12.290  0.00  0.00    +0.000 NA
ATOM     30  C   UNL     1      48.567   8.983  12.826  0.00  0.00    +0.000 A 
ATOM     31  N   UNL     1      49.274   8.247  13.742  0.00  0.00    +0.000 N 
ATOM     32  C   UNL     1      48.850   7.022  14.201  0.00  0.00    +0.000 A 
ATOM     33  O   UNL     1      49.484   6.410  15.053  0.00  0.00    +0.000 OA
ATOM     34  C   UNL     1      47.598   6.566  13.627  0.00  0.00    +0.000 A 
ATOM     35  H   UNL     1      50.133   8.596  14.137  0.00  0.00    +0.000 HD
ENDBRANCH  22  25
ENDBRANCH  20  21
ENDBRANCH   4  20
TORSDOF 6
ENDMDL
MODEL 6
REMARK VINA RESULT:    -7.513      1.969      3.021
REMARK INTER + INTRA:         -11.172
REMARK INTER:                 -10.123
REMARK INTRA:                  -1.048
REMARK UNBOUND:                -1.023
REMARK  Name = 
REMARK  7 active torsions:
REMARK  status: ('A' for Active; 'I' for Inactive)
REMARK    1  A    between atoms: C_1  and  C_2
REMARK    2  A    between atoms: C_2  and  N_3
REMARK    3  A    between atoms: C_2  and  C_12
REMARK    4  A    between atoms: C_4  and  C_6
REMARK    5  A    between atoms: C_15  and  C_16
REMARK    6  A    between atoms: C_16  and  N_17
REMARK    7  A    between atoms: C_18  and  C_20
REMARK                            x       y       z     vdW  Elec       q    Type
REMARK                         _______ _______ _______ _____ _____    ______ ____
ROOT
ATOM      1  C   UNL     1      47.281   6.073  13.883  0.00  0.00    +0.000 A 
ATOM      2  C   UNL     1      46.760   4.828  14.265  0.00  0.00    +0.000 A 
ATOM      3  C   UNL     1      47.192   4.201  15.440  0.00  0.00    +0.000 A 
ATOM      4  C   UNL     1      48.151   4.809  16.259  0.00  0.00    +0.000 A 
ATOM      5  C   UNL     1      48.723   6.018  15.843  0.00  0.00    +0.000 A 
ATOM      6  C   UNL     1      48.286   6.647  14.675  0.00  0.00    +0.000 A 
ENDROOT
BRANCH   1   8
ATOM      7  C   UNL     1      47.811   7.698  12.034  0.00  0.00    +0.000 C 
ATOM      8  C   UNL     1      46.747   6.776  12.649  0.00  0.00    +0.000 C 
BRANCH   8   9
ATOM      9  N   UNL     1      46.248   5.810  11.687  0.00  0.00    +0.000 N 
ATOM     10  C   UNL     1      45.004   5.905  11.110  0.00  0.00    +0.000 C 
ATOM     11  O   UNL     1      44.187   6.774  11.400  0.00  0.00    +0.000 OA
ATOM     12  H   UNL     1      46.856   5.077  11.333  0.00  0.00    +0.000 HD
BRANCH  10  13
ATOM     13  C   UNL     1      44.685   4.792  10.085  0.00  0.00    +0.000 C 
ATOM     14  C   UNL     1      44.886   3.409  10.712  0.00  0.00    +0.000 C 
ATOM     15  C   UNL     1      44.611   2.299   9.697  0.00  0.00    +0.000 C 
ATOM     16  C   UNL     1      45.406   2.525   8.415  0.00  0.00    +0.000 C 
ATOM     17  C   UNL     1      45.201   3.940   7.878  0.00  0.00    +0.000 C 
ATOM     18  N   UNL     1      45.549   4.949   8.884  0.00  0.00    +0.000 NA
ATOM     19  H   UNL     1      45.370   5.875   8.489  0.00  0.00    +0.000 HD
ENDBRANCH  10  13
ENDBRANCH   8   9
ENDBRANCH   1   8
BRANCH   4  20
ATOM     20  C   UNL     1      48.566   4.190  17.569  0.00  0.00    +0.000 C 
BRANCH  20  21
ATOM     21  N   UNL     1      49.952   3.808  17.565  0.00  0.00    +0.000 N 
ATOM     22  C   UNL     1      50.792   4.172  18.589  0.00  0.00    +0.000 C 
ATOM     23  O   UNL     1      50.394   4.766  19.587  0.00  0.00    +0.000 OA
ATOM     24  H   UNL     1      50.347   3.534  16.672  0.00  0.00    +0.000 HD
BRANCH  22  25
ATOM     25  C   UNL     1      52.190   3.748  18.452  0.00  0.00    +0.000 A 
ATOM     26  C   UNL     1      53.218   4.625  18.774  0.00  0.00    +0.000 A 
ATOM     27  S   UNL     1      54.773   3.945  18.600  0.00  0.00    +0.000 S 
ATOM     28  C   UNL     1      54.129   2.472  18.041  0.00  0.00    +0.000 A 
ATOM     29  N   UNL     1      54.939   1.439  17.688  0.00  0.00    +0.000 NA
ATOM     30  C   UNL     1      54.314   0.390  17.268  0.00  0.00    +0.000 A 
ATOM     31  N   UNL     1      52.951   0.278  17.168  0.00  0.00    +0.000 N 
ATOM     32  C   UNL     1      52.092   1.290  17.525  0.00  0.00    +0.000 A 
ATOM     33  O   UNL     1      50.877   1.142  17.466  0.00  0.00    +0.000 OA
ATOM     34  C   UNL     1      52.746   2.492  18.007  0.00  0.00    +0.000 A 
ATOM     35  H   UNL     1      52.522  -0.575  16.846  0.00  0.00    +0.000 HD
ENDBRANCH  22  25
ENDBRANCH  20  21
ENDBRANCH   4  20
TORSDOF 6
ENDMDL
MODEL 7
REMARK VINA RESULT:    -7.314      2.712      3.982
REMARK INTER + INTRA:         -10.903
REMARK INTER:                 -10.011
REMARK INTRA:                  -0.891
REMARK UNBOUND:                -1.023
REMARK  Name = 
REMARK  7 active torsions:
REMARK  status: ('A' for Active; 'I' for Inactive)
REMARK    1  A    between atoms: C_1  and  C_2
REMARK    2  A    between atoms: C_2  and  N_3
REMARK    3  A    between atoms: C_2  and  C_12
REMARK    4  A    between atoms: C_4  and  C_6
REMARK    5  A    between atoms: C_15  and  C_16
REMARK    6  A    between atoms: C_16  and  N_17
REMARK    7  A    between atoms: C_18  and  C_20
REMARK                            x       y       z     vdW  Elec       q    Type
REMARK                         _______ _______ _______ _____ _____    ______ ____
ROOT
ATOM      1  C   UNL     1      46.120   7.476  12.311  0.00  0.00    +0.000 A 
ATOM      2  C   UNL     1      47.225   6.678  11.981  0.00  0.00    +0.000 A 
ATOM      3  C   UNL     1      48.432   6.802  12.679  0.00  0.00    +0.000 A 
ATOM      4  C   UNL     1      48.557   7.723  13.726  0.00  0.00    +0.000 A 
ATOM      5  C   UNL     1      47.477   8.568  14.011  0.00  0.00    +0.000 A 
ATOM      6  C   UNL     1      46.270   8.439  13.320  0.00  0.00    +0.000 A 
ENDROOT
BRANCH   1   8
ATOM      7  C   UNL     1      44.293   8.593  10.987  0.00  0.00    +0.000 C 
ATOM      8  C   UNL     1      44.795   7.277  11.599  0.00  0.00    +0.000 C 
BRANCH   8   9
ATOM      9  N   UNL     1      44.905   6.225  10.603  0.00  0.00    +0.000 N 
ATOM     10  C   UNL     1      44.185   5.057  10.670  0.00  0.00    +0.000 C 
ATOM     11  O   UNL     1      43.438   4.773  11.601  0.00  0.00    +0.000 OA
ATOM     12  H   UNL     1      45.453   6.372   9.761  0.00  0.00    +0.000 HD
BRANCH  10  13
ATOM     13  C   UNL     1      44.424   4.088   9.489  0.00  0.00    +0.000 C 
ATOM     14  C   UNL     1      44.835   2.704  10.002  0.00  0.00    +0.000 C 
ATOM     15  C   UNL     1      45.113   1.747   8.842  0.00  0.00    +0.000 C 
ATOM     16  C   UNL     1      46.096   2.364   7.851  0.00  0.00    +0.000 C 
ATOM     17  C   UNL     1      45.651   3.761   7.426  0.00  0.00    +0.000 C 
ATOM     18  N   UNL     1      45.471   4.640   8.586  0.00  0.00    +0.000 NA
ATOM     19  H   UNL     1      45.148   5.553   8.255  0.00  0.00    +0.000 HD
ENDBRANCH  10  13
ENDBRANCH   8   9
ENDBRANCH   1   8
BRANCH   4  20
ATOM     20  C   UNL     1      49.820   7.810  14.543  0.00  0.00    +0.000 C 
BRANCH  20  21
ATOM     21  N   UNL     1      49.560   7.658  15.950  0.00  0.00    +0.000 N 
ATOM     22  C   UNL     1      49.072   6.480  16.459  0.00  0.00    +0.000 C 
ATOM     23  O   UNL     1      48.908   5.481  15.764  0.00  0.00    +0.000 OA
ATOM     24  H   UNL     1      49.462   8.512  16.489  0.00  0.00    +0.000 HD
BRANCH  22  25
ATOM     25  C   UNL     1      48.818   6.463  17.904  0.00  0.00    +0.000 A 
ATOM     26  C   UNL     1      49.125   5.334  18.651  0.00  0.00    +0.000 A 
ATOM     27  S   UNL     1      48.808   5.514  20.318  0.00  0.00    +0.000 S 
ATOM     28  C   UNL     1      48.206   7.089  20.092  0.00  0.00    +0.000 A 
ATOM     29  N   UNL     1      47.739   7.821  21.139  0.00  0.00    +0.000 NA
ATOM     30  C   UNL     1      47.298   8.991  20.818  0.00  0.00    +0.000 A 
ATOM     31  N   UNL     1      47.282   9.499  19.544  0.00  0.00    +0.000 N 
ATOM     32  C   UNL     1      47.755   8.803  18.458  0.00  0.00    +0.000 A 
ATOM     33  O   UNL     1      47.766   9.303  17.339  0.00  0.00    +0.000 OA
ATOM     34  C   UNL     1      48.263   7.480  18.767  0.00  0.00    +0.000 A 
ATOM     35  H   UNL     1      46.938  10.428  19.361  0.00  0.00    +0.000 HD
ENDBRANCH  22  25
ENDBRANCH  20  21
ENDBRANCH   4  20
TORSDOF 6
ENDMDL
MODEL 8
REMARK VINA RESULT:    -7.055      3.449      9.279
REMARK INTER + INTRA:         -10.553
REMARK INTER:                  -9.343
REMARK INTRA:                  -1.210
REMARK UNBOUND:                -1.023
REMARK  Name = 
REMARK  7 active torsions:
REMARK  status: ('A' for Active; 'I' for Inactive)
REMARK    1  A    between atoms: C_1  and  C_2
REMARK    2  A    between atoms: C_2  and  N_3
REMARK    3  A    between atoms: C_2  and  C_12
REMARK    4  A    between atoms: C_4  and  C_6
REMARK    5  A    between atoms: C_15  and  C_16
REMARK    6  A    between atoms: C_16  and  N_17
REMARK    7  A    between atoms: C_18  and  C_20
REMARK                            x       y       z     vdW  Elec       q    Type
REMARK                         _______ _______ _______ _____ _____    ______ ____
ROOT
ATOM      1  C   UNL     1      49.392   5.302  17.330  0.00  0.00    +0.000 A 
ATOM      2  C   UNL     1      48.260   4.857  16.632  0.00  0.00    +0.000 A 
ATOM      3  C   UNL     1      47.866   5.473  15.438  0.00  0.00    +0.000 A 
ATOM      4  C   UNL     1      48.602   6.542  14.914  0.00  0.00    +0.000 A 
ATOM      5  C   UNL     1      49.692   7.032  15.644  0.00  0.00    +0.000 A 
ATOM      6  C   UNL     1      50.088   6.413  16.832  0.00  0.00    +0.000 A 
ENDROOT
BRANCH   1   8
ATOM      7  C   UNL     1      48.676   3.866  19.271  0.00  0.00    +0.000 C 
ATOM      8  C   UNL     1      49.851   4.576  18.581  0.00  0.00    +0.000 C 
BRANCH   8   9
ATOM      9  N   UNL     1      50.931   3.657  18.270  0.00  0.00    +0.000 N 
ATOM     10  C   UNL     1      52.199   3.794  18.783  0.00  0.00    +0.000 C 
ATOM     11  O   UNL     1      52.544   4.734  19.493  0.00  0.00    +0.000 OA
ATOM     12  H   UNL     1      50.749   2.814  17.734  0.00  0.00    +0.000 HD
BRANCH  10  13
ATOM     13  C   UNL     1      53.188   2.686  18.354  0.00  0.00    +0.000 C 
ATOM     14  C   UNL     1      52.443   1.534  17.674  0.00  0.00    +0.000 C 
ATOM     15  C   UNL     1      53.406   0.413  17.279  0.00  0.00    +0.000 C 
ATOM     16  C   UNL     1      54.264  -0.011  18.467  0.00  0.00    +0.000 C 
ATOM     17  C   UNL     1      54.930   1.194  19.128  0.00  0.00    +0.000 C 
ATOM     18  N   UNL     1      53.939   2.193  19.540  0.00  0.00    +0.000 NA
ATOM     19  H   UNL     1      54.433   2.989  19.950  0.00  0.00    +0.000 HD
ENDBRANCH  10  13
ENDBRANCH   8   9
ENDBRANCH   1   8
BRANCH   4  20
ATOM     20  C   UNL     1      48.244   7.161  13.588  0.00  0.00    +0.000 C 
BRANCH  20  21
ATOM     21  N   UNL     1      47.509   6.250  12.752  0.00  0.00    +0.000 N 
ATOM     22  C   UNL     1      46.532   6.698  11.898  0.00  0.00    +0.000 C 
ATOM     23  O   UNL     1      46.290   7.893  11.745  0.00  0.00    +0.000 OA
ATOM     24  H   UNL     1      47.522   5.273  13.024  0.00  0.00    +0.000 HD
BRANCH  22  25
ATOM     25  C   UNL     1      45.834   5.665  11.124  0.00  0.00    +0.000 A 
ATOM     26  C   UNL     1      45.948   5.637   9.740  0.00  0.00    +0.000 A 
ATOM     27  S   UNL     1      45.109   4.340   9.015  0.00  0.00    +0.000 S 
ATOM     28  C   UNL     1      44.526   3.800  10.520  0.00  0.00    +0.000 A 
ATOM     29  N   UNL     1      43.712   2.715  10.611  0.00  0.00    +0.000 NA
ATOM     30  C   UNL     1      43.334   2.430  11.812  0.00  0.00    +0.000 A 
ATOM     31  N   UNL     1      43.696   3.132  12.933  0.00  0.00    +0.000 N 
ATOM     32  C   UNL     1      44.526   4.226  12.893  0.00  0.00    +0.000 A 
ATOM     33  O   UNL     1      44.865   4.804  13.919  0.00  0.00    +0.000 OA
ATOM     34  C   UNL     1      44.980   4.587  11.563  0.00  0.00    +0.000 A 
ATOM     35  H   UNL     1      43.378   2.849  13.847  0.00  0.00    +0.000 HD
ENDBRANCH  22  25
ENDBRANCH  20  21
ENDBRANCH   4  20
TORSDOF 6
ENDMDL
MODEL 9
REMARK VINA RESULT:    -6.965      2.982      9.024
REMARK INTER + INTRA:         -10.432
REMARK INTER:                  -9.282
REMARK INTRA:                  -1.150
REMARK UNBOUND:                -1.023
REMARK  Name = 
REMARK  7 active torsions:
REMARK  status: ('A' for Active; 'I' for Inactive)
REMARK    1  A    between atoms: C_1  and  C_2
REMARK    2  A    between atoms: C_2  and  N_3
REMARK    3  A    between atoms: C_2  and  C_12
REMARK    4  A    between atoms: C_4  and  C_6
REMARK    5  A    between atoms: C_15  and  C_16
REMARK    6  A    between atoms: C_16  and  N_17
REMARK    7  A    between atoms: C_18  and  C_20
REMARK                            x       y       z     vdW  Elec       q    Type
REMARK                         _______ _______ _______ _____ _____    ______ ____
ROOT
ATOM      1  C   UNL     1      49.299   7.951  15.460  0.00  0.00    +0.000 A 
ATOM      2  C   UNL     1      48.146   8.721  15.246  0.00  0.00    +0.000 A 
ATOM      3  C   UNL     1      47.518   8.737  13.996  0.00  0.00    +0.000 A 
ATOM      4  C   UNL     1      48.026   7.978  12.934  0.00  0.00    +0.000 A 
ATOM      5  C   UNL     1      49.215   7.264  13.127  0.00  0.00    +0.000 A 
ATOM      6  C   UNL     1      49.838   7.242  14.377  0.00  0.00    +0.000 A 
ENDROOT
BRANCH   1   8
ATOM      7  C   UNL     1      49.086   8.658  17.868  0.00  0.00    +0.000 C 
ATOM      8  C   UNL     1      49.924   7.882  16.841  0.00  0.00    +0.000 C 
BRANCH   8   9
ATOM      9  N   UNL     1      50.126   6.501  17.241  0.00  0.00    +0.000 N 
ATOM     10  C   UNL     1      51.373   5.939  17.383  0.00  0.00    +0.000 C 
ATOM     11  O   UNL     1      52.416   6.532  17.125  0.00  0.00    +0.000 OA
ATOM     12  H   UNL     1      49.337   5.929  17.529  0.00  0.00    +0.000 HD
BRANCH  10  13
ATOM     13  C   UNL     1      51.363   4.466  17.852  0.00  0.00    +0.000 C 
ATOM     14  C   UNL     1      52.767   3.862  17.759  0.00  0.00    +0.000 C 
ATOM     15  C   UNL     1      52.764   2.393  18.184  0.00  0.00    +0.000 C 
ATOM     16  C   UNL     1      51.695   1.610  17.427  0.00  0.00    +0.000 C 
ATOM     17  C   UNL     1      50.336   2.299  17.518  0.00  0.00    +0.000 C 
ATOM     18  N   UNL     1      50.403   3.680  17.030  0.00  0.00    +0.000 NA
ATOM     19  H   UNL     1      49.479   4.107  17.136  0.00  0.00    +0.000 HD
ENDBRANCH  10  13
ENDBRANCH   8   9
ENDBRANCH   1   8
BRANCH   4  20
ATOM     20  C   UNL     1      47.315   7.917  11.607  0.00  0.00    +0.000 C 
BRANCH  20  21
ATOM     21  N   UNL     1      46.670   6.647  11.403  0.00  0.00    +0.000 N 
ATOM     22  C   UNL     1      45.309   6.516  11.520  0.00  0.00    +0.000 C 
ATOM     23  O   UNL     1      44.569   7.475  11.724  0.00  0.00    +0.000 OA
ATOM     24  H   UNL     1      47.257   5.823  11.469  0.00  0.00    +0.000 HD
BRANCH  22  25
ATOM     25  C   UNL     1      44.776   5.163  11.320  0.00  0.00    +0.000 A 
ATOM     26  C   UNL     1      44.043   4.547  12.326  0.00  0.00    +0.000 A 
ATOM     27  S   UNL     1      43.465   3.000  11.897  0.00  0.00    +0.000 S 
ATOM     28  C   UNL     1      44.214   3.080  10.371  0.00  0.00    +0.000 A 
ATOM     29  N   UNL     1      44.126   2.048   9.490  0.00  0.00    +0.000 NA
ATOM     30  C   UNL     1      44.756   2.239   8.380  0.00  0.00    +0.000 A 
ATOM     31  N   UNL     1      45.467   3.370   8.068  0.00  0.00    +0.000 N 
ATOM     32  C   UNL     1      45.573   4.443   8.920  0.00  0.00    +0.000 A 
ATOM     33  O   UNL     1      46.180   5.456   8.592  0.00  0.00    +0.000 OA
ATOM     34  C   UNL     1      44.880   4.277  10.184  0.00  0.00    +0.000 A 
ATOM     35  H   UNL     1      45.925   3.465   7.175  0.00  0.00    +0.000 HD
ENDBRANCH  22  25
ENDBRANCH  20  21
ENDBRANCH   4  20
TORSDOF 6
ENDMDL
