MODEL 1
REMARK VINA RESULT:    -8.396      0.000      0.000
REMARK INTER + INTRA:         -12.947
REMARK INTER:                 -12.077
REMARK INTRA:                  -0.870
REMARK UNBOUND:                -0.870
REMARK  Name = 
REMARK  8 active torsions:
REMARK  status: ('A' for Active; 'I' for Inactive)
REMARK    1  A    between atoms: N_1  and  C_2
REMARK    2  A    between atoms: C_2  and  C_3
REMARK    3  A    between atoms: C_3  and  N_4
REMARK    4  A    between atoms: C_3  and  C_17
REMARK    5  A    between atoms: C_5  and  C_7
REMARK    6  A    between atoms: C_20  and  O_21
REMARK    7  A    between atoms: O_21  and  C_22
REMARK    8  A    between atoms: C_22  and  C_23
REMARK                            x       y       z     vdW  Elec       q    Type
REMARK                         _______ _______ _______ _____ _____    ______ ____
ROOT
ATOM      1  C   UNL     1      46.584   7.934  12.739  0.00  0.00    +0.000 C 
ENDROOT
BRANCH   1   2
ATOM      2  C   UNL     1      45.939   6.810  11.937  0.00  0.00    +0.000 A 
ATOM      3  C   UNL     1      44.889   6.067  12.497  0.00  0.00    +0.000 A 
ATOM      4  C   UNL     1      44.253   5.053  11.770  0.00  0.00    +0.000 A 
ATOM      5  C   UNL     1      44.655   4.773  10.465  0.00  0.00    +0.000 A 
ATOM      6  C   UNL     1      45.710   5.493   9.905  0.00  0.00    +0.000 A 
ATOM      7  C   UNL     1      46.341   6.509  10.626  0.00  0.00    +0.000 A 
BRANCH   5   8
ATOM      8  O   UNL     1      44.133   3.789   9.672  0.00  0.00    +0.000 OA
BRANCH   8   9
ATOM      9  C   UNL     1      44.791   2.518   9.737  0.00  0.00    +0.000 C 
BRANCH   9  10
ATOM     10  C   UNL     1      45.622   2.330   8.484  0.00  0.00    +0.000 A 
ATOM     11  C   UNL     1      45.647   3.331   7.512  0.00  0.00    +0.000 A 
ATOM     12  C   UNL     1      46.426   3.149   6.373  0.00  0.00    +0.000 A 
ATOM     13  C   UNL     1      47.159   1.978   6.231  0.00  0.00    +0.000 A 
ATOM     14  C   UNL     1      47.084   1.034   7.241  0.00  0.00    +0.000 A 
ATOM     15  N   UNL     1      46.343   1.185   8.362  0.00  0.00    +0.000 NA
ENDBRANCH   9  10
ENDBRANCH   8   9
ENDBRANCH   5   8
ENDBRANCH   1   2
BRANCH   1  16
ATOM     16  N   UNL     1      47.078   7.391  13.997  0.00  0.00    +0.000 N 
ATOM     17  C   UNL     1      48.368   6.968  14.167  0.00  0.00    +0.000 C 
ATOM     18  O   UNL     1      49.214   7.078  13.286  0.00  0.00    +0.000 OA
ATOM     19  H   UNL     1      46.391   7.216  14.725  0.00  0.00    +0.000 HD
BRANCH  17  20
ATOM     20  C   UNL     1      48.704   6.392  15.478  0.00  0.00    +0.000 A 
ATOM     21  C   UNL     1      49.671   6.999  16.268  0.00  0.00    +0.000 A 
ATOM     22  S   UNL     1      49.981   6.172  17.728  0.00  0.00    +0.000 S 
ATOM     23  C   UNL     1      48.866   4.948  17.334  0.00  0.00    +0.000 A 
ATOM     24  N   UNL     1      48.693   3.872  18.147  0.00  0.00    +0.000 NA
ATOM     25  C   UNL     1      47.852   2.997  17.702  0.00  0.00    +0.000 A 
ATOM     26  N   UNL     1      47.146   3.118  16.533  0.00  0.00    +0.000 N 
ATOM     27  C   UNL     1      47.213   4.238  15.736  0.00  0.00    +0.000 A 
ATOM     28  O   UNL     1      46.438   4.399  14.805  0.00  0.00    +0.000 OA
ATOM     29  C   UNL     1      48.216   5.202  16.139  0.00  0.00    +0.000 A 
ATOM     30  H   UNL     1      46.458   2.427  16.271  0.00  0.00    +0.000 HD
ENDBRANCH  17  20
ENDBRANCH   1  16
BRANCH   1  31
ATOM     31  C   UNL     1      45.625   9.139  12.978  0.00  0.00    +0.000 C 
BRANCH  31  32
ATOM     32  N   UNL     1      46.052  10.391  12.338  0.00  0.00    +0.000 NA
ATOM     33  H   UNL     1      45.801  10.363  11.350  0.00  0.00    +0.000 HD
ATOM     34  H   UNL     1      47.070  10.462  12.372  0.00  0.00    +0.000 HD
ENDBRANCH  31  32
ENDBRANCH   1  31
TORSDOF 8
ENDMDL
MODEL 2
REMARK VINA RESULT:    -8.230      2.226      2.888
REMARK INTER + INTRA:         -12.708
REMARK INTER:                 -11.494
REMARK INTRA:                  -1.214
REMARK UNBOUND:                -0.870
REMARK  Name = 
REMARK  8 active torsions:
REMARK  status: ('A' for Active; 'I' for Inactive)
REMARK    1  A    between atoms: N_1  and  C_2
REMARK    2  A    between atoms: C_2  and  C_3
REMARK    3  A    between atoms: C_3  and  N_4
REMARK    4  A    between atoms: C_3  and  C_17
REMARK    5  A    between atoms: C_5  and  C_7
REMARK    6  A    between atoms: C_20  and  O_21
REMARK    7  A    between atoms: O_21  and  C_22
REMARK    8  A    between atoms: C_22  and  C_23
REMARK                            x       y       z     vdW  Elec       q    Type
REMARK                         _______ _______ _______ _____ _____    ______ ____
ROOT
ATOM      1  C   UNL     1      47.937   6.958  13.750  0.00  0.00    +0.000 C 
ENDROOT
BRANCH   1   2
ATOM      2  C   UNL     1      46.953   6.148  12.912  0.00  0.00    +0.000 A 
ATOM      3  C   UNL     1      46.514   6.645  11.676  0.00  0.00    +0.000 A 
ATOM      4  C   UNL     1      45.640   5.907  10.870  0.00  0.00    +0.000 A 
ATOM      5  C   UNL     1      45.197   4.652  11.286  0.00  0.00    +0.000 A 
ATOM      6  C   UNL     1      45.613   4.156  12.521  0.00  0.00    +0.000 A 
ATOM      7  C   UNL     1      46.490   4.888  13.325  0.00  0.00    +0.000 A 
BRANCH   5   8
ATOM      8  O   UNL     1      44.320   3.857  10.601  0.00  0.00    +0.000 OA
BRANCH   8   9
ATOM      9  C   UNL     1      44.201   4.121   9.199  0.00  0.00    +0.000 C 
BRANCH   9  10
ATOM     10  C   UNL     1      45.276   3.350   8.460  0.00  0.00    +0.000 A 
ATOM     11  C   UNL     1      45.454   1.991   8.716  0.00  0.00    +0.000 A 
ATOM     12  C   UNL     1      46.437   1.293   8.019  0.00  0.00    +0.000 A 
ATOM     13  C   UNL     1      47.215   1.966   7.086  0.00  0.00    +0.000 A 
ATOM     14  C   UNL     1      46.975   3.315   6.887  0.00  0.00    +0.000 A 
ATOM     15  N   UNL     1      46.024   4.018   7.543  0.00  0.00    +0.000 NA
ENDBRANCH   9  10
ENDBRANCH   8   9
ENDBRANCH   5   8
ENDBRANCH   1   2
BRANCH   1  16
ATOM     16  N   UNL     1      47.902   6.468  15.120  0.00  0.00    +0.000 N 
ATOM     17  C   UNL     1      49.029   6.305  15.879  0.00  0.00    +0.000 C 
ATOM     18  O   UNL     1      50.142   6.624  15.473  0.00  0.00    +0.000 OA
ATOM     19  H   UNL     1      47.010   6.125  15.465  0.00  0.00    +0.000 HD
BRANCH  17  20
ATOM     20  C   UNL     1      48.841   5.749  17.228  0.00  0.00    +0.000 A 
ATOM     21  C   UNL     1      49.049   4.394  17.448  0.00  0.00    +0.000 A 
ATOM     22  S   UNL     1      48.732   3.905  19.051  0.00  0.00    +0.000 S 
ATOM     23  C   UNL     1      48.261   5.478  19.496  0.00  0.00    +0.000 A 
ATOM     24  N   UNL     1      47.798   5.743  20.747  0.00  0.00    +0.000 NA
ATOM     25  C   UNL     1      47.431   6.968  20.932  0.00  0.00    +0.000 A 
ATOM     26  N   UNL     1      47.517   7.959  19.989  0.00  0.00    +0.000 N 
ATOM     27  C   UNL     1      48.077   7.758  18.748  0.00  0.00    +0.000 A 
ATOM     28  O   UNL     1      48.311   8.696  17.999  0.00  0.00    +0.000 OA
ATOM     29  C   UNL     1      48.410   6.379  18.456  0.00  0.00    +0.000 A 
ATOM     30  H   UNL     1      47.270   8.912  20.215  0.00  0.00    +0.000 HD
ENDBRANCH  17  20
ENDBRANCH   1  16
BRANCH   1  31
ATOM     31  C   UNL     1      47.670   8.492  13.688  0.00  0.00    +0.000 C 
BRANCH  31  32
ATOM     32  N   UNL     1      47.334   9.102  14.982  0.00  0.00    +0.000 NA
ATOM     33  H   UNL     1      47.129   8.365  15.655  0.00  0.00    +0.000 HD
ATOM     34  H   UNL     1      46.476   9.649  14.888  0.00  0.00    +0.000 HD
ENDBRANCH  31  32
ENDBRANCH   1  31
TORSDOF 8
ENDMDL
MODEL 3
REMARK VINA RESULT:    -7.799      2.721      4.220
REMARK INTER + INTRA:         -12.089
REMARK INTER:                 -10.786
REMARK INTRA:                  -1.303
REMARK UNBOUND:                -0.870
REMARK  Name = 
REMARK  8 active torsions:
REMARK  status: ('A' for Active; 'I' for Inactive)
REMARK    1  A    between atoms: N_1  and  C_2
REMARK    2  A    between atoms: C_2  and  C_3
REMARK    3  A    between atoms: C_3  and  N_4
REMARK    4  A    between atoms: C_3  and  C_17
REMARK    5  A    between atoms: C_5  and  C_7
REMARK    6  A    between atoms: C_20  and  O_21
REMARK    7  A    between atoms: O_21  and  C_22
REMARK    8  A    between atoms: C_22  and  C_23
REMARK                            x       y       z     vdW  Elec       q    Type
REMARK                         _______ _______ _______ _____ _____    ______ ____
ROOT
ATOM      1  C   UNL     1      46.736   5.692  14.057  0.00  0.00    +0.000 C 
ENDROOT
BRANCH   1   2
ATOM      2  C   UNL     1      46.026   5.115  12.836  0.00  0.00    +0.000 A 
ATOM      3  C   UNL     1      45.861   5.904  11.688  0.00  0.00    +0.000 A 
ATOM      4  C   UNL     1      45.246   5.389  10.540  0.00  0.00    +0.000 A 
ATOM      5  C   UNL     1      44.795   4.070  10.523  0.00  0.00    +0.000 A 
ATOM      6  C   UNL     1      44.937   3.283  11.665  0.00  0.00    +0.000 A 
ATOM      7  C   UNL     1      45.555   3.793  12.809  0.00  0.00    +0.000 A 
BRANCH   5   8
ATOM      8  O   UNL     1      44.152   3.470   9.475  0.00  0.00    +0.000 OA
BRANCH   8   9
ATOM      9  C   UNL     1      44.555   2.128   9.180  0.00  0.00    +0.000 C 
BRANCH   9  10
ATOM     10  C   UNL     1      45.657   2.162   8.140  0.00  0.00    +0.000 A 
ATOM     11  C   UNL     1      45.788   3.272   7.307  0.00  0.00    +0.000 A 
ATOM     12  C   UNL     1      46.814   3.295   6.365  0.00  0.00    +0.000 A 
ATOM     13  C   UNL     1      47.681   2.213   6.279  0.00  0.00    +0.000 A 
ATOM     14  C   UNL     1      47.486   1.150   7.145  0.00  0.00    +0.000 A 
ATOM     15  N   UNL     1      46.504   1.102   8.073  0.00  0.00    +0.000 NA
ENDBRANCH   9  10
ENDBRANCH   8   9
ENDBRANCH   5   8
ENDBRANCH   1   2
BRANCH   1  16
ATOM     16  N   UNL     1      47.880   6.473  13.610  0.00  0.00    +0.000 N 
ATOM     17  C   UNL     1      47.861   7.839  13.530  0.00  0.00    +0.000 C 
ATOM     18  O   UNL     1      46.894   8.502  13.893  0.00  0.00    +0.000 OA
ATOM     19  H   UNL     1      48.670   5.959  13.232  0.00  0.00    +0.000 HD
BRANCH  17  20
ATOM     20  C   UNL     1      49.074   8.486  13.009  0.00  0.00    +0.000 A 
ATOM     21  C   UNL     1      48.994   9.288  11.879  0.00  0.00    +0.000 A 
ATOM     22  S   UNL     1      50.499   9.913  11.375  0.00  0.00    +0.000 S 
ATOM     23  C   UNL     1      51.318   9.096  12.623  0.00  0.00    +0.000 A 
ATOM     24  N   UNL     1      52.673   9.151  12.724  0.00  0.00    +0.000 NA
ATOM     25  C   UNL     1      53.165   8.445  13.688  0.00  0.00    +0.000 A 
ATOM     26  N   UNL     1      52.421   7.715  14.579  0.00  0.00    +0.000 N 
ATOM     27  C   UNL     1      51.045   7.718  14.576  0.00  0.00    +0.000 A 
ATOM     28  O   UNL     1      50.409   7.213  15.490  0.00  0.00    +0.000 OA
ATOM     29  C   UNL     1      50.448   8.412  13.454  0.00  0.00    +0.000 A 
ATOM     30  H   UNL     1      52.863   7.233  15.349  0.00  0.00    +0.000 HD
ENDBRANCH  17  20
ENDBRANCH   1  16
BRANCH   1  31
ATOM     31  C   UNL     1      47.160   4.601  15.086  0.00  0.00    +0.000 C 
BRANCH  31  32
ATOM     32  N   UNL     1      48.341   4.949  15.888  0.00  0.00    +0.000 NA
ATOM     33  H   UNL     1      49.084   5.267  15.266  0.00  0.00    +0.000 HD
ATOM     34  H   UNL     1      48.697   4.113  16.353  0.00  0.00    +0.000 HD
ENDBRANCH  31  32
ENDBRANCH   1  31
TORSDOF 8
ENDMDL
MODEL 4
REMARK VINA RESULT:    -7.791      1.823      2.337
REMARK INTER + INTRA:         -12.078
REMARK INTER:                 -11.280
REMARK INTRA:                  -0.798
REMARK UNBOUND:                -0.870
REMARK  Name = 
REMARK  8 active torsions:
REMARK  status: ('A' for Active; 'I' for Inactive)
REMARK    1  A    between atoms: N_1  and  C_2
REMARK    2  A    between atoms: C_2  and  C_3
REMARK    3  A    between atoms: C_3  and  N_4
REMARK    4  A    between atoms: C_3  and  C_17
REMARK    5  A    between atoms: C_5  and  C_7
REMARK    6  A    between atoms: C_20  and  O_21
REMARK    7  A    between atoms: O_21  and  C_22
REMARK    8  A    between atoms: C_22  and  C_23
REMARK                            x       y       z     vdW  Elec       q    Type
REMARK                         _______ _______ _______ _____ _____    ______ ____
ROOT
ATOM      1  C   UNL     1      48.181   7.582  13.532  0.00  0.00    +0.000 C 
ENDROOT
BRANCH   1   2
ATOM      2  C   UNL     1      47.200   6.630  12.856  0.00  0.00    +0.000 A 
ATOM      3  C   UNL     1      46.821   6.850  11.523  0.00  0.00    +0.000 A 
ATOM      4  C   UNL     1      45.952   5.972  10.865  0.00  0.00    +0.000 A 
ATOM      5  C   UNL     1      45.454   4.853  11.531  0.00  0.00    +0.000 A 
ATOM      6  C   UNL     1      45.809   4.635  12.862  0.00  0.00    +0.000 A 
ATOM      7  C   UNL     1      46.681   5.506  13.518  0.00  0.00    +0.000 A 
BRANCH   5   8
ATOM      8  O   UNL     1      44.576   3.947  11.004  0.00  0.00    +0.000 OA
BRANCH   8   9
ATOM      9  C   UNL     1      44.207   4.156   9.636  0.00  0.00    +0.000 C 
BRANCH   9  10
ATOM     10  C   UNL     1      45.204   3.445   8.744  0.00  0.00    +0.000 A 
ATOM     11  C   UNL     1      45.405   2.072   8.887  0.00  0.00    +0.000 A 
ATOM     12  C   UNL     1      46.315   1.429   8.050  0.00  0.00    +0.000 A 
ATOM     13  C   UNL     1      46.998   2.169   7.094  0.00  0.00    +0.000 A 
ATOM     14  C   UNL     1      46.740   3.528   7.013  0.00  0.00    +0.000 A 
ATOM     15  N   UNL     1      45.858   4.178   7.806  0.00  0.00    +0.000 NA
ENDBRANCH   9  10
ENDBRANCH   8   9
ENDBRANCH   5   8
ENDBRANCH   1   2
BRANCH   1  16
ATOM     16  N   UNL     1      48.009   7.487  14.975  0.00  0.00    +0.000 N 
ATOM     17  C   UNL     1      48.973   6.983  15.806  0.00  0.00    +0.000 C 
ATOM     18  O   UNL     1      50.075   6.637  15.394  0.00  0.00    +0.000 OA
ATOM     19  H   UNL     1      47.085   7.693  15.344  0.00  0.00    +0.000 HD
BRANCH  17  20
ATOM     20  C   UNL     1      48.633   6.899  17.234  0.00  0.00    +0.000 A 
ATOM     21  C   UNL     1      48.249   8.044  17.918  0.00  0.00    +0.000 A 
ATOM     22  S   UNL     1      47.947   7.782  19.577  0.00  0.00    +0.000 S 
ATOM     23  C   UNL     1      48.364   6.137  19.449  0.00  0.00    +0.000 A 
ATOM     24  N   UNL     1      48.384   5.333  20.544  0.00  0.00    +0.000 NA
ATOM     25  C   UNL     1      48.766   4.121  20.310  0.00  0.00    +0.000 A 
ATOM     26  N   UNL     1      49.096   3.633  19.072  0.00  0.00    +0.000 N 
ATOM     27  C   UNL     1      48.987   4.383  17.924  0.00  0.00    +0.000 A 
ATOM     28  O   UNL     1      49.108   3.872  16.820  0.00  0.00    +0.000 OA
ATOM     29  C   UNL     1      48.662   5.777  18.146  0.00  0.00    +0.000 A 
ATOM     30  H   UNL     1      49.329   2.658  18.946  0.00  0.00    +0.000 HD
ENDBRANCH  17  20
ENDBRANCH   1  16
BRANCH   1  31
ATOM     31  C   UNL     1      48.039   9.054  13.040  0.00  0.00    +0.000 C 
BRANCH  31  32
ATOM     32  N   UNL     1      46.736   9.668  13.329  0.00  0.00    +0.000 NA
ATOM     33  H   UNL     1      46.823  10.267  14.149  0.00  0.00    +0.000 HD
ATOM     34  H   UNL     1      46.063   8.940  13.578  0.00  0.00    +0.000 HD
ENDBRANCH  31  32
ENDBRANCH   1  31
TORSDOF 8
ENDMDL
MODEL 5
REMARK VINA RESULT:    -7.713      2.518      4.465
REMARK INTER + INTRA:         -11.965
REMARK INTER:                 -10.604
REMARK INTRA:                  -1.361
REMARK UNBOUND:                -0.870
REMARK  Name = 
REMARK  8 active torsions:
REMARK  status: ('A' for Active; 'I' for Inactive)
REMARK    1  A    between atoms: N_1  and  C_2
REMARK    2  A    between atoms: C_2  and  C_3
REMARK    3  A    between atoms: C_3  and  N_4
REMARK    4  A    between atoms: C_3  and  C_17
REMARK    5  A    between atoms: C_5  and  C_7
REMARK    6  A    between atoms: C_20  and  O_21
REMARK    7  A    between atoms: O_21  and  C_22
REMARK    8  A    between atoms: C_22  and  C_23
REMARK                            x       y       z     vdW  Elec       q    Type
REMARK                         _______ _______ _______ _____ _____    ______ ____
ROOT
ATOM      1  C   UNL     1      47.123   5.665  14.364  0.00  0.00    +0.000 C 
ENDROOT
BRANCH   1   2
ATOM      2  C   UNL     1      46.384   5.137  13.139  0.00  0.00    +0.000 A 
ATOM      3  C   UNL     1      45.883   3.827  13.137  0.00  0.00    +0.000 A 
ATOM      4  C   UNL     1      45.169   3.328  12.041  0.00  0.00    +0.000 A 
ATOM      5  C   UNL     1      44.938   4.139  10.931  0.00  0.00    +0.000 A 
ATOM      6  C   UNL     1      45.446   5.437  10.914  0.00  0.00    +0.000 A 
ATOM      7  C   UNL     1      46.154   5.939  12.009  0.00  0.00    +0.000 A 
BRANCH   5   8
ATOM      8  O   UNL     1      44.284   3.753   9.793  0.00  0.00    +0.000 OA
BRANCH   8   9
ATOM      9  C   UNL     1      44.458   2.385   9.407  0.00  0.00    +0.000 C 
BRANCH   9  10
ATOM     10  C   UNL     1      45.552   2.303   8.362  0.00  0.00    +0.000 A 
ATOM     11  C   UNL     1      45.835   3.414   7.567  0.00  0.00    +0.000 A 
ATOM     12  C   UNL     1      46.853   3.328   6.621  0.00  0.00    +0.000 A 
ATOM     13  C   UNL     1      47.562   2.141   6.491  0.00  0.00    +0.000 A 
ATOM     14  C   UNL     1      47.223   1.085   7.320  0.00  0.00    +0.000 A 
ATOM     15  N   UNL     1      46.245   1.139   8.252  0.00  0.00    +0.000 NA
ENDBRANCH   9  10
ENDBRANCH   8   9
ENDBRANCH   5   8
ENDBRANCH   1   2
BRANCH   1  16
ATOM     16  N   UNL     1      48.311   6.382  13.923  0.00  0.00    +0.000 N 
ATOM     17  C   UNL     1      48.953   7.305  14.703  0.00  0.00    +0.000 C 
ATOM     18  O   UNL     1      48.604   7.544  15.855  0.00  0.00    +0.000 OA
ATOM     19  H   UNL     1      48.586   6.267  12.952  0.00  0.00    +0.000 HD
BRANCH  17  20
ATOM     20  C   UNL     1      50.108   7.988  14.101  0.00  0.00    +0.000 A 
ATOM     21  C   UNL     1      51.356   7.886  14.700  0.00  0.00    +0.000 A 
ATOM     22  S   UNL     1      52.571   8.783  13.907  0.00  0.00    +0.000 S 
ATOM     23  C   UNL     1      51.462   9.377  12.762  0.00  0.00    +0.000 A 
ATOM     24  N   UNL     1      51.846  10.273  11.814  0.00  0.00    +0.000 NA
ATOM     25  C   UNL     1      50.892  10.675  11.042  0.00  0.00    +0.000 A 
ATOM     26  N   UNL     1      49.595  10.237  11.111  0.00  0.00    +0.000 N 
ATOM     27  C   UNL     1      49.188   9.254  11.984  0.00  0.00    +0.000 A 
ATOM     28  O   UNL     1      48.077   8.752  11.898  0.00  0.00    +0.000 OA
ATOM     29  C   UNL     1      50.197   8.844  12.939  0.00  0.00    +0.000 A 
ATOM     30  H   UNL     1      48.908  10.545  10.438  0.00  0.00    +0.000 HD
ENDBRANCH  17  20
ENDBRANCH   1  16
BRANCH   1  31
ATOM     31  C   UNL     1      47.481   4.546  15.387  0.00  0.00    +0.000 C 
BRANCH  31  32
ATOM     32  N   UNL     1      47.194   4.889  16.787  0.00  0.00    +0.000 NA
ATOM     33  H   UNL     1      46.194   5.061  16.890  0.00  0.00    +0.000 HD
ATOM     34  H   UNL     1      47.660   5.765  17.026  0.00  0.00    +0.000 HD
ENDBRANCH  31  32
ENDBRANCH   1  31
TORSDOF 8
ENDMDL
MODEL 6
REMARK VINA RESULT:    -7.498      2.745      3.710
REMARK INTER + INTRA:         -11.655
REMARK INTER:                 -10.372
REMARK INTRA:                  -1.283
REMARK UNBOUND:                -0.870
REMARK  Name = 
REMARK  8 active torsions:
REMARK  status: ('A' for Active; 'I' for Inactive)
REMARK    1  A    between atoms: N_1  and  C_2
REMARK    2  A    between atoms: C_2  and  C_3
REMARK    3  A    between atoms: C_3  and  N_4
REMARK    4  A    between atoms: C_3  and  C_17
REMARK    5  A    between atoms: C_5  and  C_7
REMARK    6  A    between atoms: C_20  and  O_21
REMARK    7  A    between atoms: O_21  and  C_22
REMARK    8  A    between atoms: C_22  and  C_23
REMARK                            x       y       z     vdW  Elec       q    Type
REMARK                         _______ _______ _______ _____ _____    ______ ____
ROOT
ATOM      1  C   UNL     1      48.588   6.512  14.091  0.00  0.00    +0.000 C 
ENDROOT
BRANCH   1   2
ATOM      2  C   UNL     1      47.339   5.952  13.420  0.00  0.00    +0.000 A 
ATOM      3  C   UNL     1      46.686   6.697  12.427  0.00  0.00    +0.000 A 
ATOM      4  C   UNL     1      45.559   6.191  11.768  0.00  0.00    +0.000 A 
ATOM      5  C   UNL     1      45.073   4.925  12.088  0.00  0.00    +0.000 A 
ATOM      6  C   UNL     1      45.703   4.183  13.087  0.00  0.00    +0.000 A 
ATOM      7  C   UNL     1      46.831   4.683  13.741  0.00  0.00    +0.000 A 
BRANCH   5   8
ATOM      8  O   UNL     1      43.965   4.343  11.538  0.00  0.00    +0.000 OA
BRANCH   8   9
ATOM      9  C   UNL     1      43.732   4.626  10.153  0.00  0.00    +0.000 C 
BRANCH   9  10
ATOM     10  C   UNL     1      44.640   3.752   9.312  0.00  0.00    +0.000 A 
ATOM     11  C   UNL     1      45.505   4.339   8.388  0.00  0.00    +0.000 A 
ATOM     12  C   UNL     1      46.343   3.524   7.632  0.00  0.00    +0.000 A 
ATOM     13  C   UNL     1      46.299   2.148   7.816  0.00  0.00    +0.000 A 
ATOM     14  C   UNL     1      45.415   1.643   8.755  0.00  0.00    +0.000 A 
ATOM     15  N   UNL     1      44.594   2.409   9.509  0.00  0.00    +0.000 NA
ENDBRANCH   9  10
ENDBRANCH   8   9
ENDBRANCH   5   8
ENDBRANCH   1   2
BRANCH   1  16
ATOM     16  N   UNL     1      48.269   6.852  15.470  0.00  0.00    +0.000 N 
ATOM     17  C   UNL     1      48.918   6.300  16.540  0.00  0.00    +0.000 C 
ATOM     18  O   UNL     1      49.861   5.527  16.405  0.00  0.00    +0.000 OA
ATOM     19  H   UNL     1      47.447   7.430  15.624  0.00  0.00    +0.000 HD
BRANCH  17  20
ATOM     20  C   UNL     1      48.448   6.700  17.875  0.00  0.00    +0.000 A 
ATOM     21  C   UNL     1      48.216   5.731  18.842  0.00  0.00    +0.000 A 
ATOM     22  S   UNL     1      47.619   6.358  20.311  0.00  0.00    +0.000 S 
ATOM     23  C   UNL     1      47.606   7.943  19.693  0.00  0.00    +0.000 A 
ATOM     24  N   UNL     1      47.131   8.980  20.432  0.00  0.00    +0.000 NA
ATOM     25  C   UNL     1      47.135  10.119  19.821  0.00  0.00    +0.000 A 
ATOM     26  N   UNL     1      47.603  10.319  18.548  0.00  0.00    +0.000 N 
ATOM     27  C   UNL     1      48.188   9.319  17.805  0.00  0.00    +0.000 A 
ATOM     28  O   UNL     1      48.762   9.565  16.755  0.00  0.00    +0.000 OA
ATOM     29  C   UNL     1      48.115   8.003  18.407  0.00  0.00    +0.000 A 
ATOM     30  H   UNL     1      47.635  11.246  18.149  0.00  0.00    +0.000 HD
ENDBRANCH  17  20
ENDBRANCH   1  16
BRANCH   1  31
ATOM     31  C   UNL     1      49.192   7.731  13.331  0.00  0.00    +0.000 C 
BRANCH  31  32
ATOM     32  N   UNL     1      50.194   7.378  12.316  0.00  0.00    +0.000 NA
ATOM     33  H   UNL     1      50.291   6.364  12.281  0.00  0.00    +0.000 HD
ATOM     34  H   UNL     1      51.107   7.742  12.597  0.00  0.00    +0.000 HD
ENDBRANCH  31  32
ENDBRANCH   1  31
TORSDOF 8
ENDMDL
MODEL 7
REMARK VINA RESULT:    -7.074      3.716      5.397
REMARK INTER + INTRA:         -11.046
REMARK INTER:                  -9.574
REMARK INTRA:                  -1.472
REMARK UNBOUND:                -0.870
REMARK  Name = 
REMARK  8 active torsions:
REMARK  status: ('A' for Active; 'I' for Inactive)
REMARK    1  A    between atoms: N_1  and  C_2
REMARK    2  A    between atoms: C_2  and  C_3
REMARK    3  A    between atoms: C_3  and  N_4
REMARK    4  A    between atoms: C_3  and  C_17
REMARK    5  A    between atoms: C_5  and  C_7
REMARK    6  A    between atoms: C_20  and  O_21
REMARK    7  A    between atoms: O_21  and  C_22
REMARK    8  A    between atoms: C_22  and  C_23
REMARK                            x       y       z     vdW  Elec       q    Type
REMARK                         _______ _______ _______ _____ _____    ______ ____
ROOT
ATOM      1  C   UNL     1      47.694   7.432  13.674  0.00  0.00    +0.000 C 
ENDROOT
BRANCH   1   2
ATOM      2  C   UNL     1      46.817   6.472  12.878  0.00  0.00    +0.000 A 
ATOM      3  C   UNL     1      46.196   6.910  11.699  0.00  0.00    +0.000 A 
ATOM      4  C   UNL     1      45.416   6.040  10.928  0.00  0.00    +0.000 A 
ATOM      5  C   UNL     1      45.252   4.713  11.323  0.00  0.00    +0.000 A 
ATOM      6  C   UNL     1      45.850   4.272  12.503  0.00  0.00    +0.000 A 
ATOM      7  C   UNL     1      46.633   5.137  13.270  0.00  0.00    +0.000 A 
BRANCH   5   8
ATOM      8  O   UNL     1      44.489   3.784  10.671  0.00  0.00    +0.000 OA
BRANCH   8   9
ATOM      9  C   UNL     1      44.304   4.000   9.267  0.00  0.00    +0.000 C 
BRANCH   9  10
ATOM     10  C   UNL     1      45.328   3.184   8.505  0.00  0.00    +0.000 A 
ATOM     11  C   UNL     1      46.186   3.815   7.604  0.00  0.00    +0.000 A 
ATOM     12  C   UNL     1      47.131   3.054   6.921  0.00  0.00    +0.000 A 
ATOM     13  C   UNL     1      47.197   1.687   7.153  0.00  0.00    +0.000 A 
ATOM     14  C   UNL     1      46.313   1.135   8.064  0.00  0.00    +0.000 A 
ATOM     15  N   UNL     1      45.389   1.848   8.748  0.00  0.00    +0.000 NA
ENDBRANCH   9  10
ENDBRANCH   8   9
ENDBRANCH   5   8
ENDBRANCH   1   2
BRANCH   1  16
ATOM     16  N   UNL     1      48.580   8.133  12.756  0.00  0.00    +0.000 N 
ATOM     17  C   UNL     1      48.790   9.484  12.812  0.00  0.00    +0.000 C 
ATOM     18  O   UNL     1      48.293  10.187  13.686  0.00  0.00    +0.000 OA
ATOM     19  H   UNL     1      48.950   7.599  11.975  0.00  0.00    +0.000 HD
BRANCH  17  20
ATOM     20  C   UNL     1      49.669  10.057  11.782  0.00  0.00    +0.000 A 
ATOM     21  C   UNL     1      49.164  10.993  10.890  0.00  0.00    +0.000 A 
ATOM     22  S   UNL     1      50.298  11.513   9.726  0.00  0.00    +0.000 S 
ATOM     23  C   UNL     1      51.492  10.470  10.346  0.00  0.00    +0.000 A 
ATOM     24  N   UNL     1      52.711  10.370   9.752  0.00  0.00    +0.000 NA
ATOM     25  C   UNL     1      53.502   9.506  10.297  0.00  0.00    +0.000 A 
ATOM     26  N   UNL     1      53.194   8.758  11.404  0.00  0.00    +0.000 N 
ATOM     27  C   UNL     1      52.015   8.905  12.097  0.00  0.00    +0.000 A 
ATOM     28  O   UNL     1      51.846   8.364  13.180  0.00  0.00    +0.000 OA
ATOM     29  C   UNL     1      51.054   9.787  11.467  0.00  0.00    +0.000 A 
ATOM     30  H   UNL     1      53.880   8.143  11.819  0.00  0.00    +0.000 HD
ENDBRANCH  17  20
ENDBRANCH   1  16
BRANCH   1  31
ATOM     31  C   UNL     1      48.496   6.725  14.808  0.00  0.00    +0.000 C 
BRANCH  31  32
ATOM     32  N   UNL     1      49.956   6.804  14.659  0.00  0.00    +0.000 NA
ATOM     33  H   UNL     1      50.202   6.628  13.685  0.00  0.00    +0.000 HD
ATOM     34  H   UNL     1      50.395   6.059  15.203  0.00  0.00    +0.000 HD
ENDBRANCH  31  32
ENDBRANCH   1  31
TORSDOF 8
ENDMDL
MODEL 8
REMARK VINA RESULT:    -6.930      3.347      7.895
REMARK INTER + INTRA:         -10.839
REMARK INTER:                  -9.547
REMARK INTRA:                  -1.292
REMARK UNBOUND:                -0.870
REMARK  Name = 
REMARK  8 active torsions:
REMARK  status: ('A' for Active; 'I' for Inactive)
REMARK    1  A    between atoms: N_1  and  C_2
REMARK    2  A    between atoms: C_2  and  C_3
REMARK    3  A    between atoms: C_3  and  N_4
REMARK    4  A    between atoms: C_3  and  C_17
REMARK    5  A    between atoms: C_5  and  C_7
REMARK    6  A    between atoms: C_20  and  O_21
REMARK    7  A    between atoms: O_21  and  C_22
REMARK    8  A    between atoms: C_22  and  C_23
REMARK                            x       y       z     vdW  Elec       q    Type
REMARK                         _______ _______ _______ _____ _____    ______ ____
ROOT
ATOM      1  C   UNL     1      47.997   7.568  13.152  0.00  0.00    +0.000 C 
ENDROOT
BRANCH   1   2
ATOM      2  C   UNL     1      48.546   6.939  14.428  0.00  0.00    +0.000 A 
ATOM      3  C   UNL     1      49.725   7.438  15.001  0.00  0.00    +0.000 A 
ATOM      4  C   UNL     1      50.231   6.904  16.192  0.00  0.00    +0.000 A 
ATOM      5  C   UNL     1      49.558   5.866  16.833  0.00  0.00    +0.000 A 
ATOM      6  C   UNL     1      48.395   5.349  16.263  0.00  0.00    +0.000 A 
ATOM      7  C   UNL     1      47.885   5.884  15.078  0.00  0.00    +0.000 A 
BRANCH   5   8
ATOM      8  O   UNL     1      49.973   5.245  17.979  0.00  0.00    +0.000 OA
BRANCH   8   9
ATOM      9  C   UNL     1      51.388   5.068  18.117  0.00  0.00    +0.000 C 
BRANCH   9  10
ATOM     10  C   UNL     1      51.718   3.597  17.965  0.00  0.00    +0.000 A 
ATOM     11  C   UNL     1      50.745   2.714  17.495  0.00  0.00    +0.000 A 
ATOM     12  C   UNL     1      51.068   1.368  17.347  0.00  0.00    +0.000 A 
ATOM     13  C   UNL     1      52.348   0.936  17.670  0.00  0.00    +0.000 A 
ATOM     14  C   UNL     1      53.257   1.875  18.126  0.00  0.00    +0.000 A 
ATOM     15  N   UNL     1      52.977   3.190  18.274  0.00  0.00    +0.000 NA
ENDBRANCH   9  10
ENDBRANCH   8   9
ENDBRANCH   5   8
ENDBRANCH   1   2
BRANCH   1  16
ATOM     16  N   UNL     1      47.350   6.533  12.358  0.00  0.00    +0.000 N 
ATOM     17  C   UNL     1      46.210   6.757  11.634  0.00  0.00    +0.000 C 
ATOM     18  O   UNL     1      45.693   7.867  11.555  0.00  0.00    +0.000 OA
ATOM     19  H   UNL     1      47.705   5.587  12.457  0.00  0.00    +0.000 HD
BRANCH  17  20
ATOM     20  C   UNL     1      45.642   5.600  10.926  0.00  0.00    +0.000 A 
ATOM     21  C   UNL     1      45.733   5.527   9.543  0.00  0.00    +0.000 A 
ATOM     22  S   UNL     1      44.974   4.152   8.878  0.00  0.00    +0.000 S 
ATOM     23  C   UNL     1      44.455   3.629  10.412  0.00  0.00    +0.000 A 
ATOM     24  N   UNL     1      43.678   2.522  10.549  0.00  0.00    +0.000 NA
ATOM     25  C   UNL     1      43.318   2.269  11.763  0.00  0.00    +0.000 A 
ATOM     26  N   UNL     1      43.693   3.005  12.857  0.00  0.00    +0.000 N 
ATOM     27  C   UNL     1      44.563   4.068  12.776  0.00  0.00    +0.000 A 
ATOM     28  O   UNL     1      45.025   4.586  13.782  0.00  0.00    +0.000 OA
ATOM     29  C   UNL     1      44.914   4.454  11.424  0.00  0.00    +0.000 A 
ATOM     30  H   UNL     1      43.427   2.719  13.789  0.00  0.00    +0.000 HD
ENDBRANCH  17  20
ENDBRANCH   1  16
BRANCH   1  31
ATOM     31  C   UNL     1      49.085   8.319  12.327  0.00  0.00    +0.000 C 
BRANCH  31  32
ATOM     32  N   UNL     1      48.601   9.522  11.636  0.00  0.00    +0.000 NA
ATOM     33  H   UNL     1      48.704   9.394  10.630  0.00  0.00    +0.000 HD
ATOM     34  H   UNL     1      49.190  10.319  11.884  0.00  0.00    +0.000 HD
ENDBRANCH  31  32
ENDBRANCH   1  31
TORSDOF 8
ENDMDL
MODEL 9
REMARK VINA RESULT:    -6.878      4.329      8.785
REMARK INTER + INTRA:         -10.764
REMARK INTER:                  -9.895
REMARK INTRA:                  -0.869
REMARK UNBOUND:                -0.870
REMARK  Name = 
REMARK  8 active torsions:
REMARK  status: ('A' for Active; 'I' for Inactive)
REMARK    1  A    between atoms: N_1  and  C_2
REMARK    2  A    between atoms: C_2  and  C_3
REMARK    3  A    between atoms: C_3  and  N_4
REMARK    4  A    between atoms: C_3  and  C_17
REMARK    5  A    between atoms: C_5  and  C_7
REMARK    6  A    between atoms: C_20  and  O_21
REMARK    7  A    between atoms: O_21  and  C_22
REMARK    8  A    between atoms: C_22  and  C_23
REMARK                            x       y       z     vdW  Elec       q    Type
REMARK                         _______ _______ _______ _____ _____    ______ ____
ROOT
ATOM      1  C   UNL     1      47.531   4.268  17.286  0.00  0.00    +0.000 C 
ENDROOT
BRANCH   1   2
ATOM      2  C   UNL     1      49.021   3.950  17.326  0.00  0.00    +0.000 A 
ATOM      3  C   UNL     1      49.956   4.994  17.401  0.00  0.00    +0.000 A 
ATOM      4  C   UNL     1      51.329   4.730  17.477  0.00  0.00    +0.000 A 
ATOM      5  C   UNL     1      51.787   3.414  17.487  0.00  0.00    +0.000 A 
ATOM      6  C   UNL     1      50.868   2.369  17.394  0.00  0.00    +0.000 A 
ATOM      7  C   UNL     1      49.498   2.630  17.325  0.00  0.00    +0.000 A 
BRANCH   5   8
ATOM      8  O   UNL     1      53.101   3.036  17.524  0.00  0.00    +0.000 OA
BRANCH   8   9
ATOM      9  C   UNL     1      53.482   2.207  18.628  0.00  0.00    +0.000 C 
BRANCH   9  10
ATOM     10  C   UNL     1      54.014   0.892  18.096  0.00  0.00    +0.000 A 
ATOM     11  C   UNL     1      54.636   0.850  16.848  0.00  0.00    +0.000 A 
ATOM     12  C   UNL     1      55.131  -0.363  16.378  0.00  0.00    +0.000 A 
ATOM     13  C   UNL     1      54.996  -1.501  17.162  0.00  0.00    +0.000 A 
ATOM     14  C   UNL     1      54.369  -1.377  18.391  0.00  0.00    +0.000 A 
ATOM     15  N   UNL     1      53.884  -0.212  18.877  0.00  0.00    +0.000 NA
ENDBRANCH   9  10
ENDBRANCH   8   9
ENDBRANCH   5   8
ENDBRANCH   1   2
BRANCH   1  16
ATOM     16  N   UNL     1      47.245   5.035  16.081  0.00  0.00    +0.000 N 
ATOM     17  C   UNL     1      47.146   4.462  14.843  0.00  0.00    +0.000 C 
ATOM     18  O   UNL     1      47.227   3.249  14.675  0.00  0.00    +0.000 OA
ATOM     19  H   UNL     1      47.245   6.047  16.168  0.00  0.00    +0.000 HD
BRANCH  17  20
ATOM     20  C   UNL     1      46.909   5.372  13.712  0.00  0.00    +0.000 A 
ATOM     21  C   UNL     1      47.936   6.189  13.259  0.00  0.00    +0.000 A 
ATOM     22  S   UNL     1      47.477   7.222  11.982  0.00  0.00    +0.000 S 
ATOM     23  C   UNL     1      45.876   6.647  12.020  0.00  0.00    +0.000 A 
ATOM     24  N   UNL     1      44.922   7.176  11.208  0.00  0.00    +0.000 NA
ATOM     25  C   UNL     1      43.742   6.679  11.376  0.00  0.00    +0.000 A 
ATOM     26  N   UNL     1      43.436   5.678  12.261  0.00  0.00    +0.000 N 
ATOM     27  C   UNL     1      44.389   5.043  13.024  0.00  0.00    +0.000 A 
ATOM     28  O   UNL     1      44.121   4.035  13.661  0.00  0.00    +0.000 OA
ATOM     29  C   UNL     1      45.710   5.632  12.946  0.00  0.00    +0.000 A 
ATOM     30  H   UNL     1      42.504   5.290  12.302  0.00  0.00    +0.000 HD
ENDBRANCH  17  20
ENDBRANCH   1  16
BRANCH   1  31
ATOM     31  C   UNL     1      47.032   5.010  18.562  0.00  0.00    +0.000 C 
BRANCH  31  32
ATOM     32  N   UNL     1      47.090   6.476  18.474  0.00  0.00    +0.000 NA
ATOM     33  H   UNL     1      46.158   6.857  18.635  0.00  0.00    +0.000 HD
ATOM     34  H   UNL     1      47.350   6.751  17.525  0.00  0.00    +0.000 HD
ENDBRANCH  31  32
ENDBRANCH   1  31
TORSDOF 8
ENDMDL
