MODEL 1
REMARK VINA RESULT:    -7.907      0.000      0.000
REMARK INTER + INTRA:         -13.021
REMARK INTER:                 -11.605
REMARK INTRA:                  -1.416
REMARK UNBOUND:                -1.416
REMARK  Name = 
REMARK  9 active torsions:
REMARK  status: ('A' for Active; 'I' for Inactive)
REMARK    1  A    between atoms: C_1  and  C_2
REMARK    2  A    between atoms: C_2  and  N_3
REMARK    3  A    between atoms: C_2  and  C_21
REMARK    4  A    between atoms: N_3  and  C_4
REMARK    5  A    between atoms: C_4  and  C_5
REMARK    6  A    between atoms: C_8  and  C_9
REMARK    7  A    between atoms: C_9  and  O_10
REMARK    8  A    between atoms: O_10  and  C_11
REMARK    9  A    between atoms: C_11  and  C_12
REMARK                            x       y       z     vdW  Elec       q    Type
REMARK                         _______ _______ _______ _____ _____    ______ ____
ROOT
ATOM      1  C   UNL     1      45.887   7.462  12.894  0.00  0.00    +0.000 C 
ENDROOT
BRANCH   1   2
ATOM      2  C   UNL     1      45.888   5.939  12.617  0.00  0.00    +0.000 C 
ATOM      3  C   UNL     1      44.817   5.200  13.443  0.00  0.00    +0.000 C 
ATOM      4  C   UNL     1      43.405   5.444  12.920  0.00  0.00    +0.000 C 
ATOM      5  C   UNL     1      43.274   5.094  11.430  0.00  0.00    +0.000 C 
ATOM      6  C   UNL     1      44.335   5.783  10.575  0.00  0.00    +0.000 C 
ATOM      7  C   UNL     1      45.746   5.616  11.120  0.00  0.00    +0.000 C 
BRANCH   5   8
ATOM      8  C   UNL     1      43.272   3.569  11.213  0.00  0.00    +0.000 C 
BRANCH   8   9
ATOM      9  O   UNL     1      43.683   3.231   9.890  0.00  0.00    +0.000 OA
BRANCH   9  10
ATOM     10  C   UNL     1      44.587   2.126   9.870  0.00  0.00    +0.000 C 
BRANCH  10  11
ATOM     11  C   UNL     1      45.464   2.220   8.655  0.00  0.00    +0.000 A 
ATOM     12  C   UNL     1      45.529   3.415   7.936  0.00  0.00    +0.000 A 
ATOM     13  C   UNL     1      46.356   3.482   6.822  0.00  0.00    +0.000 A 
ATOM     14  C   UNL     1      47.093   2.360   6.467  0.00  0.00    +0.000 A 
ATOM     15 CL   UNL     1      48.110   2.385   5.086  0.00  0.00    +0.000 Cl
ATOM     16  C   UNL     1      46.989   1.220   7.249  0.00  0.00    +0.000 A 
ATOM     17  N   UNL     1      46.198   1.125   8.339  0.00  0.00    +0.000 NA
ENDBRANCH  10  11
ENDBRANCH   9  10
ENDBRANCH   8   9
ENDBRANCH   5   8
ENDBRANCH   1   2
BRANCH   1  18
ATOM     18  N   UNL     1      47.050   7.771  13.722  0.00  0.00    +0.000 NA
ATOM     19  H   UNL     1      46.733   8.020  14.660  0.00  0.00    +0.000 HD
BRANCH  18  21
ATOM     20  C   UNL     1      49.317   7.021  13.011  0.00  0.00    +0.000 C 
ATOM     21  C   UNL     1      48.067   6.720  13.840  0.00  0.00    +0.000 C 
BRANCH  21  22
ATOM     22  C   UNL     1      48.416   6.621  15.322  0.00  0.00    +0.000 A 
ATOM     23  C   UNL     1      48.967   7.645  16.082  0.00  0.00    +0.000 A 
ATOM     24  S   UNL     1      49.153   7.249  17.731  0.00  0.00    +0.000 S 
ATOM     25  C   UNL     1      48.580   5.669  17.474  0.00  0.00    +0.000 A 
ATOM     26  N   UNL     1      48.496   4.775  18.497  0.00  0.00    +0.000 NA
ATOM     27  C   UNL     1      48.081   3.604  18.144  0.00  0.00    +0.000 A 
ATOM     28  N   UNL     1      47.742   3.244  16.864  0.00  0.00    +0.000 N 
ATOM     29  C   UNL     1      47.797   4.117  15.800  0.00  0.00    +0.000 A 
ATOM     30  O   UNL     1      47.493   3.768  14.659  0.00  0.00    +0.000 OA
ATOM     31  C   UNL     1      48.249   5.450  16.149  0.00  0.00    +0.000 A 
ATOM     32  H   UNL     1      47.442   2.304  16.656  0.00  0.00    +0.000 HD
ENDBRANCH  21  22
ENDBRANCH  18  21
ENDBRANCH   1  18
TORSDOF 8
ENDMDL
MODEL 2
REMARK VINA RESULT:    -7.730      2.204      3.091
REMARK INTER + INTRA:         -12.760
REMARK INTER:                 -12.491
REMARK INTRA:                  -0.270
REMARK UNBOUND:                -1.416
REMARK  Name = 
REMARK  9 active torsions:
REMARK  status: ('A' for Active; 'I' for Inactive)
REMARK    1  A    between atoms: C_1  and  C_2
REMARK    2  A    between atoms: C_2  and  N_3
REMARK    3  A    between atoms: C_2  and  C_21
REMARK    4  A    between atoms: N_3  and  C_4
REMARK    5  A    between atoms: C_4  and  C_5
REMARK    6  A    between atoms: C_8  and  C_9
REMARK    7  A    between atoms: C_9  and  O_10
REMARK    8  A    between atoms: O_10  and  C_11
REMARK    9  A    between atoms: C_11  and  C_12
REMARK                            x       y       z     vdW  Elec       q    Type
REMARK                         _______ _______ _______ _____ _____    ______ ____
ROOT
ATOM      1  C   UNL     1      48.085   5.953  14.779  0.00  0.00    +0.000 C 
ENDROOT
BRANCH   1   2
ATOM      2  C   UNL     1      47.722   5.692  13.296  0.00  0.00    +0.000 C 
ATOM      3  C   UNL     1      46.664   4.581  13.146  0.00  0.00    +0.000 C 
ATOM      4  C   UNL     1      45.270   5.043  13.559  0.00  0.00    +0.000 C 
ATOM      5  C   UNL     1      44.836   6.309  12.806  0.00  0.00    +0.000 C 
ATOM      6  C   UNL     1      45.868   7.429  12.904  0.00  0.00    +0.000 C 
ATOM      7  C   UNL     1      47.281   6.973  12.568  0.00  0.00    +0.000 C 
BRANCH   5   8
ATOM      8  C   UNL     1      44.478   5.993  11.342  0.00  0.00    +0.000 C 
BRANCH   8   9
ATOM      9  O   UNL     1      44.355   4.589  11.127  0.00  0.00    +0.000 OA
BRANCH   9  10
ATOM     10  C   UNL     1      43.800   4.282   9.849  0.00  0.00    +0.000 C 
BRANCH  10  11
ATOM     11  C   UNL     1      44.839   3.610   9.000  0.00  0.00    +0.000 A 
ATOM     12  C   UNL     1      45.053   2.235   9.120  0.00  0.00    +0.000 A 
ATOM     13  C   UNL     1      46.013   1.634   8.317  0.00  0.00    +0.000 A 
ATOM     14  C   UNL     1      46.722   2.419   7.417  0.00  0.00    +0.000 A 
ATOM     15 CL   UNL     1      47.934   1.728   6.420  0.00  0.00    +0.000 Cl
ATOM     16  C   UNL     1      46.432   3.773   7.344  0.00  0.00    +0.000 A 
ATOM     17  N   UNL     1      45.503   4.387   8.107  0.00  0.00    +0.000 NA
ENDBRANCH  10  11
ENDBRANCH   9  10
ENDBRANCH   8   9
ENDBRANCH   5   8
ENDBRANCH   1   2
BRANCH   1  18
ATOM     18  N   UNL     1      48.165   4.661  15.457  0.00  0.00    +0.000 NA
ATOM     19  H   UNL     1      49.067   4.232  15.246  0.00  0.00    +0.000 HD
BRANCH  18  21
ATOM     20  C   UNL     1      47.112   3.521  17.405  0.00  0.00    +0.000 C 
ATOM     21  C   UNL     1      47.988   4.675  16.913  0.00  0.00    +0.000 C 
BRANCH  21  22
ATOM     22  C   UNL     1      49.385   4.586  17.520  0.00  0.00    +0.000 A 
ATOM     23  C   UNL     1      50.021   5.611  18.210  0.00  0.00    +0.000 A 
ATOM     24  S   UNL     1      51.541   5.165  18.845  0.00  0.00    +0.000 S 
ATOM     25  C   UNL     1      51.440   3.616  18.152  0.00  0.00    +0.000 A 
ATOM     26  N   UNL     1      52.444   2.710  18.302  0.00  0.00    +0.000 NA
ATOM     27  C   UNL     1      52.245   1.592  17.688  0.00  0.00    +0.000 A 
ATOM     28  N   UNL     1      51.136   1.295  16.938  0.00  0.00    +0.000 N 
ATOM     29  C   UNL     1      50.087   2.173  16.769  0.00  0.00    +0.000 A 
ATOM     30  O   UNL     1      49.104   1.885  16.086  0.00  0.00    +0.000 OA
ATOM     31  C   UNL     1      50.262   3.442  17.450  0.00  0.00    +0.000 A 
ATOM     32  H   UNL     1      51.053   0.406  16.469  0.00  0.00    +0.000 HD
ENDBRANCH  21  22
ENDBRANCH  18  21
ENDBRANCH   1  18
TORSDOF 8
ENDMDL
MODEL 3
REMARK VINA RESULT:    -7.082      1.847      2.566
REMARK INTER + INTRA:         -11.809
REMARK INTER:                 -10.818
REMARK INTRA:                  -0.991
REMARK UNBOUND:                -1.416
REMARK  Name = 
REMARK  9 active torsions:
REMARK  status: ('A' for Active; 'I' for Inactive)
REMARK    1  A    between atoms: C_1  and  C_2
REMARK    2  A    between atoms: C_2  and  N_3
REMARK    3  A    between atoms: C_2  and  C_21
REMARK    4  A    between atoms: N_3  and  C_4
REMARK    5  A    between atoms: C_4  and  C_5
REMARK    6  A    between atoms: C_8  and  C_9
REMARK    7  A    between atoms: C_9  and  O_10
REMARK    8  A    between atoms: O_10  and  C_11
REMARK    9  A    between atoms: C_11  and  C_12
REMARK                            x       y       z     vdW  Elec       q    Type
REMARK                         _______ _______ _______ _____ _____    ______ ____
ROOT
ATOM      1  C   UNL     1      48.406   7.152  14.474  0.00  0.00    +0.000 C 
ENDROOT
BRANCH   1   2
ATOM      2  C   UNL     1      48.104   6.679  13.032  0.00  0.00    +0.000 C 
ATOM      3  C   UNL     1      47.319   5.352  13.011  0.00  0.00    +0.000 C 
ATOM      4  C   UNL     1      45.859   5.531  13.416  0.00  0.00    +0.000 C 
ATOM      5  C   UNL     1      45.150   6.592  12.561  0.00  0.00    +0.000 C 
ATOM      6  C   UNL     1      45.908   7.916  12.530  0.00  0.00    +0.000 C 
ATOM      7  C   UNL     1      47.385   7.755  12.200  0.00  0.00    +0.000 C 
BRANCH   5   8
ATOM      8  C   UNL     1      44.866   6.066  11.142  0.00  0.00    +0.000 C 
BRANCH   8   9
ATOM      9  O   UNL     1      44.501   4.688  11.160  0.00  0.00    +0.000 OA
BRANCH   9  10
ATOM     10  C   UNL     1      43.870   4.279   9.946  0.00  0.00    +0.000 C 
BRANCH  10  11
ATOM     11  C   UNL     1      44.880   3.611   9.059  0.00  0.00    +0.000 A 
ATOM     12  C   UNL     1      45.095   2.234   9.163  0.00  0.00    +0.000 A 
ATOM     13  C   UNL     1      46.026   1.637   8.324  0.00  0.00    +0.000 A 
ATOM     14  C   UNL     1      46.706   2.427   7.407  0.00  0.00    +0.000 A 
ATOM     15 CL   UNL     1      47.883   1.740   6.366  0.00  0.00    +0.000 Cl
ATOM     16  C   UNL     1      46.416   3.782   7.352  0.00  0.00    +0.000 A 
ATOM     17  N   UNL     1      45.515   4.392   8.150  0.00  0.00    +0.000 NA
ENDBRANCH  10  11
ENDBRANCH   9  10
ENDBRANCH   8   9
ENDBRANCH   5   8
ENDBRANCH   1   2
BRANCH   1  18
ATOM     18  N   UNL     1      49.708   6.615  14.862  0.00  0.00    +0.000 NA
ATOM     19  H   UNL     1      50.284   6.508  14.027  0.00  0.00    +0.000 HD
BRANCH  18  21
ATOM     20  C   UNL     1      50.710   8.831  15.403  0.00  0.00    +0.000 C 
ATOM     21  C   UNL     1      50.466   7.389  15.852  0.00  0.00    +0.000 C 
BRANCH  21  22
ATOM     22  C   UNL     1      49.651   7.358  17.141  0.00  0.00    +0.000 A 
ATOM     23  C   UNL     1      48.999   8.451  17.698  0.00  0.00    +0.000 A 
ATOM     24  S   UNL     1      48.095   8.068  19.094  0.00  0.00    +0.000 S 
ATOM     25  C   UNL     1      48.609   6.448  19.051  0.00  0.00    +0.000 A 
ATOM     26  N   UNL     1      48.205   5.555  19.996  0.00  0.00    +0.000 NA
ATOM     27  C   UNL     1      48.706   4.374  19.857  0.00  0.00    +0.000 A 
ATOM     28  N   UNL     1      49.574   4.001  18.862  0.00  0.00    +0.000 N 
ATOM     29  C   UNL     1      50.000   4.864  17.876  0.00  0.00    +0.000 A 
ATOM     30  O   UNL     1      50.784   4.507  16.996  0.00  0.00    +0.000 OA
ATOM     31  C   UNL     1      49.454   6.204  17.985  0.00  0.00    +0.000 A 
ATOM     32  H   UNL     1      49.942   3.063  18.823  0.00  0.00    +0.000 HD
ENDBRANCH  21  22
ENDBRANCH  18  21
ENDBRANCH   1  18
TORSDOF 8
ENDMDL
MODEL 4
REMARK VINA RESULT:    -6.622      3.000      4.097
REMARK INTER + INTRA:         -11.135
REMARK INTER:                  -9.905
REMARK INTRA:                  -1.230
REMARK UNBOUND:                -1.416
REMARK  Name = 
REMARK  9 active torsions:
REMARK  status: ('A' for Active; 'I' for Inactive)
REMARK    1  A    between atoms: C_1  and  C_2
REMARK    2  A    between atoms: C_2  and  N_3
REMARK    3  A    between atoms: C_2  and  C_21
REMARK    4  A    between atoms: N_3  and  C_4
REMARK    5  A    between atoms: C_4  and  C_5
REMARK    6  A    between atoms: C_8  and  C_9
REMARK    7  A    between atoms: C_9  and  O_10
REMARK    8  A    between atoms: O_10  and  C_11
REMARK    9  A    between atoms: C_11  and  C_12
REMARK                            x       y       z     vdW  Elec       q    Type
REMARK                         _______ _______ _______ _____ _____    ______ ____
ROOT
ATOM      1  C   UNL     1      46.831   8.346  13.547  0.00  0.00    +0.000 C 
ENDROOT
BRANCH   1   2
ATOM      2  C   UNL     1      46.894   7.262  12.443  0.00  0.00    +0.000 C 
ATOM      3  C   UNL     1      47.630   5.993  12.919  0.00  0.00    +0.000 C 
ATOM      4  C   UNL     1      46.796   5.165  13.892  0.00  0.00    +0.000 C 
ATOM      5  C   UNL     1      45.420   4.806  13.311  0.00  0.00    +0.000 C 
ATOM      6  C   UNL     1      44.666   6.031  12.800  0.00  0.00    +0.000 C 
ATOM      7  C   UNL     1      45.504   6.913  11.885  0.00  0.00    +0.000 C 
BRANCH   5   8
ATOM      8  C   UNL     1      45.539   3.719  12.226  0.00  0.00    +0.000 C 
BRANCH   8   9
ATOM      9  O   UNL     1      44.275   3.123  11.945  0.00  0.00    +0.000 OA
BRANCH   9  10
ATOM     10  C   UNL     1      43.718   3.587  10.716  0.00  0.00    +0.000 C 
BRANCH  10  11
ATOM     11  C   UNL     1      44.662   3.279   9.591  0.00  0.00    +0.000 A 
ATOM     12  C   UNL     1      45.215   4.320   8.842  0.00  0.00    +0.000 A 
ATOM     13  C   UNL     1      46.095   4.010   7.813  0.00  0.00    +0.000 A 
ATOM     14  C   UNL     1      46.398   2.678   7.568  0.00  0.00    +0.000 A 
ATOM     15 CL   UNL     1      47.460   2.244   6.293  0.00  0.00    +0.000 Cl
ATOM     16  C   UNL     1      45.823   1.706   8.373  0.00  0.00    +0.000 A 
ATOM     17  N   UNL     1      44.969   1.974   9.383  0.00  0.00    +0.000 NA
ENDBRANCH  10  11
ENDBRANCH   9  10
ENDBRANCH   8   9
ENDBRANCH   5   8
ENDBRANCH   1   2
BRANCH   1  18
ATOM     18  N   UNL     1      46.704   9.647  12.895  0.00  0.00    +0.000 NA
ATOM     19  H   UNL     1      46.554  10.362  13.607  0.00  0.00    +0.000 HD
BRANCH  18  21
ATOM     20  C   UNL     1      47.492  11.296  11.202  0.00  0.00    +0.000 C 
ATOM     21  C   UNL     1      47.827  10.066  12.048  0.00  0.00    +0.000 C 
BRANCH  21  22
ATOM     22  C   UNL     1      48.991  10.362  12.989  0.00  0.00    +0.000 A 
ATOM     23  C   UNL     1      49.032  11.409  13.901  0.00  0.00    +0.000 A 
ATOM     24  S   UNL     1      50.435  11.413  14.873  0.00  0.00    +0.000 S 
ATOM     25  C   UNL     1      51.074  10.066  14.055  0.00  0.00    +0.000 A 
ATOM     26  N   UNL     1      52.288   9.550  14.389  0.00  0.00    +0.000 NA
ATOM     27  C   UNL     1      52.660   8.554  13.656  0.00  0.00    +0.000 A 
ATOM     28  N   UNL     1      51.931   8.026  12.621  0.00  0.00    +0.000 N 
ATOM     29  C   UNL     1      50.691   8.504  12.256  0.00  0.00    +0.000 A 
ATOM     30  O   UNL     1      50.059   8.016  11.319  0.00  0.00    +0.000 OA
ATOM     31  C   UNL     1      50.227   9.620  13.058  0.00  0.00    +0.000 A 
ATOM     32  H   UNL     1      52.290   7.257  12.077  0.00  0.00    +0.000 HD
ENDBRANCH  21  22
ENDBRANCH  18  21
ENDBRANCH   1  18
TORSDOF 8
ENDMDL
MODEL 5
REMARK VINA RESULT:    -6.407      1.689      2.310
REMARK INTER + INTRA:         -10.819
REMARK INTER:                  -9.791
REMARK INTRA:                  -1.028
REMARK UNBOUND:                -1.416
REMARK  Name = 
REMARK  9 active torsions:
REMARK  status: ('A' for Active; 'I' for Inactive)
REMARK    1  A    between atoms: C_1  and  C_2
REMARK    2  A    between atoms: C_2  and  N_3
REMARK    3  A    between atoms: C_2  and  C_21
REMARK    4  A    between atoms: N_3  and  C_4
REMARK    5  A    between atoms: C_4  and  C_5
REMARK    6  A    between atoms: C_8  and  C_9
REMARK    7  A    between atoms: C_9  and  O_10
REMARK    8  A    between atoms: O_10  and  C_11
REMARK    9  A    between atoms: C_11  and  C_12
REMARK                            x       y       z     vdW  Elec       q    Type
REMARK                         _______ _______ _______ _____ _____    ______ ____
ROOT
ATOM      1  C   UNL     1      47.218   8.641  13.092  0.00  0.00    +0.000 C 
ENDROOT
BRANCH   1   2
ATOM      2  C   UNL     1      46.561   8.005  11.842  0.00  0.00    +0.000 C 
ATOM      3  C   UNL     1      47.152   6.618  11.521  0.00  0.00    +0.000 C 
ATOM      4  C   UNL     1      46.683   5.544  12.497  0.00  0.00    +0.000 C 
ATOM      5  C   UNL     1      45.151   5.472  12.583  0.00  0.00    +0.000 C 
ATOM      6  C   UNL     1      44.520   6.831  12.873  0.00  0.00    +0.000 C 
ATOM      7  C   UNL     1      45.029   7.936  11.958  0.00  0.00    +0.000 C 
BRANCH   5   8
ATOM      8  C   UNL     1      44.551   4.823  11.321  0.00  0.00    +0.000 C 
BRANCH   8   9
ATOM      9  O   UNL     1      44.911   3.448  11.221  0.00  0.00    +0.000 OA
BRANCH   9  10
ATOM     10  C   UNL     1      44.261   2.796  10.130  0.00  0.00    +0.000 C 
BRANCH  10  11
ATOM     11  C   UNL     1      45.216   2.676   8.978  0.00  0.00    +0.000 A 
ATOM     12  C   UNL     1      45.525   3.802   8.211  0.00  0.00    +0.000 A 
ATOM     13  C   UNL     1      46.419   3.669   7.157  0.00  0.00    +0.000 A 
ATOM     14  C   UNL     1      46.981   2.424   6.907  0.00  0.00    +0.000 A 
ATOM     15 CL   UNL     1      48.073   2.204   5.603  0.00  0.00    +0.000 Cl
ATOM     16  C   UNL     1      46.639   1.363   7.731  0.00  0.00    +0.000 A 
ATOM     17  N   UNL     1      45.777   1.459   8.765  0.00  0.00    +0.000 NA
ENDBRANCH  10  11
ENDBRANCH   9  10
ENDBRANCH   8   9
ENDBRANCH   5   8
ENDBRANCH   1   2
BRANCH   1  18
ATOM     18  N   UNL     1      48.615   8.925  12.771  0.00  0.00    +0.000 NA
ATOM     19  H   UNL     1      48.764   9.934  12.801  0.00  0.00    +0.000 HD
BRANCH  18  21
ATOM     20  C   UNL     1      51.052   8.586  13.164  0.00  0.00    +0.000 C 
ATOM     21  C   UNL     1      49.624   8.282  13.622  0.00  0.00    +0.000 C 
BRANCH  21  22
ATOM     22  C   UNL     1      49.391   8.802  15.037  0.00  0.00    +0.000 A 
ATOM     23  C   UNL     1      49.598  10.113  15.448  0.00  0.00    +0.000 A 
ATOM     24  S   UNL     1      49.156  10.397  17.072  0.00  0.00    +0.000 S 
ATOM     25  C   UNL     1      48.751   8.762  17.307  0.00  0.00    +0.000 A 
ATOM     26  N   UNL     1      48.304   8.313  18.511  0.00  0.00    +0.000 NA
ATOM     27  C   UNL     1      48.074   7.043  18.550  0.00  0.00    +0.000 A 
ATOM     28  N   UNL     1      48.249   6.181  17.498  0.00  0.00    +0.000 N 
ATOM     29  C   UNL     1      48.684   6.590  16.256  0.00  0.00    +0.000 A 
ATOM     30  O   UNL     1      48.838   5.796  15.329  0.00  0.00    +0.000 OA
ATOM     31  C   UNL     1      48.947   8.014  16.161  0.00  0.00    +0.000 A 
ATOM     32  H   UNL     1      48.066   5.195  17.603  0.00  0.00    +0.000 HD
ENDBRANCH  21  22
ENDBRANCH  18  21
ENDBRANCH   1  18
TORSDOF 8
ENDMDL
MODEL 6
REMARK VINA RESULT:    -6.297      3.424      5.765
REMARK INTER + INTRA:         -10.658
REMARK INTER:                  -8.677
REMARK INTRA:                  -1.981
REMARK UNBOUND:                -1.416
REMARK  Name = 
REMARK  9 active torsions:
REMARK  status: ('A' for Active; 'I' for Inactive)
REMARK    1  A    between atoms: C_1  and  C_2
REMARK    2  A    between atoms: C_2  and  N_3
REMARK    3  A    between atoms: C_2  and  C_21
REMARK    4  A    between atoms: N_3  and  C_4
REMARK    5  A    between atoms: C_4  and  C_5
REMARK    6  A    between atoms: C_8  and  C_9
REMARK    7  A    between atoms: C_9  and  O_10
REMARK    8  A    between atoms: O_10  and  C_11
REMARK    9  A    between atoms: C_11  and  C_12
REMARK                            x       y       z     vdW  Elec       q    Type
REMARK                         _______ _______ _______ _____ _____    ______ ____
ROOT
ATOM      1  C   UNL     1      49.821   8.178  18.059  0.00  0.00    +0.000 C 
ENDROOT
BRANCH   1   2
ATOM      2  C   UNL     1      50.503   8.188  16.669  0.00  0.00    +0.000 C 
ATOM      3  C   UNL     1      50.230   6.891  15.881  0.00  0.00    +0.000 C 
ATOM      4  C   UNL     1      48.803   6.823  15.345  0.00  0.00    +0.000 C 
ATOM      5  C   UNL     1      48.446   8.055  14.499  0.00  0.00    +0.000 C 
ATOM      6  C   UNL     1      48.728   9.365  15.230  0.00  0.00    +0.000 C 
ATOM      7  C   UNL     1      50.122   9.425  15.838  0.00  0.00    +0.000 C 
BRANCH   5   8
ATOM      8  C   UNL     1      49.143   8.009  13.126  0.00  0.00    +0.000 C 
BRANCH   8   9
ATOM      9  O   UNL     1      48.631   6.952  12.317  0.00  0.00    +0.000 OA
BRANCH   9  10
ATOM     10  C   UNL     1      47.400   7.300  11.685  0.00  0.00    +0.000 C 
BRANCH  10  11
ATOM     11  C   UNL     1      46.428   6.165  11.823  0.00  0.00    +0.000 A 
ATOM     12  C   UNL     1      46.276   5.526  13.056  0.00  0.00    +0.000 A 
ATOM     13  C   UNL     1      45.363   4.485  13.161  0.00  0.00    +0.000 A 
ATOM     14  C   UNL     1      44.629   4.119  12.040  0.00  0.00    +0.000 A 
ATOM     15 CL   UNL     1      43.507   2.824  12.115  0.00  0.00    +0.000 Cl
ATOM     16  C   UNL     1      44.824   4.821  10.860  0.00  0.00    +0.000 A 
ATOM     17  N   UNL     1      45.700   5.839  10.726  0.00  0.00    +0.000 NA
ENDBRANCH  10  11
ENDBRANCH   9  10
ENDBRANCH   8   9
ENDBRANCH   5   8
ENDBRANCH   1   2
BRANCH   1  18
ATOM     18  N   UNL     1      50.156   6.917  18.717  0.00  0.00    +0.000 NA
ATOM     19  H   UNL     1      50.888   7.088  19.407  0.00  0.00    +0.000 HD
BRANCH  18  21
ATOM     20  C   UNL     1      47.818   7.096  19.558  0.00  0.00    +0.000 C 
ATOM     21  C   UNL     1      49.052   6.210  19.376  0.00  0.00    +0.000 C 
BRANCH  21  22
ATOM     22  C   UNL     1      48.724   5.007  18.497  0.00  0.00    +0.000 A 
ATOM     23  C   UNL     1      47.477   4.738  17.947  0.00  0.00    +0.000 A 
ATOM     24  S   UNL     1      47.459   3.364  16.935  0.00  0.00    +0.000 S 
ATOM     25  C   UNL     1      49.095   3.033  17.261  0.00  0.00    +0.000 A 
ATOM     26  N   UNL     1      49.719   1.957  16.708  0.00  0.00    +0.000 NA
ATOM     27  C   UNL     1      50.948   1.811  17.077  0.00  0.00    +0.000 A 
ATOM     28  N   UNL     1      51.610   2.640  17.946  0.00  0.00    +0.000 N 
ATOM     29  C   UNL     1      51.026   3.749  18.519  0.00  0.00    +0.000 A 
ATOM     30  O   UNL     1      51.640   4.475  19.301  0.00  0.00    +0.000 OA
ATOM     31  C   UNL     1      49.645   3.960  18.126  0.00  0.00    +0.000 A 
ATOM     32  H   UNL     1      52.567   2.457  18.206  0.00  0.00    +0.000 HD
ENDBRANCH  21  22
ENDBRANCH  18  21
ENDBRANCH   1  18
TORSDOF 8
ENDMDL
MODEL 7
REMARK VINA RESULT:    -5.991      2.187      3.192
REMARK INTER + INTRA:         -10.208
REMARK INTER:                  -9.198
REMARK INTRA:                  -1.011
REMARK UNBOUND:                -1.416
REMARK  Name = 
REMARK  9 active torsions:
REMARK  status: ('A' for Active; 'I' for Inactive)
REMARK    1  A    between atoms: C_1  and  C_2
REMARK    2  A    between atoms: C_2  and  N_3
REMARK    3  A    between atoms: C_2  and  C_21
REMARK    4  A    between atoms: N_3  and  C_4
REMARK    5  A    between atoms: C_4  and  C_5
REMARK    6  A    between atoms: C_8  and  C_9
REMARK    7  A    between atoms: C_9  and  O_10
REMARK    8  A    between atoms: O_10  and  C_11
REMARK    9  A    between atoms: C_11  and  C_12
REMARK                            x       y       z     vdW  Elec       q    Type
REMARK                         _______ _______ _______ _____ _____    ______ ____
ROOT
ATOM      1  C   UNL     1      49.264   7.022  13.857  0.00  0.00    +0.000 C 
ENDROOT
BRANCH   1   2
ATOM      2  C   UNL     1      47.741   7.026  14.137  0.00  0.00    +0.000 C 
ATOM      3  C   UNL     1      46.951   7.742  13.023  0.00  0.00    +0.000 C 
ATOM      4  C   UNL     1      46.864   6.914  11.744  0.00  0.00    +0.000 C 
ATOM      5  C   UNL     1      46.288   5.514  12.002  0.00  0.00    +0.000 C 
ATOM      6  C   UNL     1      47.023   4.777  13.119  0.00  0.00    +0.000 C 
ATOM      7  C   UNL     1      47.187   5.612  14.381  0.00  0.00    +0.000 C 
BRANCH   5   8
ATOM      8  C   UNL     1      44.771   5.575  12.264  0.00  0.00    +0.000 C 
BRANCH   8   9
ATOM      9  O   UNL     1      44.097   4.463  11.681  0.00  0.00    +0.000 OA
BRANCH   9  10
ATOM     10  C   UNL     1      43.757   4.691  10.313  0.00  0.00    +0.000 C 
BRANCH  10  11
ATOM     11  C   UNL     1      44.642   3.859   9.432  0.00  0.00    +0.000 A 
ATOM     12  C   UNL     1      45.478   4.479   8.501  0.00  0.00    +0.000 A 
ATOM     13  C   UNL     1      46.295   3.688   7.704  0.00  0.00    +0.000 A 
ATOM     14  C   UNL     1      46.259   2.309   7.867  0.00  0.00    +0.000 A 
ATOM     15 CL   UNL     1      47.232   1.288   6.891  0.00  0.00    +0.000 Cl
ATOM     16  C   UNL     1      45.418   1.775   8.831  0.00  0.00    +0.000 A 
ATOM     17  N   UNL     1      44.614   2.516   9.623  0.00  0.00    +0.000 NA
ENDBRANCH  10  11
ENDBRANCH   9  10
ENDBRANCH   8   9
ENDBRANCH   5   8
ENDBRANCH   1   2
BRANCH   1  18
ATOM     18  N   UNL     1      49.870   8.095  14.644  0.00  0.00    +0.000 NA
ATOM     19  H   UNL     1      49.145   8.545  15.202  0.00  0.00    +0.000 HD
BRANCH  18  21
ATOM     20  C   UNL     1      51.687   8.924  16.132  0.00  0.00    +0.000 C 
ATOM     21  C   UNL     1      50.971   7.711  15.535  0.00  0.00    +0.000 C 
BRANCH  21  22
ATOM     22  C   UNL     1      50.356   6.853  16.636  0.00  0.00    +0.000 A 
ATOM     23  C   UNL     1      50.758   5.562  16.959  0.00  0.00    +0.000 A 
ATOM     24  S   UNL     1      49.935   4.906  18.302  0.00  0.00    +0.000 S 
ATOM     25  C   UNL     1      48.956   6.289  18.449  0.00  0.00    +0.000 A 
ATOM     26  N   UNL     1      48.002   6.377  19.415  0.00  0.00    +0.000 NA
ATOM     27  C   UNL     1      47.311   7.468  19.379  0.00  0.00    +0.000 A 
ATOM     28  N   UNL     1      47.487   8.479  18.469  0.00  0.00    +0.000 N 
ATOM     29  C   UNL     1      48.450   8.443  17.483  0.00  0.00    +0.000 A 
ATOM     30  O   UNL     1      48.584   9.360  16.674  0.00  0.00    +0.000 OA
ATOM     31  C   UNL     1      49.258   7.237  17.489  0.00  0.00    +0.000 A 
ATOM     32  H   UNL     1      46.899   9.298  18.487  0.00  0.00    +0.000 HD
ENDBRANCH  21  22
ENDBRANCH  18  21
ENDBRANCH   1  18
TORSDOF 8
ENDMDL
MODEL 8
REMARK VINA RESULT:    -5.983      4.135      8.400
REMARK INTER + INTRA:         -10.197
REMARK INTER:                  -8.281
REMARK INTRA:                  -1.916
REMARK UNBOUND:                -1.416
REMARK  Name = 
REMARK  9 active torsions:
REMARK  status: ('A' for Active; 'I' for Inactive)
REMARK    1  A    between atoms: C_1  and  C_2
REMARK    2  A    between atoms: C_2  and  N_3
REMARK    3  A    between atoms: C_2  and  C_21
REMARK    4  A    between atoms: N_3  and  C_4
REMARK    5  A    between atoms: C_4  and  C_5
REMARK    6  A    between atoms: C_8  and  C_9
REMARK    7  A    between atoms: C_9  and  O_10
REMARK    8  A    between atoms: O_10  and  C_11
REMARK    9  A    between atoms: C_11  and  C_12
REMARK                            x       y       z     vdW  Elec       q    Type
REMARK                         _______ _______ _______ _____ _____    ______ ____
ROOT
ATOM      1  C   UNL     1      48.261   9.344  14.356  0.00  0.00    +0.000 C 
ENDROOT
BRANCH   1   2
ATOM      2  C   UNL     1      48.686   9.161  15.833  0.00  0.00    +0.000 C 
ATOM      3  C   UNL     1      49.006   7.690  16.165  0.00  0.00    +0.000 C 
ATOM      4  C   UNL     1      50.335   7.233  15.571  0.00  0.00    +0.000 C 
ATOM      5  C   UNL     1      51.497   8.147  15.990  0.00  0.00    +0.000 C 
ATOM      6  C   UNL     1      51.212   9.619  15.705  0.00  0.00    +0.000 C 
ATOM      7  C   UNL     1      49.856  10.079  16.224  0.00  0.00    +0.000 C 
BRANCH   5   8
ATOM      8  C   UNL     1      51.885   7.918  17.463  0.00  0.00    +0.000 C 
BRANCH   8   9
ATOM      9  O   UNL     1      52.412   6.609  17.665  0.00  0.00    +0.000 OA
BRANCH   9  10
ATOM     10  C   UNL     1      51.916   6.003  18.858  0.00  0.00    +0.000 C 
BRANCH  10  11
ATOM     11  C   UNL     1      50.721   5.156  18.529  0.00  0.00    +0.000 A 
ATOM     12  C   UNL     1      50.864   4.049  17.690  0.00  0.00    +0.000 A 
ATOM     13  C   UNL     1      49.746   3.274  17.408  0.00  0.00    +0.000 A 
ATOM     14  C   UNL     1      48.527   3.624  17.976  0.00  0.00    +0.000 A 
ATOM     15 CL   UNL     1      47.114   2.713  17.639  0.00  0.00    +0.000 Cl
ATOM     16  C   UNL     1      48.477   4.725  18.817  0.00  0.00    +0.000 A 
ATOM     17  N   UNL     1      49.545   5.495  19.114  0.00  0.00    +0.000 NA
ENDBRANCH  10  11
ENDBRANCH   9  10
ENDBRANCH   8   9
ENDBRANCH   5   8
ENDBRANCH   1   2
BRANCH   1  18
ATOM     18  N   UNL     1      47.049   8.558  14.134  0.00  0.00    +0.000 NA
ATOM     19  H   UNL     1      46.235   9.153  14.291  0.00  0.00    +0.000 HD
BRANCH  18  21
ATOM     20  C   UNL     1      48.183   8.049  11.975  0.00  0.00    +0.000 C 
ATOM     21  C   UNL     1      46.912   7.923  12.819  0.00  0.00    +0.000 C 
BRANCH  21  22
ATOM     22  C   UNL     1      46.584   6.456  13.079  0.00  0.00    +0.000 A 
ATOM     23  C   UNL     1      47.415   5.558  13.737  0.00  0.00    +0.000 A 
ATOM     24  S   UNL     1      46.719   4.014  13.951  0.00  0.00    +0.000 S 
ATOM     25  C   UNL     1      45.317   4.466  13.100  0.00  0.00    +0.000 A 
ATOM     26  N   UNL     1      44.299   3.585  12.901  0.00  0.00    +0.000 NA
ATOM     27  C   UNL     1      43.319   4.058  12.206  0.00  0.00    +0.000 A 
ATOM     28  N   UNL     1      43.261   5.328  11.692  0.00  0.00    +0.000 N 
ATOM     29  C   UNL     1      44.259   6.259  11.879  0.00  0.00    +0.000 A 
ATOM     30  O   UNL     1      44.187   7.392  11.403  0.00  0.00    +0.000 OA
ATOM     31  C   UNL     1      45.380   5.777  12.664  0.00  0.00    +0.000 A 
ATOM     32  H   UNL     1      42.471   5.626  11.141  0.00  0.00    +0.000 HD
ENDBRANCH  21  22
ENDBRANCH  18  21
ENDBRANCH   1  18
TORSDOF 8
ENDMDL
MODEL 9
REMARK VINA RESULT:    -5.954      3.797      8.407
REMARK INTER + INTRA:         -10.154
REMARK INTER:                  -8.534
REMARK INTRA:                  -1.620
REMARK UNBOUND:                -1.416
REMARK  Name = 
REMARK  9 active torsions:
REMARK  status: ('A' for Active; 'I' for Inactive)
REMARK    1  A    between atoms: C_1  and  C_2
REMARK    2  A    between atoms: C_2  and  N_3
REMARK    3  A    between atoms: C_2  and  C_21
REMARK    4  A    between atoms: N_3  and  C_4
REMARK    5  A    between atoms: C_4  and  C_5
REMARK    6  A    between atoms: C_8  and  C_9
REMARK    7  A    between atoms: C_9  and  O_10
REMARK    8  A    between atoms: O_10  and  C_11
REMARK    9  A    between atoms: C_11  and  C_12
REMARK                            x       y       z     vdW  Elec       q    Type
REMARK                         _______ _______ _______ _____ _____    ______ ____
ROOT
ATOM      1  C   UNL     1      48.643   8.033  12.291  0.00  0.00    +0.000 C 
ENDROOT
BRANCH   1   2
ATOM      2  C   UNL     1      49.593   7.638  13.448  0.00  0.00    +0.000 C 
ATOM      3  C   UNL     1      50.729   8.662  13.639  0.00  0.00    +0.000 C 
ATOM      4  C   UNL     1      50.245   9.957  14.282  0.00  0.00    +0.000 C 
ATOM      5  C   UNL     1      49.517   9.704  15.611  0.00  0.00    +0.000 C 
ATOM      6  C   UNL     1      48.399   8.673  15.475  0.00  0.00    +0.000 C 
ATOM      7  C   UNL     1      48.841   7.400  14.768  0.00  0.00    +0.000 C 
BRANCH   5   8
ATOM      8  C   UNL     1      50.508   9.324  16.727  0.00  0.00    +0.000 C 
BRANCH   8   9
ATOM      9  O   UNL     1      49.830   8.828  17.879  0.00  0.00    +0.000 OA
BRANCH   9  10
ATOM     10  C   UNL     1      50.488   7.697  18.450  0.00  0.00    +0.000 C 
BRANCH  10  11
ATOM     11  C   UNL     1      49.646   6.472  18.243  0.00  0.00    +0.000 A 
ATOM     12  C   UNL     1      48.294   6.491  18.593  0.00  0.00    +0.000 A 
ATOM     13  C   UNL     1      47.532   5.348  18.382  0.00  0.00    +0.000 A 
ATOM     14  C   UNL     1      48.140   4.231  17.825  0.00  0.00    +0.000 A 
ATOM     15 CL   UNL     1      47.247   2.789  17.568  0.00  0.00    +0.000 Cl
ATOM     16  C   UNL     1      49.482   4.303  17.485  0.00  0.00    +0.000 A 
ATOM     17  N   UNL     1      50.248   5.399  17.673  0.00  0.00    +0.000 NA
ENDBRANCH  10  11
ENDBRANCH   9  10
ENDBRANCH   8   9
ENDBRANCH   5   8
ENDBRANCH   1   2
BRANCH   1  18
ATOM     18  N   UNL     1      47.939   6.830  11.853  0.00  0.00    +0.000 NA
ATOM     19  H   UNL     1      48.472   6.010  12.144  0.00  0.00    +0.000 HD
BRANCH  18  21
ATOM     20  C   UNL     1      45.821   8.012  12.422  0.00  0.00    +0.000 C 
ATOM     21  C   UNL     1      46.557   6.674  12.321  0.00  0.00    +0.000 C 
BRANCH  21  22
ATOM     22  C   UNL     1      45.864   5.753  11.321  0.00  0.00    +0.000 A 
ATOM     23  C   UNL     1      45.981   5.845   9.940  0.00  0.00    +0.000 A 
ATOM     24  S   UNL     1      45.155   4.609   9.101  0.00  0.00    +0.000 S 
ATOM     25  C   UNL     1      44.546   3.957  10.549  0.00  0.00    +0.000 A 
ATOM     26  N   UNL     1      43.732   2.866  10.542  0.00  0.00    +0.000 NA
ATOM     27  C   UNL     1      43.316   2.509  11.711  0.00  0.00    +0.000 A 
ATOM     28  N   UNL     1      43.638   3.140  12.886  0.00  0.00    +0.000 N 
ATOM     29  C   UNL     1      44.469   4.237  12.945  0.00  0.00    +0.000 A 
ATOM     30  O   UNL     1      44.739   4.790  14.011  0.00  0.00    +0.000 OA
ATOM     31  C   UNL     1      44.970   4.671  11.654  0.00  0.00    +0.000 A 
ATOM     32  H   UNL     1      43.262   2.817  13.764  0.00  0.00    +0.000 HD
ENDBRANCH  21  22
ENDBRANCH  18  21
ENDBRANCH   1  18
TORSDOF 8
ENDMDL
