MODEL 1
REMARK VINA RESULT:    -8.422      0.000      0.000
REMARK INTER + INTRA:         -11.092
REMARK INTER:                 -10.638
REMARK INTRA:                  -0.454
REMARK UNBOUND:                -0.454
REMARK  Name = 
REMARK  5 active torsions:
REMARK  status: ('A' for Active; 'I' for Inactive)
REMARK    1  A    between atoms: C_2  and  C_4
REMARK    2  A    between atoms: N_8  and  C_9
REMARK    3  A    between atoms: C_9  and  C_10
REMARK    4  A    between atoms: C_10  and  O_11
REMARK    5  A    between atoms: C_10  and  C_12
REMARK                            x       y       z     vdW  Elec       q    Type
REMARK                         _______ _______ _______ _____ _____    ______ ____
ROOT
ATOM      1  C   UNL     1      46.425   2.384   7.786  0.00  0.00    +0.000 A 
ATOM      2  C   UNL     1      45.537   1.939   8.732  0.00  0.00    +0.000 A 
ATOM      3  N   UNL     1      44.680   2.745   9.396  0.00  0.00    +0.000 NA
ATOM      4  C   UNL     1      44.711   4.054   9.093  0.00  0.00    +0.000 A 
ATOM      5  N   UNL     1      43.807   4.916   9.698  0.00  0.00    +0.000 N 
ATOM      6  N   UNL     1      45.570   4.594   8.218  0.00  0.00    +0.000 NA
ATOM      7  C   UNL     1      46.421   3.748   7.588  0.00  0.00    +0.000 A 
ATOM      8  H   UNL     1      44.108   5.864   9.495  0.00  0.00    +0.000 HD
ENDROOT
BRANCH   1  10
ATOM      9  N   UNL     1      48.472   2.067   6.522  0.00  0.00    +0.000 N 
ATOM     10  C   UNL     1      47.336   1.508   7.041  0.00  0.00    +0.000 C 
ATOM     11  O   UNL     1      47.103   0.315   6.918  0.00  0.00    +0.000 OA
ATOM     12  H   UNL     1      49.133   1.426   6.099  0.00  0.00    +0.000 HD
ATOM     13  H   UNL     1      48.836   2.966   6.816  0.00  0.00    +0.000 HD
ENDBRANCH   1  10
BRANCH   5  14
ATOM     14  C   UNL     1      43.553   4.607  11.104  0.00  0.00    +0.000 C 
BRANCH  14  15
ATOM     15  C   UNL     1      43.896   5.808  12.029  0.00  0.00    +0.000 C 
BRANCH  15  16
ATOM     16  C   UNL     1      45.369   5.950  12.360  0.00  0.00    +0.000 A 
ATOM     17  C   UNL     1      46.185   6.863  11.677  0.00  0.00    +0.000 A 
ATOM     18  C   UNL     1      47.537   6.978  11.992  0.00  0.00    +0.000 A 
ATOM     19  C   UNL     1      48.048   6.156  12.978  0.00  0.00    +0.000 A 
ATOM     20  N   UNL     1      47.313   5.242  13.641  0.00  0.00    +0.000 NA
ATOM     21  C   UNL     1      46.003   5.153  13.312  0.00  0.00    +0.000 A 
ENDBRANCH  15  16
BRANCH  15  22
ATOM     22  O   UNL     1      43.158   5.700  13.257  0.00  0.00    +0.000 OA
ATOM     23  H   UNL     1      43.150   6.587  13.658  0.00  0.00    +0.000 HD
ENDBRANCH  15  22
ENDBRANCH  14  15
ENDBRANCH   5  14
TORSDOF 5
ENDMDL
MODEL 2
REMARK VINA RESULT:    -7.480      2.069      6.361
REMARK INTER + INTRA:          -9.902
REMARK INTER:                  -9.522
REMARK INTRA:                  -0.380
REMARK UNBOUND:                -0.454
REMARK  Name = 
REMARK  5 active torsions:
REMARK  status: ('A' for Active; 'I' for Inactive)
REMARK    1  A    between atoms: C_2  and  C_4
REMARK    2  A    between atoms: N_8  and  C_9
REMARK    3  A    between atoms: C_9  and  C_10
REMARK    4  A    between atoms: C_10  and  O_11
REMARK    5  A    between atoms: C_10  and  C_12
REMARK                            x       y       z     vdW  Elec       q    Type
REMARK                         _______ _______ _______ _____ _____    ______ ____
ROOT
ATOM      1  C   UNL     1      46.784   5.948  12.916  0.00  0.00    +0.000 A 
ATOM      2  C   UNL     1      46.531   6.228  11.597  0.00  0.00    +0.000 A 
ATOM      3  N   UNL     1      45.652   5.537  10.839  0.00  0.00    +0.000 NA
ATOM      4  C   UNL     1      44.995   4.525  11.430  0.00  0.00    +0.000 A 
ATOM      5  N   UNL     1      44.034   3.825  10.715  0.00  0.00    +0.000 N 
ATOM      6  N   UNL     1      45.203   4.144  12.698  0.00  0.00    +0.000 NA
ATOM      7  C   UNL     1      46.104   4.858  13.415  0.00  0.00    +0.000 A 
ATOM      8  H   UNL     1      43.796   2.998  11.253  0.00  0.00    +0.000 HD
ENDROOT
BRANCH   1  10
ATOM      9  N   UNL     1      47.323   7.962  14.157  0.00  0.00    +0.000 N 
ATOM     10  C   UNL     1      47.714   6.715  13.753  0.00  0.00    +0.000 C 
ATOM     11  O   UNL     1      48.784   6.241  14.103  0.00  0.00    +0.000 OA
ATOM     12  H   UNL     1      47.936   8.432  14.814  0.00  0.00    +0.000 HD
ATOM     13  H   UNL     1      46.363   8.285  14.121  0.00  0.00    +0.000 HD
ENDBRANCH   1  10
BRANCH   5  14
ATOM     14  C   UNL     1      44.391   3.603   9.315  0.00  0.00    +0.000 C 
BRANCH  14  15
ATOM     15  C   UNL     1      45.288   2.344   9.141  0.00  0.00    +0.000 C 
BRANCH  15  16
ATOM     16  C   UNL     1      46.148   2.349   7.892  0.00  0.00    +0.000 A 
ATOM     17  C   UNL     1      46.062   3.387   6.952  0.00  0.00    +0.000 A 
ATOM     18  C   UNL     1      46.858   3.373   5.809  0.00  0.00    +0.000 A 
ATOM     19  C   UNL     1      47.714   2.304   5.623  0.00  0.00    +0.000 A 
ATOM     20  N   UNL     1      47.810   1.268   6.481  0.00  0.00    +0.000 NA
ATOM     21  C   UNL     1      47.023   1.310   7.582  0.00  0.00    +0.000 A 
ENDBRANCH  15  16
BRANCH  15  22
ATOM     22  O   UNL     1      44.469   1.164   9.130  0.00  0.00    +0.000 OA
ATOM     23  H   UNL     1      44.104   1.083   8.231  0.00  0.00    +0.000 HD
ENDBRANCH  15  22
ENDBRANCH  14  15
ENDBRANCH   5  14
TORSDOF 5
ENDMDL
MODEL 3
REMARK VINA RESULT:    -7.193      2.554      6.434
REMARK INTER + INTRA:          -9.538
REMARK INTER:                  -9.446
REMARK INTRA:                  -0.092
REMARK UNBOUND:                -0.454
REMARK  Name = 
REMARK  5 active torsions:
REMARK  status: ('A' for Active; 'I' for Inactive)
REMARK    1  A    between atoms: C_2  and  C_4
REMARK    2  A    between atoms: N_8  and  C_9
REMARK    3  A    between atoms: C_9  and  C_10
REMARK    4  A    between atoms: C_10  and  O_11
REMARK    5  A    between atoms: C_10  and  C_12
REMARK                            x       y       z     vdW  Elec       q    Type
REMARK                         _______ _______ _______ _____ _____    ______ ____
ROOT
ATOM      1  C   UNL     1      45.446   7.829  12.022  0.00  0.00    +0.000 A 
ATOM      2  C   UNL     1      44.239   7.298  11.645  0.00  0.00    +0.000 A 
ATOM      3  N   UNL     1      44.060   6.000  11.317  0.00  0.00    +0.000 NA
ATOM      4  C   UNL     1      45.137   5.199  11.375  0.00  0.00    +0.000 A 
ATOM      5  N   UNL     1      44.995   3.844  11.111  0.00  0.00    +0.000 N 
ATOM      6  N   UNL     1      46.367   5.629  11.687  0.00  0.00    +0.000 NA
ATOM      7  C   UNL     1      46.501   6.942  11.994  0.00  0.00    +0.000 A 
ATOM      8  H   UNL     1      45.927   3.453  11.015  0.00  0.00    +0.000 HD
ENDROOT
BRANCH   1  10
ATOM      9  N   UNL     1      44.523  10.010  12.551  0.00  0.00    +0.000 N 
ATOM     10  C   UNL     1      45.639   9.231  12.409  0.00  0.00    +0.000 C 
ATOM     11  O   UNL     1      46.755   9.677  12.630  0.00  0.00    +0.000 OA
ATOM     12  H   UNL     1      44.672  10.944  12.915  0.00  0.00    +0.000 HD
ATOM     13  H   UNL     1      43.587   9.633  12.641  0.00  0.00    +0.000 HD
ENDBRANCH   1  10
BRANCH   5  14
ATOM     14  C   UNL     1      44.059   3.553  10.027  0.00  0.00    +0.000 C 
BRANCH  14  15
ATOM     15  C   UNL     1      44.652   3.924   8.638  0.00  0.00    +0.000 C 
BRANCH  15  16
ATOM     16  C   UNL     1      45.669   2.935   8.101  0.00  0.00    +0.000 A 
ATOM     17  C   UNL     1      46.655   3.329   7.185  0.00  0.00    +0.000 A 
ATOM     18  C   UNL     1      47.579   2.406   6.700  0.00  0.00    +0.000 A 
ATOM     19  C   UNL     1      47.482   1.097   7.131  0.00  0.00    +0.000 A 
ATOM     20  N   UNL     1      46.533   0.663   7.985  0.00  0.00    +0.000 NA
ATOM     21  C   UNL     1      45.649   1.583   8.438  0.00  0.00    +0.000 A 
ENDBRANCH  15  16
BRANCH  15  22
ATOM     22  O   UNL     1      45.263   5.222   8.703  0.00  0.00    +0.000 OA
ATOM     23  H   UNL     1      46.162   5.091   9.053  0.00  0.00    +0.000 HD
ENDBRANCH  15  22
ENDBRANCH  14  15
ENDBRANCH   5  14
TORSDOF 5
ENDMDL
MODEL 4
REMARK VINA RESULT:    -6.688      2.604      6.591
REMARK INTER + INTRA:          -8.901
REMARK INTER:                  -8.597
REMARK INTRA:                  -0.304
REMARK UNBOUND:                -0.454
REMARK  Name = 
REMARK  5 active torsions:
REMARK  status: ('A' for Active; 'I' for Inactive)
REMARK    1  A    between atoms: C_2  and  C_4
REMARK    2  A    between atoms: N_8  and  C_9
REMARK    3  A    between atoms: C_9  and  C_10
REMARK    4  A    between atoms: C_10  and  O_11
REMARK    5  A    between atoms: C_10  and  C_12
REMARK                            x       y       z     vdW  Elec       q    Type
REMARK                         _______ _______ _______ _____ _____    ______ ____
ROOT
ATOM      1  C   UNL     1      47.822   5.346  15.381  0.00  0.00    +0.000 A 
ATOM      2  C   UNL     1      47.041   4.250  15.113  0.00  0.00    +0.000 A 
ATOM      3  N   UNL     1      46.337   4.093  13.971  0.00  0.00    +0.000 NA
ATOM      4  C   UNL     1      46.424   5.074  13.057  0.00  0.00    +0.000 A 
ATOM      5  N   UNL     1      45.773   4.934  11.840  0.00  0.00    +0.000 N 
ATOM      6  N   UNL     1      47.122   6.203  13.242  0.00  0.00    +0.000 NA
ATOM      7  C   UNL     1      47.801   6.322  14.409  0.00  0.00    +0.000 A 
ATOM      8  H   UNL     1      45.795   5.836  11.376  0.00  0.00    +0.000 HD
ENDROOT
BRANCH   1  10
ATOM      9  N   UNL     1      47.988   6.037  17.701  0.00  0.00    +0.000 N 
ATOM     10  C   UNL     1      48.614   5.507  16.606  0.00  0.00    +0.000 C 
ATOM     11  O   UNL     1      49.781   5.147  16.655  0.00  0.00    +0.000 OA
ATOM     12  H   UNL     1      48.523   6.047  18.562  0.00  0.00    +0.000 HD
ATOM     13  H   UNL     1      46.981   6.099  17.793  0.00  0.00    +0.000 HD
ENDBRANCH   1  10
BRANCH   5  14
ATOM     14  C   UNL     1      44.462   4.296  11.947  0.00  0.00    +0.000 C 
BRANCH  14  15
ATOM     15  C   UNL     1      43.810   4.079  10.552  0.00  0.00    +0.000 C 
BRANCH  15  16
ATOM     16  C   UNL     1      44.737   3.486   9.507  0.00  0.00    +0.000 A 
ATOM     17  C   UNL     1      45.269   4.272   8.475  0.00  0.00    +0.000 A 
ATOM     18  C   UNL     1      46.116   3.709   7.522  0.00  0.00    +0.000 A 
ATOM     19  C   UNL     1      46.397   2.360   7.616  0.00  0.00    +0.000 A 
ATOM     20  N   UNL     1      45.886   1.557   8.570  0.00  0.00    +0.000 NA
ATOM     21  C   UNL     1      45.066   2.132   9.481  0.00  0.00    +0.000 A 
ENDBRANCH  15  16
BRANCH  15  22
ATOM     22  O   UNL     1      43.299   5.327  10.056  0.00  0.00    +0.000 OA
ATOM     23  H   UNL     1      43.864   5.584   9.307  0.00  0.00    +0.000 HD
ENDBRANCH  15  22
ENDBRANCH  14  15
ENDBRANCH   5  14
TORSDOF 5
ENDMDL
MODEL 5
REMARK VINA RESULT:    -6.639      3.987      6.117
REMARK INTER + INTRA:          -8.839
REMARK INTER:                  -8.642
REMARK INTRA:                  -0.196
REMARK UNBOUND:                -0.454
REMARK  Name = 
REMARK  5 active torsions:
REMARK  status: ('A' for Active; 'I' for Inactive)
REMARK    1  A    between atoms: C_2  and  C_4
REMARK    2  A    between atoms: N_8  and  C_9
REMARK    3  A    between atoms: C_9  and  C_10
REMARK    4  A    between atoms: C_10  and  O_11
REMARK    5  A    between atoms: C_10  and  C_12
REMARK                            x       y       z     vdW  Elec       q    Type
REMARK                         _______ _______ _______ _____ _____    ______ ____
ROOT
ATOM      1  C   UNL     1      44.675   4.716  11.691  0.00  0.00    +0.000 A 
ATOM      2  C   UNL     1      45.247   5.696  12.462  0.00  0.00    +0.000 A 
ATOM      3  N   UNL     1      46.084   5.446  13.493  0.00  0.00    +0.000 NA
ATOM      4  C   UNL     1      46.363   4.159  13.758  0.00  0.00    +0.000 A 
ATOM      5  N   UNL     1      47.267   3.850  14.764  0.00  0.00    +0.000 N 
ATOM      6  N   UNL     1      45.821   3.129  13.094  0.00  0.00    +0.000 NA
ATOM      7  C   UNL     1      44.976   3.428  12.077  0.00  0.00    +0.000 A 
ATOM      8  H   UNL     1      47.199   2.852  14.939  0.00  0.00    +0.000 HD
ENDROOT
BRANCH   1  10
ATOM      9  N   UNL     1      44.176   4.515   9.325  0.00  0.00    +0.000 N 
ATOM     10  C   UNL     1      43.791   4.983  10.551  0.00  0.00    +0.000 C 
ATOM     11  O   UNL     1      42.731   5.572  10.700  0.00  0.00    +0.000 OA
ATOM     12  H   UNL     1      43.505   4.623   8.573  0.00  0.00    +0.000 HD
ATOM     13  H   UNL     1      44.891   3.807   9.197  0.00  0.00    +0.000 HD
ENDBRANCH   1  10
BRANCH   5  14
ATOM     14  C   UNL     1      47.162   4.719  15.935  0.00  0.00    +0.000 C 
BRANCH  14  15
ATOM     15  C   UNL     1      47.482   3.955  17.250  0.00  0.00    +0.000 C 
BRANCH  15  16
ATOM     16  C   UNL     1      48.876   3.362  17.314  0.00  0.00    +0.000 A 
ATOM     17  C   UNL     1      49.959   4.099  17.814  0.00  0.00    +0.000 A 
ATOM     18  C   UNL     1      51.234   3.539  17.862  0.00  0.00    +0.000 A 
ATOM     19  C   UNL     1      51.400   2.253  17.386  0.00  0.00    +0.000 A 
ATOM     20  N   UNL     1      50.397   1.516  16.867  0.00  0.00    +0.000 NA
ATOM     21  C   UNL     1      49.170   2.088  16.833  0.00  0.00    +0.000 A 
ENDBRANCH  15  16
BRANCH  15  22
ATOM     22  O   UNL     1      46.525   2.901  17.444  0.00  0.00    +0.000 OA
ATOM     23  H   UNL     1      45.689   3.204  17.047  0.00  0.00    +0.000 HD
ENDBRANCH  15  22
ENDBRANCH  14  15
ENDBRANCH   5  14
TORSDOF 5
ENDMDL
MODEL 6
REMARK VINA RESULT:    -6.631      2.313      5.987
REMARK INTER + INTRA:          -8.830
REMARK INTER:                  -8.370
REMARK INTRA:                  -0.460
REMARK UNBOUND:                -0.454
REMARK  Name = 
REMARK  5 active torsions:
REMARK  status: ('A' for Active; 'I' for Inactive)
REMARK    1  A    between atoms: C_2  and  C_4
REMARK    2  A    between atoms: N_8  and  C_9
REMARK    3  A    between atoms: C_9  and  C_10
REMARK    4  A    between atoms: C_10  and  O_11
REMARK    5  A    between atoms: C_10  and  C_12
REMARK                            x       y       z     vdW  Elec       q    Type
REMARK                         _______ _______ _______ _____ _____    ______ ____
ROOT
ATOM      1  C   UNL     1      47.305   6.344  13.293  0.00  0.00    +0.000 A 
ATOM      2  C   UNL     1      46.354   6.575  12.332  0.00  0.00    +0.000 A 
ATOM      3  N   UNL     1      45.237   5.829  12.188  0.00  0.00    +0.000 NA
ATOM      4  C   UNL     1      45.063   4.812  13.049  0.00  0.00    +0.000 A 
ATOM      5  N   UNL     1      43.902   4.055  12.987  0.00  0.00    +0.000 N 
ATOM      6  N   UNL     1      45.954   4.477  13.993  0.00  0.00    +0.000 NA
ATOM      7  C   UNL     1      47.067   5.245  14.089  0.00  0.00    +0.000 A 
ATOM      8  H   UNL     1      44.040   3.236  13.571  0.00  0.00    +0.000 HD
ENDROOT
BRANCH   1  10
ATOM      9  N   UNL     1      49.607   6.860  12.725  0.00  0.00    +0.000 N 
ATOM     10  C   UNL     1      48.504   7.170  13.473  0.00  0.00    +0.000 C 
ATOM     11  O   UNL     1      48.506   8.122  14.240  0.00  0.00    +0.000 OA
ATOM     12  H   UNL     1      50.389   7.501  12.792  0.00  0.00    +0.000 HD
ATOM     13  H   UNL     1      49.575   6.268  11.904  0.00  0.00    +0.000 HD
ENDBRANCH   1  10
BRANCH   5  14
ATOM     14  C   UNL     1      43.438   3.804  11.624  0.00  0.00    +0.000 C 
BRANCH  14  15
ATOM     15  C   UNL     1      44.208   2.627  10.960  0.00  0.00    +0.000 C 
BRANCH  15  16
ATOM     16  C   UNL     1      44.903   2.981   9.659  0.00  0.00    +0.000 A 
ATOM     17  C   UNL     1      45.524   1.999   8.874  0.00  0.00    +0.000 A 
ATOM     18  C   UNL     1      46.161   2.344   7.684  0.00  0.00    +0.000 A 
ATOM     19  C   UNL     1      46.177   3.674   7.314  0.00  0.00    +0.000 A 
ATOM     20  N   UNL     1      45.622   4.659   8.050  0.00  0.00    +0.000 NA
ATOM     21  C   UNL     1      45.012   4.293   9.201  0.00  0.00    +0.000 A 
ENDBRANCH  15  16
BRANCH  15  22
ATOM     22  O   UNL     1      43.307   1.535  10.717  0.00  0.00    +0.000 OA
ATOM     23  H   UNL     1      43.804   0.717  10.892  0.00  0.00    +0.000 HD
ENDBRANCH  15  22
ENDBRANCH  14  15
ENDBRANCH   5  14
TORSDOF 5
ENDMDL
MODEL 7
REMARK VINA RESULT:    -6.330      4.010      5.476
REMARK INTER + INTRA:          -8.448
REMARK INTER:                  -8.178
REMARK INTRA:                  -0.270
REMARK UNBOUND:                -0.454
REMARK  Name = 
REMARK  5 active torsions:
REMARK  status: ('A' for Active; 'I' for Inactive)
REMARK    1  A    between atoms: C_2  and  C_4
REMARK    2  A    between atoms: N_8  and  C_9
REMARK    3  A    between atoms: C_9  and  C_10
REMARK    4  A    between atoms: C_10  and  O_11
REMARK    5  A    between atoms: C_10  and  C_12
REMARK                            x       y       z     vdW  Elec       q    Type
REMARK                         _______ _______ _______ _____ _____    ______ ____
ROOT
ATOM      1  C   UNL     1      44.924   3.854  10.979  0.00  0.00    +0.000 A 
ATOM      2  C   UNL     1      45.080   2.997  12.038  0.00  0.00    +0.000 A 
ATOM      3  N   UNL     1      45.603   3.363  13.229  0.00  0.00    +0.000 NA
ATOM      4  C   UNL     1      45.980   4.645  13.364  0.00  0.00    +0.000 A 
ATOM      5  N   UNL     1      46.463   5.090  14.586  0.00  0.00    +0.000 N 
ATOM      6  N   UNL     1      45.911   5.548  12.376  0.00  0.00    +0.000 NA
ATOM      7  C   UNL     1      45.394   5.131  11.195  0.00  0.00    +0.000 A 
ATOM      8  H   UNL     1      46.868   6.009  14.438  0.00  0.00    +0.000 HD
ENDROOT
BRANCH   1  10
ATOM      9  N   UNL     1      44.127   4.453   8.766  0.00  0.00    +0.000 N 
ATOM     10  C   UNL     1      44.328   3.468   9.694  0.00  0.00    +0.000 C 
ATOM     11  O   UNL     1      44.054   2.302   9.451  0.00  0.00    +0.000 OA
ATOM     12  H   UNL     1      43.808   4.150   7.853  0.00  0.00    +0.000 HD
ATOM     13  H   UNL     1      44.572   5.363   8.813  0.00  0.00    +0.000 HD
ENDBRANCH   1  10
BRANCH   5  14
ATOM     14  C   UNL     1      47.309   4.115  15.272  0.00  0.00    +0.000 C 
BRANCH  14  15
ATOM     15  C   UNL     1      47.231   4.268  16.817  0.00  0.00    +0.000 C 
BRANCH  15  16
ATOM     16  C   UNL     1      48.576   4.361  17.512  0.00  0.00    +0.000 A 
ATOM     17  C   UNL     1      49.575   3.401  17.297  0.00  0.00    +0.000 A 
ATOM     18  C   UNL     1      50.804   3.501  17.946  0.00  0.00    +0.000 A 
ATOM     19  C   UNL     1      50.998   4.558  18.815  0.00  0.00    +0.000 A 
ATOM     20  N   UNL     1      50.058   5.488  19.079  0.00  0.00    +0.000 NA
ATOM     21  C   UNL     1      48.874   5.363  18.434  0.00  0.00    +0.000 A 
ENDBRANCH  15  16
BRANCH  15  22
ATOM     22  O   UNL     1      46.500   3.166  17.377  0.00  0.00    +0.000 OA
ATOM     23  H   UNL     1      46.802   2.364  16.913  0.00  0.00    +0.000 HD
ENDBRANCH  15  22
ENDBRANCH  14  15
ENDBRANCH   5  14
TORSDOF 5
ENDMDL
MODEL 8
REMARK VINA RESULT:    -6.003      4.625      6.844
REMARK INTER + INTRA:          -8.035
REMARK INTER:                  -7.743
REMARK INTRA:                  -0.292
REMARK UNBOUND:                -0.454
REMARK  Name = 
REMARK  5 active torsions:
REMARK  status: ('A' for Active; 'I' for Inactive)
REMARK    1  A    between atoms: C_2  and  C_4
REMARK    2  A    between atoms: N_8  and  C_9
REMARK    3  A    between atoms: C_9  and  C_10
REMARK    4  A    between atoms: C_10  and  O_11
REMARK    5  A    between atoms: C_10  and  C_12
REMARK                            x       y       z     vdW  Elec       q    Type
REMARK                         _______ _______ _______ _____ _____    ______ ____
ROOT
ATOM      1  C   UNL     1      45.904   5.464  12.129  0.00  0.00    +0.000 A 
ATOM      2  C   UNL     1      46.866   5.864  13.022  0.00  0.00    +0.000 A 
ATOM      3  N   UNL     1      47.401   5.054  13.961  0.00  0.00    +0.000 NA
ATOM      4  C   UNL     1      46.955   3.787  14.004  0.00  0.00    +0.000 A 
ATOM      5  N   UNL     1      47.518   2.896  14.906  0.00  0.00    +0.000 N 
ATOM      6  N   UNL     1      45.988   3.312  13.207  0.00  0.00    +0.000 NA
ATOM      7  C   UNL     1      45.471   4.166  12.290  0.00  0.00    +0.000 A 
ATOM      8  H   UNL     1      46.931   2.067  14.922  0.00  0.00    +0.000 HD
ENDROOT
BRANCH   1  10
ATOM      9  N   UNL     1      45.291   5.840   9.811  0.00  0.00    +0.000 N 
ATOM     10  C   UNL     1      45.342   6.331  11.087  0.00  0.00    +0.000 C 
ATOM     11  O   UNL     1      44.904   7.439  11.357  0.00  0.00    +0.000 OA
ATOM     12  H   UNL     1      44.811   6.414   9.129  0.00  0.00    +0.000 HD
ATOM     13  H   UNL     1      45.389   4.856   9.588  0.00  0.00    +0.000 HD
ENDBRANCH   1  10
BRANCH   5  14
ATOM     14  C   UNL     1      47.826   3.492  16.205  0.00  0.00    +0.000 C 
BRANCH  14  15
ATOM     15  C   UNL     1      48.842   2.633  17.008  0.00  0.00    +0.000 C 
BRANCH  15  16
ATOM     16  C   UNL     1      49.824   3.432  17.843  0.00  0.00    +0.000 A 
ATOM     17  C   UNL     1      49.386   4.263  18.885  0.00  0.00    +0.000 A 
ATOM     18  C   UNL     1      50.302   4.992  19.641  0.00  0.00    +0.000 A 
ATOM     19  C   UNL     1      51.641   4.886  19.321  0.00  0.00    +0.000 A 
ATOM     20  N   UNL     1      52.109   4.127  18.310  0.00  0.00    +0.000 NA
ATOM     21  C   UNL     1      51.195   3.431  17.594  0.00  0.00    +0.000 A 
ENDBRANCH  15  16
BRANCH  15  22
ATOM     22  O   UNL     1      49.583   1.792  16.109  0.00  0.00    +0.000 OA
ATOM     23  H   UNL     1      50.142   2.380  15.570  0.00  0.00    +0.000 HD
ENDBRANCH  15  22
ENDBRANCH  14  15
ENDBRANCH   5  14
TORSDOF 5
ENDMDL
