MODEL 1
REMARK VINA RESULT:    -7.718      0.000      0.000
REMARK INTER + INTRA:         -10.057
REMARK INTER:                  -9.748
REMARK INTRA:                  -0.309
REMARK UNBOUND:                -0.309
REMARK  Name = 
REMARK  5 active torsions:
REMARK  status: ('A' for Active; 'I' for Inactive)
REMARK    1  A    between atoms: N_1  and  C_2
REMARK    2  A    between atoms: C_2  and  C_3
REMARK    3  A    between atoms: C_3  and  C_4
REMARK    4  A    between atoms: N_10  and  C_11
REMARK    5  A    between atoms: C_11  and  C_12
REMARK                            x       y       z     vdW  Elec       q    Type
REMARK                         _______ _______ _______ _____ _____    ______ ____
ROOT
ATOM      1  C   UNL     1      46.398   6.191  12.137  0.00  0.00    +0.000 A 
ATOM      2  C   UNL     1      46.096   5.493  13.305  0.00  0.00    +0.000 A 
ATOM      3  N   UNL     1      45.295   4.408  13.378  0.00  0.00    +0.000 NA
ATOM      4  C   UNL     1      44.806   3.967  12.195  0.00  0.00    +0.000 A 
ATOM      5  C   UNL     1      43.987   2.845  11.946  0.00  0.00    +0.000 A 
ATOM      6  C   UNL     1      43.805   2.758  10.589  0.00  0.00    +0.000 A 
ATOM      7  N   UNL     1      44.481   3.803   9.990  0.00  0.00    +0.000 N 
ATOM      8  C   UNL     1      45.065   4.586  10.967  0.00  0.00    +0.000 A 
ATOM      9  C   UNL     1      45.825   5.764  10.932  0.00  0.00    +0.000 A 
ENDROOT
BRANCH   1  10
ATOM     10  C   UNL     1      47.324   7.380  12.151  0.00  0.00    +0.000 C 
BRANCH  10  11
ATOM     11  C   UNL     1      46.624   8.673  12.573  0.00  0.00    +0.000 C 
BRANCH  11  12
ATOM     12  N   UNL     1      46.745   8.886  14.014  0.00  0.00    +0.000 NA
ATOM     13  H   UNL     1      47.553   8.372  14.362  0.00  0.00    +0.000 HD
ATOM     14  H   UNL     1      45.933   8.501  14.495  0.00  0.00    +0.000 HD
ENDBRANCH  11  12
ENDBRANCH  10  11
ENDBRANCH   1  10
BRANCH   7  15
ATOM     15  C   UNL     1      44.674   3.894   8.541  0.00  0.00    +0.000 C 
BRANCH  15  16
ATOM     16  C   UNL     1      45.817   3.033   8.070  0.00  0.00    +0.000 A 
ATOM     17  C   UNL     1      46.831   3.574   7.275  0.00  0.00    +0.000 A 
ATOM     18  C   UNL     1      47.768   2.718   6.719  0.00  0.00    +0.000 A 
ATOM     19  N   UNL     1      47.787   1.386   6.928  0.00  0.00    +0.000 NA
ATOM     20  C   UNL     1      46.834   0.887   7.743  0.00  0.00    +0.000 A 
ATOM     21  C   UNL     1      45.852   1.661   8.344  0.00  0.00    +0.000 A 
ENDBRANCH  15  16
ENDBRANCH   7  15
TORSDOF 5
ENDMDL
MODEL 2
REMARK VINA RESULT:    -7.062      1.326      6.033
REMARK INTER + INTRA:          -9.229
REMARK INTER:                  -8.768
REMARK INTRA:                  -0.460
REMARK UNBOUND:                -0.309
REMARK  Name = 
REMARK  5 active torsions:
REMARK  status: ('A' for Active; 'I' for Inactive)
REMARK    1  A    between atoms: N_1  and  C_2
REMARK    2  A    between atoms: C_2  and  C_3
REMARK    3  A    between atoms: C_3  and  C_4
REMARK    4  A    between atoms: N_10  and  C_11
REMARK    5  A    between atoms: C_11  and  C_12
REMARK                            x       y       z     vdW  Elec       q    Type
REMARK                         _______ _______ _______ _____ _____    ______ ____
ROOT
ATOM      1  C   UNL     1      45.597   3.520   8.183  0.00  0.00    +0.000 A 
ATOM      2  C   UNL     1      44.890   2.351   8.458  0.00  0.00    +0.000 A 
ATOM      3  N   UNL     1      44.130   2.141   9.555  0.00  0.00    +0.000 NA
ATOM      4  C   UNL     1      44.034   3.190  10.405  0.00  0.00    +0.000 A 
ATOM      5  C   UNL     1      43.288   3.290  11.598  0.00  0.00    +0.000 A 
ATOM      6  C   UNL     1      43.446   4.564  12.080  0.00  0.00    +0.000 A 
ATOM      7  N   UNL     1      44.279   5.255  11.223  0.00  0.00    +0.000 N 
ATOM      8  C   UNL     1      44.690   4.412  10.210  0.00  0.00    +0.000 A 
ATOM      9  C   UNL     1      45.545   4.570   9.109  0.00  0.00    +0.000 A 
ENDROOT
BRANCH   1  10
ATOM     10  C   UNL     1      46.402   3.671   6.918  0.00  0.00    +0.000 C 
BRANCH  10  11
ATOM     11  C   UNL     1      47.098   2.375   6.499  0.00  0.00    +0.000 C 
BRANCH  11  12
ATOM     12  N   UNL     1      48.547   2.555   6.443  0.00  0.00    +0.000 NA
ATOM     13  H   UNL     1      48.982   2.012   7.188  0.00  0.00    +0.000 HD
ATOM     14  H   UNL     1      48.787   3.529   6.623  0.00  0.00    +0.000 HD
ENDBRANCH  11  12
ENDBRANCH  10  11
ENDBRANCH   1  10
BRANCH   7  15
ATOM     15  C   UNL     1      44.492   6.702  11.320  0.00  0.00    +0.000 C 
BRANCH  15  16
ATOM     16  C   UNL     1      45.644   7.042  12.227  0.00  0.00    +0.000 A 
ATOM     17  C   UNL     1      45.705   8.286  12.860  0.00  0.00    +0.000 A 
ATOM     18  C   UNL     1      46.860   8.629  13.545  0.00  0.00    +0.000 A 
ATOM     19  N   UNL     1      47.928   7.814  13.674  0.00  0.00    +0.000 NA
ATOM     20  C   UNL     1      47.831   6.595  13.104  0.00  0.00    +0.000 A 
ATOM     21  C   UNL     1      46.720   6.161  12.396  0.00  0.00    +0.000 A 
ENDBRANCH  15  16
ENDBRANCH   7  15
TORSDOF 5
ENDMDL
MODEL 3
REMARK VINA RESULT:    -6.778      1.667      2.290
REMARK INTER + INTRA:          -8.870
REMARK INTER:                  -8.449
REMARK INTRA:                  -0.422
REMARK UNBOUND:                -0.309
REMARK  Name = 
REMARK  5 active torsions:
REMARK  status: ('A' for Active; 'I' for Inactive)
REMARK    1  A    between atoms: N_1  and  C_2
REMARK    2  A    between atoms: C_2  and  C_3
REMARK    3  A    between atoms: C_3  and  C_4
REMARK    4  A    between atoms: N_10  and  C_11
REMARK    5  A    between atoms: C_11  and  C_12
REMARK                            x       y       z     vdW  Elec       q    Type
REMARK                         _______ _______ _______ _____ _____    ______ ____
ROOT
ATOM      1  C   UNL     1      45.653   7.829  12.104  0.00  0.00    +0.000 A 
ATOM      2  C   UNL     1      46.484   7.452  13.158  0.00  0.00    +0.000 A 
ATOM      3  N   UNL     1      46.670   6.185  13.587  0.00  0.00    +0.000 NA
ATOM      4  C   UNL     1      46.019   5.231  12.881  0.00  0.00    +0.000 A 
ATOM      5  C   UNL     1      46.050   3.832  13.058  0.00  0.00    +0.000 A 
ATOM      6  C   UNL     1      45.288   3.272  12.064  0.00  0.00    +0.000 A 
ATOM      7  N   UNL     1      44.776   4.287  11.281  0.00  0.00    +0.000 N 
ATOM      8  C   UNL     1      45.177   5.505  11.796  0.00  0.00    +0.000 A 
ATOM      9  C   UNL     1      44.930   6.836  11.430  0.00  0.00    +0.000 A 
ENDROOT
BRANCH   1  10
ATOM     10  C   UNL     1      45.527   9.270  11.681  0.00  0.00    +0.000 C 
BRANCH  10  11
ATOM     11  C   UNL     1      44.130   9.617  11.164  0.00  0.00    +0.000 C 
BRANCH  11  12
ATOM     12  N   UNL     1      43.409  10.449  12.125  0.00  0.00    +0.000 NA
ATOM     13  H   UNL     1      43.902  11.334  12.240  0.00  0.00    +0.000 HD
ATOM     14  H   UNL     1      43.406  10.003  13.042  0.00  0.00    +0.000 HD
ENDBRANCH  11  12
ENDBRANCH  10  11
ENDBRANCH   1  10
BRANCH   7  15
ATOM     15  C   UNL     1      44.093   4.040  10.009  0.00  0.00    +0.000 C 
BRANCH  15  16
ATOM     16  C   UNL     1      45.012   3.424   8.987  0.00  0.00    +0.000 A 
ATOM     17  C   UNL     1      45.219   2.042   8.961  0.00  0.00    +0.000 A 
ATOM     18  C   UNL     1      46.200   1.532   8.126  0.00  0.00    +0.000 A 
ATOM     19  N   UNL     1      46.950   2.287   7.298  0.00  0.00    +0.000 NA
ATOM     20  C   UNL     1      46.700   3.613   7.295  0.00  0.00    +0.000 A 
ATOM     21  C   UNL     1      45.743   4.219   8.095  0.00  0.00    +0.000 A 
ENDBRANCH  15  16
ENDBRANCH   7  15
TORSDOF 5
ENDMDL
MODEL 4
REMARK VINA RESULT:    -6.529      1.761      2.647
REMARK INTER + INTRA:          -8.556
REMARK INTER:                  -8.165
REMARK INTRA:                  -0.391
REMARK UNBOUND:                -0.309
REMARK  Name = 
REMARK  5 active torsions:
REMARK  status: ('A' for Active; 'I' for Inactive)
REMARK    1  A    between atoms: N_1  and  C_2
REMARK    2  A    between atoms: C_2  and  C_3
REMARK    3  A    between atoms: C_3  and  C_4
REMARK    4  A    between atoms: N_10  and  C_11
REMARK    5  A    between atoms: C_11  and  C_12
REMARK                            x       y       z     vdW  Elec       q    Type
REMARK                         _______ _______ _______ _____ _____    ______ ____
ROOT
ATOM      1  C   UNL     1      46.289   4.154  13.529  0.00  0.00    +0.000 A 
ATOM      2  C   UNL     1      45.639   5.352  13.821  0.00  0.00    +0.000 A 
ATOM      3  N   UNL     1      44.745   5.968  13.018  0.00  0.00    +0.000 NA
ATOM      4  C   UNL     1      44.447   5.314  11.871  0.00  0.00    +0.000 A 
ATOM      5  C   UNL     1      43.529   5.680  10.864  0.00  0.00    +0.000 A 
ATOM      6  C   UNL     1      43.518   4.676   9.930  0.00  0.00    +0.000 A 
ATOM      7  N   UNL     1      44.413   3.701  10.325  0.00  0.00    +0.000 N 
ATOM      8  C   UNL     1      45.030   4.099  11.495  0.00  0.00    +0.000 A 
ATOM      9  C   UNL     1      46.023   3.527  12.304  0.00  0.00    +0.000 A 
ENDROOT
BRANCH   1  10
ATOM     10  C   UNL     1      47.256   3.529  14.500  0.00  0.00    +0.000 C 
BRANCH  10  11
ATOM     11  C   UNL     1      47.250   4.214  15.868  0.00  0.00    +0.000 C 
BRANCH  11  12
ATOM     12  N   UNL     1      46.814   3.288  16.913  0.00  0.00    +0.000 NA
ATOM     13  H   UNL     1      47.532   2.578  17.052  0.00  0.00    +0.000 HD
ATOM     14  H   UNL     1      45.975   2.793  16.616  0.00  0.00    +0.000 HD
ENDBRANCH  11  12
ENDBRANCH  10  11
ENDBRANCH   1  10
BRANCH   7  15
ATOM     15  C   UNL     1      44.500   2.393   9.672  0.00  0.00    +0.000 C 
BRANCH  15  16
ATOM     16  C   UNL     1      45.572   2.361   8.614  0.00  0.00    +0.000 A 
ATOM     17  C   UNL     1      45.881   3.512   7.884  0.00  0.00    +0.000 A 
ATOM     18  C   UNL     1      46.744   3.403   6.806  0.00  0.00    +0.000 A 
ATOM     19  N   UNL     1      47.343   2.253   6.434  0.00  0.00    +0.000 NA
ATOM     20  C   UNL     1      47.077   1.163   7.184  0.00  0.00    +0.000 A 
ATOM     21  C   UNL     1      46.225   1.169   8.279  0.00  0.00    +0.000 A 
ENDBRANCH  15  16
ENDBRANCH   7  15
TORSDOF 5
ENDMDL
MODEL 5
REMARK VINA RESULT:    -6.426      2.123      3.838
REMARK INTER + INTRA:          -8.426
REMARK INTER:                  -8.036
REMARK INTRA:                  -0.390
REMARK UNBOUND:                -0.309
REMARK  Name = 
REMARK  5 active torsions:
REMARK  status: ('A' for Active; 'I' for Inactive)
REMARK    1  A    between atoms: N_1  and  C_2
REMARK    2  A    between atoms: C_2  and  C_3
REMARK    3  A    between atoms: C_3  and  C_4
REMARK    4  A    between atoms: N_10  and  C_11
REMARK    5  A    between atoms: C_11  and  C_12
REMARK                            x       y       z     vdW  Elec       q    Type
REMARK                         _______ _______ _______ _____ _____    ______ ____
ROOT
ATOM      1  C   UNL     1      47.171   4.569  14.535  0.00  0.00    +0.000 A 
ATOM      2  C   UNL     1      47.668   5.853  14.752  0.00  0.00    +0.000 A 
ATOM      3  N   UNL     1      47.447   6.919  13.953  0.00  0.00    +0.000 NA
ATOM      4  C   UNL     1      46.634   6.692  12.895  0.00  0.00    +0.000 A 
ATOM      5  C   UNL     1      46.187   7.607  11.918  0.00  0.00    +0.000 A 
ATOM      6  C   UNL     1      45.326   6.937  11.086  0.00  0.00    +0.000 A 
ATOM      7  N   UNL     1      45.235   5.628  11.515  0.00  0.00    +0.000 N 
ATOM      8  C   UNL     1      46.070   5.445  12.600  0.00  0.00    +0.000 A 
ATOM      9  C   UNL     1      46.391   4.335  13.395  0.00  0.00    +0.000 A 
ENDROOT
BRANCH   1  10
ATOM     10  C   UNL     1      47.453   3.445  15.498  0.00  0.00    +0.000 C 
BRANCH  10  11
ATOM     11  C   UNL     1      47.283   3.860  16.961  0.00  0.00    +0.000 C 
BRANCH  11  12
ATOM     12  N   UNL     1      46.612   2.810  17.726  0.00  0.00    +0.000 NA
ATOM     13  H   UNL     1      46.925   2.849  18.695  0.00  0.00    +0.000 HD
ATOM     14  H   UNL     1      46.882   1.892  17.375  0.00  0.00    +0.000 HD
ENDBRANCH  11  12
ENDBRANCH  10  11
ENDBRANCH   1  10
BRANCH   7  15
ATOM     15  C   UNL     1      44.244   4.687  10.985  0.00  0.00    +0.000 C 
BRANCH  15  16
ATOM     16  C   UNL     1      44.785   3.894   9.824  0.00  0.00    +0.000 A 
ATOM     17  C   UNL     1      44.700   2.499   9.818  0.00  0.00    +0.000 A 
ATOM     18  C   UNL     1      45.360   1.797   8.822  0.00  0.00    +0.000 A 
ATOM     19  N   UNL     1      46.057   2.381   7.826  0.00  0.00    +0.000 NA
ATOM     20  C   UNL     1      46.083   3.730   7.815  0.00  0.00    +0.000 A 
ATOM     21  C   UNL     1      45.458   4.520   8.768  0.00  0.00    +0.000 A 
ENDBRANCH  15  16
ENDBRANCH   7  15
TORSDOF 5
ENDMDL
MODEL 6
REMARK VINA RESULT:    -6.110      1.526      6.101
REMARK INTER + INTRA:          -8.027
REMARK INTER:                  -7.447
REMARK INTRA:                  -0.580
REMARK UNBOUND:                -0.309
REMARK  Name = 
REMARK  5 active torsions:
REMARK  status: ('A' for Active; 'I' for Inactive)
REMARK    1  A    between atoms: N_1  and  C_2
REMARK    2  A    between atoms: C_2  and  C_3
REMARK    3  A    between atoms: C_3  and  C_4
REMARK    4  A    between atoms: N_10  and  C_11
REMARK    5  A    between atoms: C_11  and  C_12
REMARK                            x       y       z     vdW  Elec       q    Type
REMARK                         _______ _______ _______ _____ _____    ______ ____
ROOT
ATOM      1  C   UNL     1      44.776   3.687   9.054  0.00  0.00    +0.000 A 
ATOM      2  C   UNL     1      44.182   2.713   9.856  0.00  0.00    +0.000 A 
ATOM      3  N   UNL     1      44.008   2.805  11.192  0.00  0.00    +0.000 NA
ATOM      4  C   UNL     1      44.410   3.970  11.751  0.00  0.00    +0.000 A 
ATOM      5  C   UNL     1      44.320   4.375  13.099  0.00  0.00    +0.000 A 
ATOM      6  C   UNL     1      44.793   5.661  13.178  0.00  0.00    +0.000 A 
ATOM      7  N   UNL     1      45.184   6.060  11.915  0.00  0.00    +0.000 N 
ATOM      8  C   UNL     1      45.000   5.016  11.031  0.00  0.00    +0.000 A 
ATOM      9  C   UNL     1      45.252   4.856   9.660  0.00  0.00    +0.000 A 
ENDROOT
BRANCH   1  10
ATOM     10  C   UNL     1      44.906   3.504   7.564  0.00  0.00    +0.000 C 
BRANCH  10  11
ATOM     11  C   UNL     1      46.287   2.997   7.146  0.00  0.00    +0.000 C 
BRANCH  11  12
ATOM     12  N   UNL     1      46.973   3.981   6.310  0.00  0.00    +0.000 NA
ATOM     13  H   UNL     1      47.880   4.197   6.721  0.00  0.00    +0.000 HD
ATOM     14  H   UNL     1      46.450   4.855   6.296  0.00  0.00    +0.000 HD
ENDBRANCH  11  12
ENDBRANCH  10  11
ENDBRANCH   1  10
BRANCH   7  15
ATOM     15  C   UNL     1      45.540   7.446  11.597  0.00  0.00    +0.000 C 
BRANCH  15  16
ATOM     16  C   UNL     1      46.853   7.846  12.217  0.00  0.00    +0.000 A 
ATOM     17  C   UNL     1      48.019   7.131  11.930  0.00  0.00    +0.000 A 
ATOM     18  C   UNL     1      49.168   7.417  12.649  0.00  0.00    +0.000 A 
ATOM     19  N   UNL     1      49.246   8.379  13.592  0.00  0.00    +0.000 NA
ATOM     20  C   UNL     1      48.126   9.097  13.817  0.00  0.00    +0.000 A 
ATOM     21  C   UNL     1      46.927   8.884  13.153  0.00  0.00    +0.000 A 
ENDBRANCH  15  16
ENDBRANCH   7  15
TORSDOF 5
ENDMDL
MODEL 7
REMARK VINA RESULT:    -5.856      2.899      4.788
REMARK INTER + INTRA:          -7.705
REMARK INTER:                  -7.483
REMARK INTRA:                  -0.222
REMARK UNBOUND:                -0.309
REMARK  Name = 
REMARK  5 active torsions:
REMARK  status: ('A' for Active; 'I' for Inactive)
REMARK    1  A    between atoms: N_1  and  C_2
REMARK    2  A    between atoms: C_2  and  C_3
REMARK    3  A    between atoms: C_3  and  C_4
REMARK    4  A    between atoms: N_10  and  C_11
REMARK    5  A    between atoms: C_11  and  C_12
REMARK                            x       y       z     vdW  Elec       q    Type
REMARK                         _______ _______ _______ _____ _____    ______ ____
ROOT
ATOM      1  C   UNL     1      47.588   4.628  16.010  0.00  0.00    +0.000 A 
ATOM      2  C   UNL     1      48.640   5.543  16.028  0.00  0.00    +0.000 A 
ATOM      3  N   UNL     1      48.945   6.399  15.029  0.00  0.00    +0.000 NA
ATOM      4  C   UNL     1      48.110   6.369  13.964  0.00  0.00    +0.000 A 
ATOM      5  C   UNL     1      48.142   7.164  12.799  0.00  0.00    +0.000 A 
ATOM      6  C   UNL     1      47.056   6.822  12.034  0.00  0.00    +0.000 A 
ATOM      7  N   UNL     1      46.357   5.828  12.688  0.00  0.00    +0.000 N 
ATOM      8  C   UNL     1      47.016   5.502  13.857  0.00  0.00    +0.000 A 
ATOM      9  C   UNL     1      46.778   4.561  14.869  0.00  0.00    +0.000 A 
ENDROOT
BRANCH   1  10
ATOM     10  C   UNL     1      47.311   3.728  17.186  0.00  0.00    +0.000 C 
BRANCH  10  11
ATOM     11  C   UNL     1      48.548   3.486  18.053  0.00  0.00    +0.000 C 
BRANCH  11  12
ATOM     12  N   UNL     1      48.168   3.023  19.387  0.00  0.00    +0.000 NA
ATOM     13  H   UNL     1      48.393   3.746  20.069  0.00  0.00    +0.000 HD
ATOM     14  H   UNL     1      48.719   2.206  19.645  0.00  0.00    +0.000 HD
ENDBRANCH  11  12
ENDBRANCH  10  11
ENDBRANCH   1  10
BRANCH   7  15
ATOM     15  C   UNL     1      45.031   5.377  12.257  0.00  0.00    +0.000 C 
BRANCH  15  16
ATOM     16  C   UNL     1      45.099   4.551  11.000  0.00  0.00    +0.000 A 
ATOM     17  C   UNL     1      45.391   5.151   9.772  0.00  0.00    +0.000 A 
ATOM     18  C   UNL     1      45.273   4.396   8.617  0.00  0.00    +0.000 A 
ATOM     19  N   UNL     1      44.928   3.092   8.603  0.00  0.00    +0.000 NA
ATOM     20  C   UNL     1      44.703   2.513   9.801  0.00  0.00    +0.000 A 
ATOM     21  C   UNL     1      44.792   3.185  11.011  0.00  0.00    +0.000 A 
ENDBRANCH  15  16
ENDBRANCH   7  15
TORSDOF 5
ENDMDL
MODEL 8
REMARK VINA RESULT:    -5.806      1.583      6.170
REMARK INTER + INTRA:          -7.642
REMARK INTER:                  -7.340
REMARK INTRA:                  -0.302
REMARK UNBOUND:                -0.309
REMARK  Name = 
REMARK  5 active torsions:
REMARK  status: ('A' for Active; 'I' for Inactive)
REMARK    1  A    between atoms: N_1  and  C_2
REMARK    2  A    between atoms: C_2  and  C_3
REMARK    3  A    between atoms: C_3  and  C_4
REMARK    4  A    between atoms: N_10  and  C_11
REMARK    5  A    between atoms: C_11  and  C_12
REMARK                            x       y       z     vdW  Elec       q    Type
REMARK                         _______ _______ _______ _____ _____    ______ ____
ROOT
ATOM      1  C   UNL     1      45.250   2.764   9.092  0.00  0.00    +0.000 A 
ATOM      2  C   UNL     1      44.495   3.713   8.404  0.00  0.00    +0.000 A 
ATOM      3  N   UNL     1      43.771   4.697   8.979  0.00  0.00    +0.000 NA
ATOM      4  C   UNL     1      43.850   4.764  10.328  0.00  0.00    +0.000 A 
ATOM      5  C   UNL     1      43.249   5.697  11.199  0.00  0.00    +0.000 A 
ATOM      6  C   UNL     1      43.670   5.407  12.472  0.00  0.00    +0.000 A 
ATOM      7  N   UNL     1      44.508   4.311  12.416  0.00  0.00    +0.000 N 
ATOM      8  C   UNL     1      44.594   3.871  11.109  0.00  0.00    +0.000 A 
ATOM      9  C   UNL     1      45.263   2.804  10.492  0.00  0.00    +0.000 A 
ENDROOT
BRANCH   1  10
ATOM     10  C   UNL     1      46.047   1.715   8.361  0.00  0.00    +0.000 C 
BRANCH  10  11
ATOM     11  C   UNL     1      46.979   2.308   7.302  0.00  0.00    +0.000 C 
BRANCH  11  12
ATOM     12  N   UNL     1      47.921   1.302   6.815  0.00  0.00    +0.000 NA
ATOM     13  H   UNL     1      48.124   0.641   7.564  0.00  0.00    +0.000 HD
ATOM     14  H   UNL     1      48.809   1.740   6.573  0.00  0.00    +0.000 HD
ENDBRANCH  11  12
ENDBRANCH  10  11
ENDBRANCH   1  10
BRANCH   7  15
ATOM     15  C   UNL     1      45.302   3.862  13.561  0.00  0.00    +0.000 C 
BRANCH  15  16
ATOM     16  C   UNL     1      46.526   4.716  13.768  0.00  0.00    +0.000 A 
ATOM     17  C   UNL     1      47.160   4.756  15.012  0.00  0.00    +0.000 A 
ATOM     18  C   UNL     1      48.172   5.681  15.214  0.00  0.00    +0.000 A 
ATOM     19  N   UNL     1      48.615   6.530  14.264  0.00  0.00    +0.000 NA
ATOM     20  C   UNL     1      48.029   6.441  13.052  0.00  0.00    +0.000 A 
ATOM     21  C   UNL     1      47.008   5.551  12.753  0.00  0.00    +0.000 A 
ENDBRANCH  15  16
ENDBRANCH   7  15
TORSDOF 5
ENDMDL
MODEL 9
REMARK VINA RESULT:    -5.700      2.221      6.169
REMARK INTER + INTRA:          -7.508
REMARK INTER:                  -6.954
REMARK INTRA:                  -0.555
REMARK UNBOUND:                -0.309
REMARK  Name = 
REMARK  5 active torsions:
REMARK  status: ('A' for Active; 'I' for Inactive)
REMARK    1  A    between atoms: N_1  and  C_2
REMARK    2  A    between atoms: C_2  and  C_3
REMARK    3  A    between atoms: C_3  and  C_4
REMARK    4  A    between atoms: N_10  and  C_11
REMARK    5  A    between atoms: C_11  and  C_12
REMARK                            x       y       z     vdW  Elec       q    Type
REMARK                         _______ _______ _______ _____ _____    ______ ____
ROOT
ATOM      1  C   UNL     1      44.895   4.385  10.791  0.00  0.00    +0.000 A 
ATOM      2  C   UNL     1      44.847   3.275  11.633  0.00  0.00    +0.000 A 
ATOM      3  N   UNL     1      45.494   3.165  12.813  0.00  0.00    +0.000 NA
ATOM      4  C   UNL     1      46.194   4.259  13.196  0.00  0.00    +0.000 A 
ATOM      5  C   UNL     1      46.929   4.461  14.383  0.00  0.00    +0.000 A 
ATOM      6  C   UNL     1      47.408   5.747  14.360  0.00  0.00    +0.000 A 
ATOM      7  N   UNL     1      46.999   6.344  13.184  0.00  0.00    +0.000 N 
ATOM      8  C   UNL     1      46.290   5.428  12.431  0.00  0.00    +0.000 A 
ATOM      9  C   UNL     1      45.682   5.481  11.168  0.00  0.00    +0.000 A 
ENDROOT
BRANCH   1  10
ATOM     10  C   UNL     1      44.118   4.425   9.500  0.00  0.00    +0.000 C 
BRANCH  10  11
ATOM     11  C   UNL     1      44.826   3.695   8.358  0.00  0.00    +0.000 C 
BRANCH  11  12
ATOM     12  N   UNL     1      45.938   4.491   7.840  0.00  0.00    +0.000 NA
ATOM     13  H   UNL     1      46.224   4.119   6.935  0.00  0.00    +0.000 HD
ATOM     14  H   UNL     1      46.747   4.404   8.453  0.00  0.00    +0.000 HD
ENDBRANCH  11  12
ENDBRANCH  10  11
ENDBRANCH   1  10
BRANCH   7  15
ATOM     15  C   UNL     1      47.154   7.778  12.927  0.00  0.00    +0.000 C 
BRANCH  15  16
ATOM     16  C   UNL     1      48.589   8.150  12.662  0.00  0.00    +0.000 A 
ATOM     17  C   UNL     1      49.229   7.721  11.497  0.00  0.00    +0.000 A 
ATOM     18  C   UNL     1      50.592   7.933  11.370  0.00  0.00    +0.000 A 
ATOM     19  N   UNL     1      51.344   8.568  12.292  0.00  0.00    +0.000 NA
ATOM     20  C   UNL     1      50.701   9.025  13.386  0.00  0.00    +0.000 A 
ATOM     21  C   UNL     1      49.341   8.860  13.607  0.00  0.00    +0.000 A 
ENDBRANCH  15  16
ENDBRANCH   7  15
TORSDOF 5
ENDMDL
