MODEL 1
REMARK VINA RESULT:    -8.420      0.000      0.000
REMARK INTER + INTRA:         -10.934
REMARK INTER:                 -10.388
REMARK INTRA:                  -0.545
REMARK UNBOUND:                -0.545
REMARK  Name = 
REMARK  6 active torsions:
REMARK  status: ('A' for Active; 'I' for Inactive)
REMARK    1  A    between atoms: C_1  and  C_2
REMARK    2  A    between atoms: C_2  and  C_3
REMARK    3  A    between atoms: C_2  and  N_4
REMARK    4  A    between atoms: C_2  and  C_14
REMARK    5  A    between atoms: N_4  and  C_5
REMARK    6  A    between atoms: C_8  and  C_9
REMARK                            x       y       z     vdW  Elec       q    Type
REMARK                         _______ _______ _______ _____ _____    ______ ____
ROOT
ATOM      1  N   UNL     1      43.702   4.674  10.002  0.00  0.00    +0.000 N 
ATOM      2  H   UNL     1      43.423   5.508   9.485  0.00  0.00    +0.000 HD
ENDROOT
BRANCH   1   3
ATOM      3  C   UNL     1      44.618   3.905   9.310  0.00  0.00    +0.000 A 
ATOM      4  C   UNL     1      45.506   4.563   8.442  0.00  0.00    +0.000 A 
ATOM      5  C   UNL     1      46.417   3.851   7.653  0.00  0.00    +0.000 A 
ATOM      6  C   UNL     1      46.484   2.460   7.736  0.00  0.00    +0.000 A 
ATOM      7  C   UNL     1      45.617   1.791   8.600  0.00  0.00    +0.000 A 
ATOM      8  C   UNL     1      44.699   2.514   9.372  0.00  0.00    +0.000 A 
BRANCH   6   9
ATOM      9  C   UNL     1      47.450   1.732   6.878  0.00  0.00    +0.000 C 
ATOM     10  N   UNL     1      48.511   2.442   6.385  0.00  0.00    +0.000 N 
ATOM     11  O   UNL     1      47.297   0.552   6.589  0.00  0.00    +0.000 OA
ATOM     12  H   UNL     1      48.543   3.451   6.391  0.00  0.00    +0.000 HD
ATOM     13  H   UNL     1      49.100   1.958   5.718  0.00  0.00    +0.000 HD
ENDBRANCH   6   9
ENDBRANCH   1   3
BRANCH   1  15
ATOM     14  C   UNL     1      42.321   5.715  11.806  0.00  0.00    +0.000 C 
ATOM     15  C   UNL     1      43.522   4.808  11.459  0.00  0.00    +0.000 C 
ATOM     16  C   UNL     1      43.322   3.411  12.077  0.00  0.00    +0.000 C 
BRANCH  15  17
ATOM     17  C   UNL     1      44.796   5.506  11.990  0.00  0.00    +0.000 A 
ATOM     18  C   UNL     1      45.183   6.798  11.601  0.00  0.00    +0.000 A 
ATOM     19  C   UNL     1      46.356   7.342  12.111  0.00  0.00    +0.000 A 
ATOM     20  N   UNL     1      47.172   6.702  12.971  0.00  0.00    +0.000 NA
ATOM     21  C   UNL     1      46.795   5.463  13.342  0.00  0.00    +0.000 A 
ATOM     22  C   UNL     1      45.643   4.839  12.891  0.00  0.00    +0.000 A 
ENDBRANCH  15  17
ENDBRANCH   1  15
TORSDOF 4
ENDMDL
MODEL 2
REMARK VINA RESULT:    -8.024      0.879      1.762
REMARK INTER + INTRA:         -10.446
REMARK INTER:                 -10.240
REMARK INTRA:                  -0.206
REMARK UNBOUND:                -0.545
REMARK  Name = 
REMARK  6 active torsions:
REMARK  status: ('A' for Active; 'I' for Inactive)
REMARK    1  A    between atoms: C_1  and  C_2
REMARK    2  A    between atoms: C_2  and  C_3
REMARK    3  A    between atoms: C_2  and  N_4
REMARK    4  A    between atoms: C_2  and  C_14
REMARK    5  A    between atoms: N_4  and  C_5
REMARK    6  A    between atoms: C_8  and  C_9
REMARK                            x       y       z     vdW  Elec       q    Type
REMARK                         _______ _______ _______ _____ _____    ______ ____
ROOT
ATOM      1  N   UNL     1      43.771   4.795   9.946  0.00  0.00    +0.000 N 
ATOM      2  H   UNL     1      43.645   5.691   9.475  0.00  0.00    +0.000 HD
ENDROOT
BRANCH   1   3
ATOM      3  C   UNL     1      44.580   3.931   9.232  0.00  0.00    +0.000 A 
ATOM      4  C   UNL     1      44.404   2.551   9.430  0.00  0.00    +0.000 A 
ATOM      5  C   UNL     1      45.228   1.612   8.798  0.00  0.00    +0.000 A 
ATOM      6  C   UNL     1      46.232   2.031   7.926  0.00  0.00    +0.000 A 
ATOM      7  C   UNL     1      46.415   3.398   7.710  0.00  0.00    +0.000 A 
ATOM      8  C   UNL     1      45.595   4.327   8.361  0.00  0.00    +0.000 A 
BRANCH   6   9
ATOM      9  C   UNL     1      47.099   1.014   7.282  0.00  0.00    +0.000 C 
ATOM     10  N   UNL     1      46.836  -0.300   7.558  0.00  0.00    +0.000 N 
ATOM     11  O   UNL     1      48.035   1.328   6.557  0.00  0.00    +0.000 OA
ATOM     12  H   UNL     1      46.248  -0.589   8.327  0.00  0.00    +0.000 HD
ATOM     13  H   UNL     1      47.500  -0.973   7.196  0.00  0.00    +0.000 HD
ENDBRANCH   6   9
ENDBRANCH   1   3
BRANCH   1  15
ATOM     14  C   UNL     1      42.389   5.811  11.763  0.00  0.00    +0.000 C 
ATOM     15  C   UNL     1      43.562   4.873  11.404  0.00  0.00    +0.000 C 
ATOM     16  C   UNL     1      43.293   3.460  11.955  0.00  0.00    +0.000 C 
BRANCH  15  17
ATOM     17  C   UNL     1      44.849   5.496  11.993  0.00  0.00    +0.000 A 
ATOM     18  C   UNL     1      45.735   4.792  12.822  0.00  0.00    +0.000 A 
ATOM     19  C   UNL     1      46.858   5.436  13.326  0.00  0.00    +0.000 A 
ATOM     20  N   UNL     1      47.165   6.723  13.073  0.00  0.00    +0.000 NA
ATOM     21  C   UNL     1      46.311   7.396  12.276  0.00  0.00    +0.000 A 
ATOM     22  C   UNL     1      45.169   6.838  11.724  0.00  0.00    +0.000 A 
ENDBRANCH  15  17
ENDBRANCH   1  15
TORSDOF 4
ENDMDL
MODEL 3
REMARK VINA RESULT:    -7.768      1.152      1.934
REMARK INTER + INTRA:         -10.130
REMARK INTER:                  -9.488
REMARK INTRA:                  -0.643
REMARK UNBOUND:                -0.545
REMARK  Name = 
REMARK  6 active torsions:
REMARK  status: ('A' for Active; 'I' for Inactive)
REMARK    1  A    between atoms: C_1  and  C_2
REMARK    2  A    between atoms: C_2  and  C_3
REMARK    3  A    between atoms: C_2  and  N_4
REMARK    4  A    between atoms: C_2  and  C_14
REMARK    5  A    between atoms: N_4  and  C_5
REMARK    6  A    between atoms: C_8  and  C_9
REMARK                            x       y       z     vdW  Elec       q    Type
REMARK                         _______ _______ _______ _____ _____    ______ ____
ROOT
ATOM      1  N   UNL     1      44.097   3.769  10.659  0.00  0.00    +0.000 N 
ATOM      2  H   UNL     1      43.194   4.162  10.393  0.00  0.00    +0.000 HD
ENDROOT
BRANCH   1   3
ATOM      3  C   UNL     1      44.893   3.484   9.565  0.00  0.00    +0.000 A 
ATOM      4  C   UNL     1      45.146   2.134   9.270  0.00  0.00    +0.000 A 
ATOM      5  C   UNL     1      45.996   1.763   8.222  0.00  0.00    +0.000 A 
ATOM      6  C   UNL     1      46.592   2.737   7.421  0.00  0.00    +0.000 A 
ATOM      7  C   UNL     1      46.344   4.083   7.693  0.00  0.00    +0.000 A 
ATOM      8  C   UNL     1      45.504   4.441   8.754  0.00  0.00    +0.000 A 
BRANCH   6   9
ATOM      9  C   UNL     1      47.500   2.314   6.326  0.00  0.00    +0.000 C 
ATOM     10  N   UNL     1      47.454   3.030   5.161  0.00  0.00    +0.000 N 
ATOM     11  O   UNL     1      48.241   1.346   6.439  0.00  0.00    +0.000 OA
ATOM     12  H   UNL     1      46.700   3.665   4.940  0.00  0.00    +0.000 HD
ATOM     13  H   UNL     1      48.001   2.664   4.392  0.00  0.00    +0.000 HD
ENDBRANCH   6   9
ENDBRANCH   1   3
BRANCH   1  15
ATOM     14  C   UNL     1      43.305   4.137  13.000  0.00  0.00    +0.000 C 
ATOM     15  C   UNL     1      44.506   4.131  12.029  0.00  0.00    +0.000 C 
ATOM     16  C   UNL     1      45.575   3.136  12.520  0.00  0.00    +0.000 C 
BRANCH  15  17
ATOM     17  C   UNL     1      45.044   5.579  11.952  0.00  0.00    +0.000 A 
ATOM     18  C   UNL     1      46.357   5.930  12.300  0.00  0.00    +0.000 A 
ATOM     19  C   UNL     1      46.752   7.260  12.222  0.00  0.00    +0.000 A 
ATOM     20  N   UNL     1      45.944   8.264  11.829  0.00  0.00    +0.000 NA
ATOM     21  C   UNL     1      44.684   7.921  11.494  0.00  0.00    +0.000 A 
ATOM     22  C   UNL     1      44.201   6.623  11.537  0.00  0.00    +0.000 A 
ENDBRANCH  15  17
ENDBRANCH   1  15
TORSDOF 4
ENDMDL
MODEL 4
REMARK VINA RESULT:    -6.173      3.304      6.693
REMARK INTER + INTRA:          -8.162
REMARK INTER:                  -7.600
REMARK INTRA:                  -0.561
REMARK UNBOUND:                -0.545
REMARK  Name = 
REMARK  6 active torsions:
REMARK  status: ('A' for Active; 'I' for Inactive)
REMARK    1  A    between atoms: C_1  and  C_2
REMARK    2  A    between atoms: C_2  and  C_3
REMARK    3  A    between atoms: C_2  and  N_4
REMARK    4  A    between atoms: C_2  and  C_14
REMARK    5  A    between atoms: N_4  and  C_5
REMARK    6  A    between atoms: C_8  and  C_9
REMARK                            x       y       z     vdW  Elec       q    Type
REMARK                         _______ _______ _______ _____ _____    ______ ____
ROOT
ATOM      1  N   UNL     1      45.134   6.153  10.637  0.00  0.00    +0.000 N 
ATOM      2  H   UNL     1      44.657   6.654   9.886  0.00  0.00    +0.000 HD
ENDROOT
BRANCH   1   3
ATOM      3  C   UNL     1      45.769   7.006  11.520  0.00  0.00    +0.000 A 
ATOM      4  C   UNL     1      47.140   6.805  11.756  0.00  0.00    +0.000 A 
ATOM      5  C   UNL     1      47.842   7.579  12.687  0.00  0.00    +0.000 A 
ATOM      6  C   UNL     1      47.194   8.599  13.384  0.00  0.00    +0.000 A 
ATOM      7  C   UNL     1      45.835   8.820  13.155  0.00  0.00    +0.000 A 
ATOM      8  C   UNL     1      45.141   8.026  12.233  0.00  0.00    +0.000 A 
BRANCH   6   9
ATOM      9  C   UNL     1      47.960   9.395  14.375  0.00  0.00    +0.000 C 
ATOM     10  N   UNL     1      47.767   9.103  15.698  0.00  0.00    +0.000 N 
ATOM     11  O   UNL     1      48.712  10.299  14.035  0.00  0.00    +0.000 OA
ATOM     12  H   UNL     1      46.990   8.549  16.027  0.00  0.00    +0.000 HD
ATOM     13  H   UNL     1      48.216   9.724  16.360  0.00  0.00    +0.000 HD
ENDBRANCH   6   9
ENDBRANCH   1   3
BRANCH   1  15
ATOM     14  C   UNL     1      45.094   4.215  12.212  0.00  0.00    +0.000 C 
ATOM     15  C   UNL     1      44.571   4.814  10.889  0.00  0.00    +0.000 C 
ATOM     16  C   UNL     1      43.034   4.907  10.924  0.00  0.00    +0.000 C 
BRANCH  15  17
ATOM     17  C   UNL     1      45.077   3.909   9.741  0.00  0.00    +0.000 A 
ATOM     18  C   UNL     1      44.997   2.509   9.773  0.00  0.00    +0.000 A 
ATOM     19  C   UNL     1      45.496   1.771   8.707  0.00  0.00    +0.000 A 
ATOM     20  N   UNL     1      46.070   2.316   7.617  0.00  0.00    +0.000 NA
ATOM     21  C   UNL     1      46.144   3.661   7.589  0.00  0.00    +0.000 A 
ATOM     22  C   UNL     1      45.671   4.481   8.603  0.00  0.00    +0.000 A 
ENDBRANCH  15  17
ENDBRANCH   1  15
TORSDOF 4
ENDMDL
MODEL 5
REMARK VINA RESULT:    -6.035      3.253      6.514
REMARK INTER + INTRA:          -7.991
REMARK INTER:                  -7.382
REMARK INTRA:                  -0.609
REMARK UNBOUND:                -0.545
REMARK  Name = 
REMARK  6 active torsions:
REMARK  status: ('A' for Active; 'I' for Inactive)
REMARK    1  A    between atoms: C_1  and  C_2
REMARK    2  A    between atoms: C_2  and  C_3
REMARK    3  A    between atoms: C_2  and  N_4
REMARK    4  A    between atoms: C_2  and  C_14
REMARK    5  A    between atoms: N_4  and  C_5
REMARK    6  A    between atoms: C_8  and  C_9
REMARK                            x       y       z     vdW  Elec       q    Type
REMARK                         _______ _______ _______ _____ _____    ______ ____
ROOT
ATOM      1  N   UNL     1      44.874   6.113  10.832  0.00  0.00    +0.000 N 
ATOM      2  H   UNL     1      44.140   6.652  10.371  0.00  0.00    +0.000 HD
ENDROOT
BRANCH   1   3
ATOM      3  C   UNL     1      45.730   6.909  11.569  0.00  0.00    +0.000 A 
ATOM      4  C   UNL     1      45.166   7.916  12.370  0.00  0.00    +0.000 A 
ATOM      5  C   UNL     1      45.966   8.808  13.093  0.00  0.00    +0.000 A 
ATOM      6  C   UNL     1      47.356   8.696  13.056  0.00  0.00    +0.000 A 
ATOM      7  C   UNL     1      47.934   7.695  12.273  0.00  0.00    +0.000 A 
ATOM      8  C   UNL     1      47.122   6.820  11.542  0.00  0.00    +0.000 A 
BRANCH   6   9
ATOM      9  C   UNL     1      48.179   9.664  13.821  0.00  0.00    +0.000 C 
ATOM     10  N   UNL     1      48.176   9.551  15.185  0.00  0.00    +0.000 N 
ATOM     11  O   UNL     1      48.814  10.553  13.266  0.00  0.00    +0.000 OA
ATOM     12  H   UNL     1      47.489   9.006  15.685  0.00  0.00    +0.000 HD
ATOM     13  H   UNL     1      48.656  10.283  15.693  0.00  0.00    +0.000 HD
ENDBRANCH   6   9
ENDBRANCH   1   3
BRANCH   1  15
ATOM     14  C   UNL     1      45.179   4.126  12.315  0.00  0.00    +0.000 C 
ATOM     15  C   UNL     1      44.507   4.702  11.050  0.00  0.00    +0.000 C 
ATOM     16  C   UNL     1      42.976   4.587  11.169  0.00  0.00    +0.000 C 
BRANCH  15  17
ATOM     17  C   UNL     1      45.060   3.918   9.837  0.00  0.00    +0.000 A 
ATOM     18  C   UNL     1      45.623   4.540   8.712  0.00  0.00    +0.000 A 
ATOM     19  C   UNL     1      46.077   3.760   7.655  0.00  0.00    +0.000 A 
ATOM     20  N   UNL     1      46.011   2.415   7.630  0.00  0.00    +0.000 NA
ATOM     21  C   UNL     1      45.471   1.822   8.713  0.00  0.00    +0.000 A 
ATOM     22  C   UNL     1      44.995   2.515   9.815  0.00  0.00    +0.000 A 
ENDBRANCH  15  17
ENDBRANCH   1  15
TORSDOF 4
ENDMDL
MODEL 6
REMARK VINA RESULT:    -5.699      3.096      5.341
REMARK INTER + INTRA:          -7.577
REMARK INTER:                  -7.112
REMARK INTRA:                  -0.466
REMARK UNBOUND:                -0.545
REMARK  Name = 
REMARK  6 active torsions:
REMARK  status: ('A' for Active; 'I' for Inactive)
REMARK    1  A    between atoms: C_1  and  C_2
REMARK    2  A    between atoms: C_2  and  C_3
REMARK    3  A    between atoms: C_2  and  N_4
REMARK    4  A    between atoms: C_2  and  C_14
REMARK    5  A    between atoms: N_4  and  C_5
REMARK    6  A    between atoms: C_8  and  C_9
REMARK                            x       y       z     vdW  Elec       q    Type
REMARK                         _______ _______ _______ _____ _____    ______ ____
ROOT
ATOM      1  N   UNL     1      46.921   6.744  13.999  0.00  0.00    +0.000 N 
ATOM      2  H   UNL     1      46.241   7.286  14.533  0.00  0.00    +0.000 HD
ENDROOT
BRANCH   1   3
ATOM      3  C   UNL     1      46.325   5.932  13.053  0.00  0.00    +0.000 A 
ATOM      4  C   UNL     1      45.970   6.508  11.822  0.00  0.00    +0.000 A 
ATOM      5  C   UNL     1      45.300   5.772  10.837  0.00  0.00    +0.000 A 
ATOM      6  C   UNL     1      44.996   4.427  11.049  0.00  0.00    +0.000 A 
ATOM      7  C   UNL     1      45.351   3.836  12.262  0.00  0.00    +0.000 A 
ATOM      8  C   UNL     1      46.005   4.588  13.245  0.00  0.00    +0.000 A 
BRANCH   6   9
ATOM      9  C   UNL     1      44.274   3.676   9.993  0.00  0.00    +0.000 C 
ATOM     10  N   UNL     1      44.077   4.309   8.796  0.00  0.00    +0.000 N 
ATOM     11  O   UNL     1      43.839   2.548  10.185  0.00  0.00    +0.000 OA
ATOM     12  H   UNL     1      44.195   5.305   8.679  0.00  0.00    +0.000 HD
ATOM     13  H   UNL     1      43.493   3.824   8.127  0.00  0.00    +0.000 HD
ENDBRANCH   6   9
ENDBRANCH   1   3
BRANCH   1  15
ATOM     14  C   UNL     1      49.049   6.964  12.708  0.00  0.00    +0.000 C 
ATOM     15  C   UNL     1      48.262   7.358  13.977  0.00  0.00    +0.000 C 
ATOM     16  C   UNL     1      48.121   8.889  14.056  0.00  0.00    +0.000 C 
BRANCH  15  17
ATOM     17  C   UNL     1      49.024   6.776  15.191  0.00  0.00    +0.000 A 
ATOM     18  C   UNL     1      50.349   7.117  15.502  0.00  0.00    +0.000 A 
ATOM     19  C   UNL     1      50.965   6.530  16.600  0.00  0.00    +0.000 A 
ATOM     20  N   UNL     1      50.369   5.632  17.408  0.00  0.00    +0.000 NA
ATOM     21  C   UNL     1      49.096   5.309  17.107  0.00  0.00    +0.000 A 
ATOM     22  C   UNL     1      48.398   5.844  16.035  0.00  0.00    +0.000 A 
ENDBRANCH  15  17
ENDBRANCH   1  15
TORSDOF 4
ENDMDL
