MODEL 1
REMARK VINA RESULT:    -8.115      0.000      0.000
REMARK INTER + INTRA:         -12.364
REMARK INTER:                 -11.435
REMARK INTRA:                  -0.929
REMARK UNBOUND:                -0.929
REMARK  Name = 
REMARK  8 active torsions:
REMARK  status: ('A' for Active; 'I' for Inactive)
REMARK    1  A    between atoms: C_1  and  C_2
REMARK    2  A    between atoms: C_4  and  C_5
REMARK    3  A    between atoms: C_10  and  C_11
REMARK    4  A    between atoms: C_11  and  O_12
REMARK    5  A    between atoms: O_12  and  C_13
REMARK    6  A    between atoms: C_16  and  C_17
REMARK    7  A    between atoms: C_19  and  C_20
REMARK    8  A    between atoms: C_24  and  C_25
REMARK                            x       y       z     vdW  Elec       q    Type
REMARK                         _______ _______ _______ _____ _____    ______ ____
ROOT
ATOM      1  C   UNL     1      45.019   4.950  12.162  0.00  0.00    +0.000 A 
ATOM      2  C   UNL     1      45.619   4.118  13.094  0.00  0.00    +0.000 A 
ATOM      3  C   UNL     1      46.725   4.572  13.814  0.00  0.00    +0.000 A 
ATOM      4  C   UNL     1      47.241   5.865  13.604  0.00  0.00    +0.000 A 
ATOM      5  C   UNL     1      46.684   6.708  12.614  0.00  0.00    +0.000 A 
ATOM      6  C   UNL     1      45.581   6.202  11.897  0.00  0.00    +0.000 A 
ENDROOT
BRANCH   5   7
ATOM      7  C   UNL     1      47.158   8.081  12.289  0.00  0.00    +0.000 A 
ATOM      8  C   UNL     1      46.320   9.200  12.383  0.00  0.00    +0.000 A 
ATOM      9  N   UNL     1      46.672  10.476  12.097  0.00  0.00    +0.000 NA
ATOM     10  C   UNL     1      47.951  10.681  11.723  0.00  0.00    +0.000 A 
ATOM     11  C   UNL     1      48.881   9.669  11.594  0.00  0.00    +0.000 A 
ATOM     12  C   UNL     1      48.458   8.355  11.843  0.00  0.00    +0.000 A 
BRANCH  11  13
ATOM     13  C   UNL     1      50.299   9.962  11.221  0.00  0.00    +0.000 C 
ATOM     14  F   UNL     1      51.021  10.521  12.231  0.00  0.00    +0.000 F 
ATOM     15  F   UNL     1      50.980   8.844  10.850  0.00  0.00    +0.000 F 
ATOM     16  F   UNL     1      50.392  10.824  10.172  0.00  0.00    +0.000 F 
ENDBRANCH  11  13
ENDBRANCH   5   7
BRANCH   4  17
ATOM     17  C   UNL     1      48.337   6.265  14.445  0.00  0.00    +0.000 C 
ATOM     18  N   UNL     1      49.214   6.619  15.114  0.00  0.00    +0.000 NA
ENDBRANCH   4  17
BRANCH   1  19
ATOM     19  O   UNL     1      43.892   4.478  11.541  0.00  0.00    +0.000 OA
BRANCH  19  20
ATOM     20  C   UNL     1      43.791   4.823  10.155  0.00  0.00    +0.000 C 
BRANCH  20  27
ATOM     21  C   UNL     1      43.915   1.803  10.309  0.00  0.00    +0.000 C 
ATOM     22  C   UNL     1      44.804   2.601   9.392  0.00  0.00    +0.000 A 
ATOM     23  C   UNL     1      45.711   1.912   8.570  0.00  0.00    +0.000 A 
ATOM     24  C   UNL     1      46.554   2.590   7.679  0.00  0.00    +0.000 A 
ATOM     25  C   UNL     1      46.485   3.981   7.602  0.00  0.00    +0.000 A 
ATOM     26  C   UNL     1      45.592   4.680   8.418  0.00  0.00    +0.000 A 
ATOM     27  C   UNL     1      44.755   4.007   9.326  0.00  0.00    +0.000 A 
BRANCH  24  28
ATOM     28  C   UNL     1      47.482   1.768   6.853  0.00  0.00    +0.000 C 
ATOM     29  N   UNL     1      48.624   2.344   6.374  0.00  0.00    +0.000 N 
ATOM     30  O   UNL     1      47.245   0.591   6.600  0.00  0.00    +0.000 OA
ATOM     31  H   UNL     1      48.916   3.292   6.540  0.00  0.00    +0.000 HD
ATOM     32  H   UNL     1      49.233   1.748   5.828  0.00  0.00    +0.000 HD
ENDBRANCH  24  28
ENDBRANCH  20  27
ENDBRANCH  19  20
ENDBRANCH   1  19
TORSDOF 7
ENDMDL
MODEL 2
REMARK VINA RESULT:    -8.015      3.450      5.042
REMARK INTER + INTRA:         -12.224
REMARK INTER:                 -11.408
REMARK INTRA:                  -0.816
REMARK UNBOUND:                -0.929
REMARK  Name = 
REMARK  8 active torsions:
REMARK  status: ('A' for Active; 'I' for Inactive)
REMARK    1  A    between atoms: C_1  and  C_2
REMARK    2  A    between atoms: C_4  and  C_5
REMARK    3  A    between atoms: C_10  and  C_11
REMARK    4  A    between atoms: C_11  and  O_12
REMARK    5  A    between atoms: O_12  and  C_13
REMARK    6  A    between atoms: C_16  and  C_17
REMARK    7  A    between atoms: C_19  and  C_20
REMARK    8  A    between atoms: C_24  and  C_25
REMARK                            x       y       z     vdW  Elec       q    Type
REMARK                         _______ _______ _______ _____ _____    ______ ____
ROOT
ATOM      1  C   UNL     1      45.099   5.206  12.224  0.00  0.00    +0.000 A 
ATOM      2  C   UNL     1      45.621   6.386  11.715  0.00  0.00    +0.000 A 
ATOM      3  C   UNL     1      46.758   6.947  12.300  0.00  0.00    +0.000 A 
ATOM      4  C   UNL     1      47.381   6.331  13.403  0.00  0.00    +0.000 A 
ATOM      5  C   UNL     1      46.829   5.161  13.977  0.00  0.00    +0.000 A 
ATOM      6  C   UNL     1      45.670   4.640  13.366  0.00  0.00    +0.000 A 
ENDROOT
BRANCH   5   7
ATOM      7  C   UNL     1      47.386   4.438  15.153  0.00  0.00    +0.000 A 
ATOM      8  C   UNL     1      47.901   3.139  15.052  0.00  0.00    +0.000 A 
ATOM      9  N   UNL     1      48.415   2.412  16.073  0.00  0.00    +0.000 NA
ATOM     10  C   UNL     1      48.459   3.012  17.279  0.00  0.00    +0.000 A 
ATOM     11  C   UNL     1      47.989   4.288  17.517  0.00  0.00    +0.000 A 
ATOM     12  C   UNL     1      47.412   4.982  16.444  0.00  0.00    +0.000 A 
BRANCH  11  13
ATOM     13  C   UNL     1      48.107   4.920  18.866  0.00  0.00    +0.000 C 
ATOM     14  F   UNL     1      48.447   4.040  19.849  0.00  0.00    +0.000 F 
ATOM     15  F   UNL     1      49.049   5.900  18.900  0.00  0.00    +0.000 F 
ATOM     16  F   UNL     1      46.945   5.502  19.270  0.00  0.00    +0.000 F 
ENDBRANCH  11  13
ENDBRANCH   5   7
BRANCH   4  17
ATOM     17  C   UNL     1      48.585   6.947  13.889  0.00  0.00    +0.000 C 
ATOM     18  N   UNL     1      49.572   7.415  14.273  0.00  0.00    +0.000 NA
ENDBRANCH   4  17
BRANCH   1  19
ATOM     19  O   UNL     1      44.029   4.664  11.561  0.00  0.00    +0.000 OA
BRANCH  19  20
ATOM     20  C   UNL     1      43.958   5.007  10.172  0.00  0.00    +0.000 C 
BRANCH  20  27
ATOM     21  C   UNL     1      43.881   1.987  10.363  0.00  0.00    +0.000 C 
ATOM     22  C   UNL     1      44.819   2.714   9.435  0.00  0.00    +0.000 A 
ATOM     23  C   UNL     1      45.676   1.956   8.619  0.00  0.00    +0.000 A 
ATOM     24  C   UNL     1      46.559   2.565   7.718  0.00  0.00    +0.000 A 
ATOM     25  C   UNL     1      46.582   3.957   7.624  0.00  0.00    +0.000 A 
ATOM     26  C   UNL     1      45.741   4.724   8.434  0.00  0.00    +0.000 A 
ATOM     27  C   UNL     1      44.863   4.119   9.352  0.00  0.00    +0.000 A 
BRANCH  24  28
ATOM     28  C   UNL     1      47.428   1.673   6.901  0.00  0.00    +0.000 C 
ATOM     29  N   UNL     1      48.467   2.223   6.204  0.00  0.00    +0.000 N 
ATOM     30  O   UNL     1      47.233   0.464   6.844  0.00  0.00    +0.000 OA
ATOM     31  H   UNL     1      48.720   3.197   6.200  0.00  0.00    +0.000 HD
ATOM     32  H   UNL     1      49.040   1.581   5.672  0.00  0.00    +0.000 HD
ENDBRANCH  24  28
ENDBRANCH  20  27
ENDBRANCH  19  20
ENDBRANCH   1  19
TORSDOF 7
ENDMDL
MODEL 3
REMARK VINA RESULT:    -7.918      4.980      8.147
REMARK INTER + INTRA:         -12.088
REMARK INTER:                 -10.965
REMARK INTRA:                  -1.123
REMARK UNBOUND:                -0.929
REMARK  Name = 
REMARK  8 active torsions:
REMARK  status: ('A' for Active; 'I' for Inactive)
REMARK    1  A    between atoms: C_1  and  C_2
REMARK    2  A    between atoms: C_4  and  C_5
REMARK    3  A    between atoms: C_10  and  C_11
REMARK    4  A    between atoms: C_11  and  O_12
REMARK    5  A    between atoms: O_12  and  C_13
REMARK    6  A    between atoms: C_16  and  C_17
REMARK    7  A    between atoms: C_19  and  C_20
REMARK    8  A    between atoms: C_24  and  C_25
REMARK                            x       y       z     vdW  Elec       q    Type
REMARK                         _______ _______ _______ _____ _____    ______ ____
ROOT
ATOM      1  C   UNL     1      48.329   6.868  14.430  0.00  0.00    +0.000 A 
ATOM      2  C   UNL     1      48.179   8.212  14.122  0.00  0.00    +0.000 A 
ATOM      3  C   UNL     1      47.146   8.614  13.274  0.00  0.00    +0.000 A 
ATOM      4  C   UNL     1      46.254   7.672  12.725  0.00  0.00    +0.000 A 
ATOM      5  C   UNL     1      46.427   6.290  12.975  0.00  0.00    +0.000 A 
ATOM      6  C   UNL     1      47.495   5.927  13.821  0.00  0.00    +0.000 A 
ENDROOT
BRANCH   5   7
ATOM      7  C   UNL     1      45.564   5.206  12.433  0.00  0.00    +0.000 A 
ATOM      8  C   UNL     1      44.672   4.490  13.242  0.00  0.00    +0.000 A 
ATOM      9  N   UNL     1      43.862   3.486  12.828  0.00  0.00    +0.000 NA
ATOM     10  C   UNL     1      43.902   3.180  11.516  0.00  0.00    +0.000 A 
ATOM     11  C   UNL     1      44.732   3.808  10.609  0.00  0.00    +0.000 A 
ATOM     12  C   UNL     1      45.596   4.801  11.092  0.00  0.00    +0.000 A 
BRANCH  11  13
ATOM     13  C   UNL     1      44.699   3.457   9.156  0.00  0.00    +0.000 C 
ATOM     14  F   UNL     1      45.932   3.415   8.581  0.00  0.00    +0.000 F 
ATOM     15  F   UNL     1      44.139   2.239   8.928  0.00  0.00    +0.000 F 
ATOM     16  F   UNL     1      43.975   4.348   8.424  0.00  0.00    +0.000 F 
ENDBRANCH  11  13
ENDBRANCH   5   7
BRANCH   4  17
ATOM     17  C   UNL     1      45.182   8.193  11.922  0.00  0.00    +0.000 C 
ATOM     18  N   UNL     1      44.340   8.630  11.257  0.00  0.00    +0.000 NA
ENDBRANCH   4  17
BRANCH   1  19
ATOM     19  O   UNL     1      49.313   6.542  15.326  0.00  0.00    +0.000 OA
BRANCH  19  20
ATOM     20  C   UNL     1      48.832   5.985  16.555  0.00  0.00    +0.000 C 
BRANCH  20  27
ATOM     21  C   UNL     1      47.759   3.155  16.541  0.00  0.00    +0.000 C 
ATOM     22  C   UNL     1      49.170   3.481  16.954  0.00  0.00    +0.000 A 
ATOM     23  C   UNL     1      50.018   2.426  17.331  0.00  0.00    +0.000 A 
ATOM     24  C   UNL     1      51.349   2.654  17.707  0.00  0.00    +0.000 A 
ATOM     25  C   UNL     1      51.843   3.958  17.700  0.00  0.00    +0.000 A 
ATOM     26  C   UNL     1      51.009   5.018  17.334  0.00  0.00    +0.000 A 
ATOM     27  C   UNL     1      49.668   4.798  16.971  0.00  0.00    +0.000 A 
BRANCH  24  28
ATOM     28  C   UNL     1      52.165   1.469  18.093  0.00  0.00    +0.000 C 
ATOM     29  N   UNL     1      51.590   0.231  18.051  0.00  0.00    +0.000 N 
ATOM     30  O   UNL     1      53.335   1.583  18.442  0.00  0.00    +0.000 OA
ATOM     31  H   UNL     1      50.646   0.033  17.762  0.00  0.00    +0.000 HD
ATOM     32  H   UNL     1      52.182  -0.547  18.308  0.00  0.00    +0.000 HD
ENDBRANCH  24  28
ENDBRANCH  20  27
ENDBRANCH  19  20
ENDBRANCH   1  19
TORSDOF 7
ENDMDL
MODEL 4
REMARK VINA RESULT:    -7.773      1.367      2.647
REMARK INTER + INTRA:         -11.882
REMARK INTER:                 -10.572
REMARK INTRA:                  -1.310
REMARK UNBOUND:                -0.929
REMARK  Name = 
REMARK  8 active torsions:
REMARK  status: ('A' for Active; 'I' for Inactive)
REMARK    1  A    between atoms: C_1  and  C_2
REMARK    2  A    between atoms: C_4  and  C_5
REMARK    3  A    between atoms: C_10  and  C_11
REMARK    4  A    between atoms: C_11  and  O_12
REMARK    5  A    between atoms: O_12  and  C_13
REMARK    6  A    between atoms: C_16  and  C_17
REMARK    7  A    between atoms: C_19  and  C_20
REMARK    8  A    between atoms: C_24  and  C_25
REMARK                            x       y       z     vdW  Elec       q    Type
REMARK                         _______ _______ _______ _____ _____    ______ ____
ROOT
ATOM      1  C   UNL     1      44.973   6.335  11.688  0.00  0.00    +0.000 A 
ATOM      2  C   UNL     1      44.116   7.399  11.450  0.00  0.00    +0.000 A 
ATOM      3  C   UNL     1      44.599   8.706  11.534  0.00  0.00    +0.000 A 
ATOM      4  C   UNL     1      45.945   8.959  11.859  0.00  0.00    +0.000 A 
ATOM      5  C   UNL     1      46.822   7.891  12.168  0.00  0.00    +0.000 A 
ATOM      6  C   UNL     1      46.287   6.589  12.089  0.00  0.00    +0.000 A 
ENDROOT
BRANCH   5   7
ATOM      7  C   UNL     1      48.254   8.038  12.545  0.00  0.00    +0.000 A 
ATOM      8  C   UNL     1      48.657   8.242  13.871  0.00  0.00    +0.000 A 
ATOM      9  N   UNL     1      49.935   8.394  14.292  0.00  0.00    +0.000 NA
ATOM     10  C   UNL     1      50.896   8.308  13.351  0.00  0.00    +0.000 A 
ATOM     11  C   UNL     1      50.638   8.107  12.010  0.00  0.00    +0.000 A 
ATOM     12  C   UNL     1      49.297   8.013  11.610  0.00  0.00    +0.000 A 
BRANCH  11  13
ATOM     13  C   UNL     1      51.747   7.973  11.018  0.00  0.00    +0.000 C 
ATOM     14  F   UNL     1      52.965   7.767  11.590  0.00  0.00    +0.000 F 
ATOM     15  F   UNL     1      51.556   6.933  10.162  0.00  0.00    +0.000 F 
ATOM     16  F   UNL     1      51.883   9.081  10.238  0.00  0.00    +0.000 F 
ENDBRANCH  11  13
ENDBRANCH   5   7
BRANCH   4  17
ATOM     17  C   UNL     1      46.362  10.335  11.851  0.00  0.00    +0.000 C 
ATOM     18  N   UNL     1      46.689  11.445  11.876  0.00  0.00    +0.000 NA
ENDBRANCH   4  17
BRANCH   1  19
ATOM     19  O   UNL     1      44.462   5.075  11.517  0.00  0.00    +0.000 OA
BRANCH  19  20
ATOM     20  C   UNL     1      43.896   4.838  10.222  0.00  0.00    +0.000 C 
BRANCH  20  27
ATOM     21  C   UNL     1      43.953   1.812  10.264  0.00  0.00    +0.000 C 
ATOM     22  C   UNL     1      44.859   2.624   9.376  0.00  0.00    +0.000 A 
ATOM     23  C   UNL     1      45.750   1.946   8.528  0.00  0.00    +0.000 A 
ATOM     24  C   UNL     1      46.607   2.637   7.660  0.00  0.00    +0.000 A 
ATOM     25  C   UNL     1      46.568   4.031   7.635  0.00  0.00    +0.000 A 
ATOM     26  C   UNL     1      45.692   4.720   8.478  0.00  0.00    +0.000 A 
ATOM     27  C   UNL     1      44.841   4.032   9.362  0.00  0.00    +0.000 A 
BRANCH  24  28
ATOM     28  C   UNL     1      47.516   1.826   6.804  0.00  0.00    +0.000 C 
ATOM     29  N   UNL     1      48.620   2.423   6.264  0.00  0.00    +0.000 N 
ATOM     30  O   UNL     1      47.296   0.641   6.577  0.00  0.00    +0.000 OA
ATOM     31  H   UNL     1      48.896   3.380   6.404  0.00  0.00    +0.000 HD
ATOM     32  H   UNL     1      49.217   1.834   5.699  0.00  0.00    +0.000 HD
ENDBRANCH  24  28
ENDBRANCH  20  27
ENDBRANCH  19  20
ENDBRANCH   1  19
TORSDOF 7
ENDMDL
MODEL 5
REMARK VINA RESULT:    -7.331      5.449      8.447
REMARK INTER + INTRA:         -11.260
REMARK INTER:                 -10.195
REMARK INTRA:                  -1.065
REMARK UNBOUND:                -0.929
REMARK  Name = 
REMARK  8 active torsions:
REMARK  status: ('A' for Active; 'I' for Inactive)
REMARK    1  A    between atoms: C_1  and  C_2
REMARK    2  A    between atoms: C_4  and  C_5
REMARK    3  A    between atoms: C_10  and  C_11
REMARK    4  A    between atoms: C_11  and  O_12
REMARK    5  A    between atoms: O_12  and  C_13
REMARK    6  A    between atoms: C_16  and  C_17
REMARK    7  A    between atoms: C_19  and  C_20
REMARK    8  A    between atoms: C_24  and  C_25
REMARK                            x       y       z     vdW  Elec       q    Type
REMARK                         _______ _______ _______ _____ _____    ______ ____
ROOT
ATOM      1  C   UNL     1      47.813   4.875  15.441  0.00  0.00    +0.000 A 
ATOM      2  C   UNL     1      48.529   6.060  15.357  0.00  0.00    +0.000 A 
ATOM      3  C   UNL     1      48.174   7.015  14.403  0.00  0.00    +0.000 A 
ATOM      4  C   UNL     1      47.098   6.791  13.523  0.00  0.00    +0.000 A 
ATOM      5  C   UNL     1      46.394   5.563  13.549  0.00  0.00    +0.000 A 
ATOM      6  C   UNL     1      46.799   4.620  14.515  0.00  0.00    +0.000 A 
ENDROOT
BRANCH   5   7
ATOM      7  C   UNL     1      45.258   5.206  12.655  0.00  0.00    +0.000 A 
ATOM      8  C   UNL     1      43.929   5.503  12.985  0.00  0.00    +0.000 A 
ATOM      9  N   UNL     1      42.844   5.204  12.233  0.00  0.00    +0.000 NA
ATOM     10  C   UNL     1      43.075   4.598  11.051  0.00  0.00    +0.000 A 
ATOM     11  C   UNL     1      44.335   4.252  10.603  0.00  0.00    +0.000 A 
ATOM     12  C   UNL     1      45.425   4.528  11.440  0.00  0.00    +0.000 A 
BRANCH  11  13
ATOM     13  C   UNL     1      44.535   3.623   9.262  0.00  0.00    +0.000 C 
ATOM     14  F   UNL     1      43.968   4.326   8.243  0.00  0.00    +0.000 F 
ATOM     15  F   UNL     1      45.850   3.496   8.939  0.00  0.00    +0.000 F 
ATOM     16  F   UNL     1      44.008   2.370   9.192  0.00  0.00    +0.000 F 
ENDBRANCH  11  13
ENDBRANCH   5   7
BRANCH   4  17
ATOM     17  C   UNL     1      46.766   7.864  12.626  0.00  0.00    +0.000 C 
ATOM     18  N   UNL     1      46.491   8.747  11.929  0.00  0.00    +0.000 NA
ENDBRANCH   4  17
BRANCH   1  19
ATOM     19  O   UNL     1      48.159   4.010  16.446  0.00  0.00    +0.000 OA
BRANCH  19  20
ATOM     20  C   UNL     1      49.138   4.523  17.357  0.00  0.00    +0.000 C 
BRANCH  20  27
ATOM     21  C   UNL     1      51.883   5.420  18.266  0.00  0.00    +0.000 C 
ATOM     22  C   UNL     1      51.575   3.986  17.922  0.00  0.00    +0.000 A 
ATOM     23  C   UNL     1      52.599   3.033  18.045  0.00  0.00    +0.000 A 
ATOM     24  C   UNL     1      52.378   1.678  17.761  0.00  0.00    +0.000 A 
ATOM     25  C   UNL     1      51.109   1.267  17.355  0.00  0.00    +0.000 A 
ATOM     26  C   UNL     1      50.081   2.205  17.222  0.00  0.00    +0.000 A 
ATOM     27  C   UNL     1      50.301   3.569  17.489  0.00  0.00    +0.000 A 
BRANCH  24  28
ATOM     28  C   UNL     1      53.530   0.747  17.919  0.00  0.00    +0.000 C 
ATOM     29  N   UNL     1      53.788  -0.156  16.927  0.00  0.00    +0.000 N 
ATOM     30  O   UNL     1      54.248   0.778  18.913  0.00  0.00    +0.000 OA
ATOM     31  H   UNL     1      53.271  -0.248  16.069  0.00  0.00    +0.000 HD
ATOM     32  H   UNL     1      54.587  -0.761  17.068  0.00  0.00    +0.000 HD
ENDBRANCH  24  28
ENDBRANCH  20  27
ENDBRANCH  19  20
ENDBRANCH   1  19
TORSDOF 7
ENDMDL
MODEL 6
REMARK VINA RESULT:    -6.673      3.946      5.659
REMARK INTER + INTRA:         -10.333
REMARK INTER:                  -8.929
REMARK INTRA:                  -1.403
REMARK UNBOUND:                -0.929
REMARK  Name = 
REMARK  8 active torsions:
REMARK  status: ('A' for Active; 'I' for Inactive)
REMARK    1  A    between atoms: C_1  and  C_2
REMARK    2  A    between atoms: C_4  and  C_5
REMARK    3  A    between atoms: C_10  and  C_11
REMARK    4  A    between atoms: C_11  and  O_12
REMARK    5  A    between atoms: O_12  and  C_13
REMARK    6  A    between atoms: C_16  and  C_17
REMARK    7  A    between atoms: C_19  and  C_20
REMARK    8  A    between atoms: C_24  and  C_25
REMARK                            x       y       z     vdW  Elec       q    Type
REMARK                         _______ _______ _______ _____ _____    ______ ____
ROOT
ATOM      1  C   UNL     1      47.790   7.875  12.608  0.00  0.00    +0.000 A 
ATOM      2  C   UNL     1      48.988   8.401  12.148  0.00  0.00    +0.000 A 
ATOM      3  C   UNL     1      50.127   8.328  12.952  0.00  0.00    +0.000 A 
ATOM      4  C   UNL     1      50.075   7.729  14.225  0.00  0.00    +0.000 A 
ATOM      5  C   UNL     1      48.849   7.244  14.740  0.00  0.00    +0.000 A 
ATOM      6  C   UNL     1      47.721   7.355  13.902  0.00  0.00    +0.000 A 
ENDROOT
BRANCH   5   7
ATOM      7  C   UNL     1      48.669   6.613  16.076  0.00  0.00    +0.000 A 
ATOM      8  C   UNL     1      48.707   7.359  17.262  0.00  0.00    +0.000 A 
ATOM      9  N   UNL     1      48.562   6.860  18.512  0.00  0.00    +0.000 NA
ATOM     10  C   UNL     1      48.330   5.536  18.612  0.00  0.00    +0.000 A 
ATOM     11  C   UNL     1      48.265   4.687  17.525  0.00  0.00    +0.000 A 
ATOM     12  C   UNL     1      48.479   5.236  16.252  0.00  0.00    +0.000 A 
BRANCH  11  13
ATOM     13  C   UNL     1      47.957   3.234  17.692  0.00  0.00    +0.000 C 
ATOM     14  F   UNL     1      48.230   2.762  18.940  0.00  0.00    +0.000 F 
ATOM     15  F   UNL     1      46.646   2.951  17.466  0.00  0.00    +0.000 F 
ATOM     16  F   UNL     1      48.665   2.451  16.833  0.00  0.00    +0.000 F 
ENDBRANCH  11  13
ENDBRANCH   5   7
BRANCH   4  17
ATOM     17  C   UNL     1      51.316   7.640  14.945  0.00  0.00    +0.000 C 
ATOM     18  N   UNL     1      52.326   7.594  15.509  0.00  0.00    +0.000 NA
ENDBRANCH   4  17
BRANCH   1  19
ATOM     19  O   UNL     1      46.725   7.908  11.745  0.00  0.00    +0.000 OA
BRANCH  19  20
ATOM     20  C   UNL     1      45.599   7.129  12.166  0.00  0.00    +0.000 C 
BRANCH  20  27
ATOM     21  C   UNL     1      45.116   4.464  13.517  0.00  0.00    +0.000 C 
ATOM     22  C   UNL     1      45.291   4.593  12.026  0.00  0.00    +0.000 A 
ATOM     23  C   UNL     1      45.211   3.433  11.238  0.00  0.00    +0.000 A 
ATOM     24  C   UNL     1      45.345   3.482   9.844  0.00  0.00    +0.000 A 
ATOM     25  C   UNL     1      45.554   4.714   9.225  0.00  0.00    +0.000 A 
ATOM     26  C   UNL     1      45.643   5.876   9.996  0.00  0.00    +0.000 A 
ATOM     27  C   UNL     1      45.526   5.831  11.397  0.00  0.00    +0.000 A 
BRANCH  24  28
ATOM     28  C   UNL     1      45.247   2.196   9.100  0.00  0.00    +0.000 C 
ATOM     29  N   UNL     1      44.164   1.391   9.313  0.00  0.00    +0.000 N 
ATOM     30  O   UNL     1      46.113   1.848   8.303  0.00  0.00    +0.000 OA
ATOM     31  H   UNL     1      43.396   1.595   9.930  0.00  0.00    +0.000 HD
ATOM     32  H   UNL     1      44.131   0.533   8.779  0.00  0.00    +0.000 HD
ENDBRANCH  24  28
ENDBRANCH  20  27
ENDBRANCH  19  20
ENDBRANCH   1  19
TORSDOF 7
ENDMDL
MODEL 7
REMARK VINA RESULT:    -6.412      5.018      8.715
REMARK INTER + INTRA:          -9.965
REMARK INTER:                  -9.097
REMARK INTRA:                  -0.868
REMARK UNBOUND:                -0.929
REMARK  Name = 
REMARK  8 active torsions:
REMARK  status: ('A' for Active; 'I' for Inactive)
REMARK    1  A    between atoms: C_1  and  C_2
REMARK    2  A    between atoms: C_4  and  C_5
REMARK    3  A    between atoms: C_10  and  C_11
REMARK    4  A    between atoms: C_11  and  O_12
REMARK    5  A    between atoms: O_12  and  C_13
REMARK    6  A    between atoms: C_16  and  C_17
REMARK    7  A    between atoms: C_19  and  C_20
REMARK    8  A    between atoms: C_24  and  C_25
REMARK                            x       y       z     vdW  Elec       q    Type
REMARK                         _______ _______ _______ _____ _____    ______ ____
ROOT
ATOM      1  C   UNL     1      48.802   7.277  13.723  0.00  0.00    +0.000 A 
ATOM      2  C   UNL     1      48.517   8.612  13.475  0.00  0.00    +0.000 A 
ATOM      3  C   UNL     1      47.325   8.956  12.836  0.00  0.00    +0.000 A 
ATOM      4  C   UNL     1      46.407   7.966  12.437  0.00  0.00    +0.000 A 
ATOM      5  C   UNL     1      46.706   6.595  12.623  0.00  0.00    +0.000 A 
ATOM      6  C   UNL     1      47.929   6.292  13.255  0.00  0.00    +0.000 A 
ENDROOT
BRANCH   5   7
ATOM      7  C   UNL     1      45.826   5.463  12.223  0.00  0.00    +0.000 A 
ATOM      8  C   UNL     1      45.043   4.764  13.152  0.00  0.00    +0.000 A 
ATOM      9  N   UNL     1      44.227   3.721  12.870  0.00  0.00    +0.000 NA
ATOM     10  C   UNL     1      44.143   3.352  11.577  0.00  0.00    +0.000 A 
ATOM     11  C   UNL     1      44.856   3.957  10.561  0.00  0.00    +0.000 A 
ATOM     12  C   UNL     1      45.733   4.995  10.906  0.00  0.00    +0.000 A 
BRANCH  11  13
ATOM     13  C   UNL     1      44.686   3.535   9.137  0.00  0.00    +0.000 C 
ATOM     14  F   UNL     1      44.188   2.276   9.000  0.00  0.00    +0.000 F 
ATOM     15  F   UNL     1      43.838   4.349   8.452  0.00  0.00    +0.000 F 
ATOM     16  F   UNL     1      45.860   3.551   8.448  0.00  0.00    +0.000 F 
ENDBRANCH  11  13
ENDBRANCH   5   7
BRANCH   4  17
ATOM     17  C   UNL     1      45.178   8.425  11.851  0.00  0.00    +0.000 C 
ATOM     18  N   UNL     1      44.204   8.823  11.369  0.00  0.00    +0.000 NA
ENDBRANCH   4  17
BRANCH   1  19
ATOM     19  O   UNL     1      49.950   7.006  14.420  0.00  0.00    +0.000 OA
BRANCH  19  20
ATOM     20  C   UNL     1      49.849   7.226  15.833  0.00  0.00    +0.000 C 
BRANCH  20  27
ATOM     21  C   UNL     1      52.875   7.293  15.882  0.00  0.00    +0.000 C 
ATOM     22  C   UNL     1      52.079   6.253  16.624  0.00  0.00    +0.000 A 
ATOM     23  C   UNL     1      52.771   5.289  17.377  0.00  0.00    +0.000 A 
ATOM     24  C   UNL     1      52.094   4.304  18.108  0.00  0.00    +0.000 A 
ATOM     25  C   UNL     1      50.700   4.284  18.092  0.00  0.00    +0.000 A 
ATOM     26  C   UNL     1      49.997   5.232  17.343  0.00  0.00    +0.000 A 
ATOM     27  C   UNL     1      50.671   6.213  16.594  0.00  0.00    +0.000 A 
BRANCH  24  28
ATOM     28  C   UNL     1      52.920   3.327  18.871  0.00  0.00    +0.000 C 
ATOM     29  N   UNL     1      53.421   2.237  18.219  0.00  0.00    +0.000 N 
ATOM     30  O   UNL     1      53.159   3.483  20.064  0.00  0.00    +0.000 OA
ATOM     31  H   UNL     1      53.297   2.030  17.242  0.00  0.00    +0.000 HD
ATOM     32  H   UNL     1      53.987   1.605  18.770  0.00  0.00    +0.000 HD
ENDBRANCH  24  28
ENDBRANCH  20  27
ENDBRANCH  19  20
ENDBRANCH   1  19
TORSDOF 7
ENDMDL
MODEL 8
REMARK VINA RESULT:    -6.401      5.747      8.626
REMARK INTER + INTRA:          -9.950
REMARK INTER:                  -9.190
REMARK INTRA:                  -0.760
REMARK UNBOUND:                -0.929
REMARK  Name = 
REMARK  8 active torsions:
REMARK  status: ('A' for Active; 'I' for Inactive)
REMARK    1  A    between atoms: C_1  and  C_2
REMARK    2  A    between atoms: C_4  and  C_5
REMARK    3  A    between atoms: C_10  and  C_11
REMARK    4  A    between atoms: C_11  and  O_12
REMARK    5  A    between atoms: O_12  and  C_13
REMARK    6  A    between atoms: C_16  and  C_17
REMARK    7  A    between atoms: C_19  and  C_20
REMARK    8  A    between atoms: C_24  and  C_25
REMARK                            x       y       z     vdW  Elec       q    Type
REMARK                         _______ _______ _______ _____ _____    ______ ____
ROOT
ATOM      1  C   UNL     1      48.556   5.558  16.223  0.00  0.00    +0.000 A 
ATOM      2  C   UNL     1      49.265   6.745  16.329  0.00  0.00    +0.000 A 
ATOM      3  C   UNL     1      49.086   7.744  15.371  0.00  0.00    +0.000 A 
ATOM      4  C   UNL     1      48.194   7.562  14.296  0.00  0.00    +0.000 A 
ATOM      5  C   UNL     1      47.509   6.335  14.133  0.00  0.00    +0.000 A 
ATOM      6  C   UNL     1      47.735   5.347  15.113  0.00  0.00    +0.000 A 
ENDROOT
BRANCH   5   7
ATOM      7  C   UNL     1      46.563   6.021  13.027  0.00  0.00    +0.000 A 
ATOM      8  C   UNL     1      46.877   6.272  11.685  0.00  0.00    +0.000 A 
ATOM      9  N   UNL     1      46.069   6.025  10.627  0.00  0.00    +0.000 NA
ATOM     10  C   UNL     1      44.876   5.458  10.896  0.00  0.00    +0.000 A 
ATOM     11  C   UNL     1      44.444   5.156  12.171  0.00  0.00    +0.000 A 
ATOM     12  C   UNL     1      45.287   5.482  13.243  0.00  0.00    +0.000 A 
BRANCH  11  13
ATOM     13  C   UNL     1      43.129   4.484  12.406  0.00  0.00    +0.000 C 
ATOM     14  F   UNL     1      43.212   3.125  12.432  0.00  0.00    +0.000 F 
ATOM     15  F   UNL     1      42.564   4.846  13.588  0.00  0.00    +0.000 F 
ATOM     16  F   UNL     1      42.214   4.785  11.444  0.00  0.00    +0.000 F 
ENDBRANCH  11  13
ENDBRANCH   5   7
BRANCH   4  17
ATOM     17  C   UNL     1      48.026   8.677  13.403  0.00  0.00    +0.000 C 
ATOM     18  N   UNL     1      47.911   9.592  12.704  0.00  0.00    +0.000 NA
ENDBRANCH   4  17
BRANCH   1  19
ATOM     19  O   UNL     1      48.717   4.646  17.233  0.00  0.00    +0.000 OA
BRANCH  19  20
ATOM     20  C   UNL     1      49.873   4.865  18.049  0.00  0.00    +0.000 C 
BRANCH  20  27
ATOM     21  C   UNL     1      52.705   4.996  19.110  0.00  0.00    +0.000 C 
ATOM     22  C   UNL     1      52.149   3.764  18.445  0.00  0.00    +0.000 A 
ATOM     23  C   UNL     1      52.974   2.634  18.329  0.00  0.00    +0.000 A 
ATOM     24  C   UNL     1      52.515   1.448  17.740  0.00  0.00    +0.000 A 
ATOM     25  C   UNL     1      51.206   1.388  17.264  0.00  0.00    +0.000 A 
ATOM     26  C   UNL     1      50.375   2.507  17.365  0.00  0.00    +0.000 A 
ATOM     27  C   UNL     1      50.835   3.705  17.942  0.00  0.00    +0.000 A 
BRANCH  24  28
ATOM     28  C   UNL     1      53.470   0.307  17.662  0.00  0.00    +0.000 C 
ATOM     29  N   UNL     1      53.377  -0.694  18.588  0.00  0.00    +0.000 N 
ATOM     30  O   UNL     1      54.329   0.247  16.789  0.00  0.00    +0.000 OA
ATOM     31  H   UNL     1      52.698  -0.746  19.329  0.00  0.00    +0.000 HD
ATOM     32  H   UNL     1      54.035  -1.456  18.492  0.00  0.00    +0.000 HD
ENDBRANCH  24  28
ENDBRANCH  20  27
ENDBRANCH  19  20
ENDBRANCH   1  19
TORSDOF 7
ENDMDL
MODEL 9
REMARK VINA RESULT:    -6.198      4.571      7.439
REMARK INTER + INTRA:          -9.664
REMARK INTER:                  -8.257
REMARK INTRA:                  -1.406
REMARK UNBOUND:                -0.929
REMARK  Name = 
REMARK  8 active torsions:
REMARK  status: ('A' for Active; 'I' for Inactive)
REMARK    1  A    between atoms: C_1  and  C_2
REMARK    2  A    between atoms: C_4  and  C_5
REMARK    3  A    between atoms: C_10  and  C_11
REMARK    4  A    between atoms: C_11  and  O_12
REMARK    5  A    between atoms: O_12  and  C_13
REMARK    6  A    between atoms: C_16  and  C_17
REMARK    7  A    between atoms: C_19  and  C_20
REMARK    8  A    between atoms: C_24  and  C_25
REMARK                            x       y       z     vdW  Elec       q    Type
REMARK                         _______ _______ _______ _____ _____    ______ ____
ROOT
ATOM      1  C   UNL     1      49.352   9.481  15.045  0.00  0.00    +0.000 A 
ATOM      2  C   UNL     1      48.705  10.436  15.815  0.00  0.00    +0.000 A 
ATOM      3  C   UNL     1      48.271  10.107  17.100  0.00  0.00    +0.000 A 
ATOM      4  C   UNL     1      48.480   8.817  17.625  0.00  0.00    +0.000 A 
ATOM      5  C   UNL     1      49.081   7.809  16.833  0.00  0.00    +0.000 A 
ATOM      6  C   UNL     1      49.486   8.180  15.535  0.00  0.00    +0.000 A 
ENDROOT
BRANCH   5   7
ATOM      7  C   UNL     1      49.332   6.409  17.271  0.00  0.00    +0.000 A 
ATOM      8  C   UNL     1      50.274   6.096  18.260  0.00  0.00    +0.000 A 
ATOM      9  N   UNL     1      50.567   4.851  18.705  0.00  0.00    +0.000 NA
ATOM     10  C   UNL     1      49.861   3.836  18.168  0.00  0.00    +0.000 A 
ATOM     11  C   UNL     1      48.902   4.005  17.190  0.00  0.00    +0.000 A 
ATOM     12  C   UNL     1      48.672   5.305  16.716  0.00  0.00    +0.000 A 
BRANCH  11  13
ATOM     13  C   UNL     1      48.117   2.846  16.665  0.00  0.00    +0.000 C 
ATOM     14  F   UNL     1      47.112   2.451  17.495  0.00  0.00    +0.000 F 
ATOM     15  F   UNL     1      47.528   3.117  15.469  0.00  0.00    +0.000 F 
ATOM     16  F   UNL     1      48.891   1.745  16.462  0.00  0.00    +0.000 F 
ENDBRANCH  11  13
ENDBRANCH   5   7
BRANCH   4  17
ATOM     17  C   UNL     1      48.060   8.598  18.982  0.00  0.00    +0.000 C 
ATOM     18  N   UNL     1      47.703   8.397  20.065  0.00  0.00    +0.000 NA
ENDBRANCH   4  17
BRANCH   1  19
ATOM     19  O   UNL     1      49.822   9.884  13.822  0.00  0.00    +0.000 OA
BRANCH  19  20
ATOM     20  C   UNL     1      48.802  10.295  12.903  0.00  0.00    +0.000 C 
BRANCH  20  27
ATOM     21  C   UNL     1      49.724   7.807  11.447  0.00  0.00    +0.000 C 
ATOM     22  C   UNL     1      48.304   7.988  11.917  0.00  0.00    +0.000 A 
ATOM     23  C   UNL     1      47.383   6.954  11.680  0.00  0.00    +0.000 A 
ATOM     24  C   UNL     1      46.051   7.047  12.107  0.00  0.00    +0.000 A 
ATOM     25  C   UNL     1      45.634   8.190  12.789  0.00  0.00    +0.000 A 
ATOM     26  C   UNL     1      46.538   9.230  13.026  0.00  0.00    +0.000 A 
ATOM     27  C   UNL     1      47.871   9.149  12.585  0.00  0.00    +0.000 A 
BRANCH  24  28
ATOM     28  C   UNL     1      45.152   5.899  11.805  0.00  0.00    +0.000 C 
ATOM     29  N   UNL     1      44.835   5.635  10.503  0.00  0.00    +0.000 N 
ATOM     30  O   UNL     1      44.697   5.189  12.695  0.00  0.00    +0.000 OA
ATOM     31  H   UNL     1      45.170   6.145   9.703  0.00  0.00    +0.000 HD
ATOM     32  H   UNL     1      44.232   4.839  10.340  0.00  0.00    +0.000 HD
ENDBRANCH  24  28
ENDBRANCH  20  27
ENDBRANCH  19  20
ENDBRANCH   1  19
TORSDOF 7
ENDMDL
