MODEL 1
REMARK VINA RESULT:    -8.036      0.000      0.000
REMARK INTER + INTRA:          -9.290
REMARK INTER:                  -9.445
REMARK INTRA:                   0.155
REMARK UNBOUND:                 0.155
REMARK  Name = 
REMARK  3 active torsions:
REMARK  status: ('A' for Active; 'I' for Inactive)
REMARK    1  A    between atoms: C_2  and  C_4
REMARK    2  A    between atoms: N_8  and  C_9
REMARK    3  A    between atoms: C_9  and  C_10
REMARK                            x       y       z     vdW  Elec       q    Type
REMARK                         _______ _______ _______ _____ _____    ______ ____
ROOT
ATOM      1  C   UNL     1      46.584   2.812   7.372  0.00  0.00    +0.000 A 
ATOM      2  C   UNL     1      46.071   1.721   8.069  0.00  0.00    +0.000 A 
ATOM      3  C   UNL     1      45.220   1.954   9.147  0.00  0.00    +0.000 A 
ATOM      4  C   UNL     1      44.926   3.267   9.521  0.00  0.00    +0.000 A 
ATOM      5  N   UNL     1      43.891   3.457  10.472  0.00  0.00    +0.000 N 
ATOM      6  N   UNL     1      45.485   4.318   8.892  0.00  0.00    +0.000 NA
ATOM      7  C   UNL     1      46.313   4.080   7.848  0.00  0.00    +0.000 A 
ATOM      8  H   UNL     1      43.018   3.377   9.954  0.00  0.00    +0.000 HD
ENDROOT
BRANCH   1  10
ATOM      9  N   UNL     1      48.616   2.381   6.164  0.00  0.00    +0.000 N 
ATOM     10  C   UNL     1      47.281   2.667   6.085  0.00  0.00    +0.000 C 
ATOM     11  O   UNL     1      46.680   2.702   5.011  0.00  0.00    +0.000 OA
ATOM     12  H   UNL     1      49.063   2.083   5.304  0.00  0.00    +0.000 HD
ATOM     13  H   UNL     1      49.048   2.090   7.027  0.00  0.00    +0.000 HD
ENDBRANCH   1  10
BRANCH   5  14
ATOM     14  C   UNL     1      43.892   4.576  11.443  0.00  0.00    +0.000 C 
ATOM     15  C   UNL     1      42.707   5.021  12.282  0.00  0.00    +0.000 C 
ATOM     16  C   UNL     1      43.095   5.822  11.080  0.00  0.00    +0.000 C 
BRANCH  14  17
ATOM     17  C   UNL     1      45.261   4.815  12.085  0.00  0.00    +0.000 A 
ATOM     18  C   UNL     1      45.959   6.013  11.884  0.00  0.00    +0.000 A 
ATOM     19  C   UNL     1      47.068   6.290  12.666  0.00  0.00    +0.000 A 
ATOM     20  N   UNL     1      47.554   5.452  13.604  0.00  0.00    +0.000 NA
ATOM     21  C   UNL     1      46.918   4.272  13.742  0.00  0.00    +0.000 A 
ATOM     22  C   UNL     1      45.806   3.906  13.002  0.00  0.00    +0.000 A 
ENDBRANCH  14  17
ENDBRANCH   5  14
TORSDOF 3
ENDMDL
MODEL 2
REMARK VINA RESULT:    -6.844      2.982      6.161
REMARK INTER + INTRA:          -7.889
REMARK INTER:                  -7.599
REMARK INTRA:                  -0.290
REMARK UNBOUND:                 0.155
REMARK  Name = 
REMARK  3 active torsions:
REMARK  status: ('A' for Active; 'I' for Inactive)
REMARK    1  A    between atoms: C_2  and  C_4
REMARK    2  A    between atoms: N_8  and  C_9
REMARK    3  A    between atoms: C_9  and  C_10
REMARK                            x       y       z     vdW  Elec       q    Type
REMARK                         _______ _______ _______ _____ _____    ______ ____
ROOT
ATOM      1  C   UNL     1      47.744   6.174  14.292  0.00  0.00    +0.000 A 
ATOM      2  C   UNL     1      47.461   4.996  14.977  0.00  0.00    +0.000 A 
ATOM      3  C   UNL     1      46.686   4.024  14.347  0.00  0.00    +0.000 A 
ATOM      4  C   UNL     1      46.189   4.264  13.065  0.00  0.00    +0.000 A 
ATOM      5  N   UNL     1      45.599   3.172  12.379  0.00  0.00    +0.000 N 
ATOM      6  N   UNL     1      46.402   5.437  12.437  0.00  0.00    +0.000 NA
ATOM      7  C   UNL     1      47.153   6.374  13.059  0.00  0.00    +0.000 A 
ATOM      8  H   UNL     1      46.373   2.623  12.010  0.00  0.00    +0.000 HD
ENDROOT
BRANCH   1  10
ATOM      9  N   UNL     1      48.260   8.176  15.518  0.00  0.00    +0.000 N 
ATOM     10  C   UNL     1      48.746   7.141  14.768  0.00  0.00    +0.000 C 
ATOM     11  O   UNL     1      49.952   6.971  14.587  0.00  0.00    +0.000 OA
ATOM     12  H   UNL     1      48.947   8.731  16.016  0.00  0.00    +0.000 HD
ATOM     13  H   UNL     1      47.323   8.171  15.889  0.00  0.00    +0.000 HD
ENDBRANCH   1  10
BRANCH   5  14
ATOM     14  C   UNL     1      44.489   3.339  11.412  0.00  0.00    +0.000 C 
ATOM     15  C   UNL     1      43.219   4.135  11.653  0.00  0.00    +0.000 C 
ATOM     16  C   UNL     1      43.172   2.642  11.728  0.00  0.00    +0.000 C 
BRANCH  14  17
ATOM     17  C   UNL     1      44.948   3.283   9.954  0.00  0.00    +0.000 A 
ATOM     18  C   UNL     1      45.232   4.451   9.236  0.00  0.00    +0.000 A 
ATOM     19  C   UNL     1      45.871   4.356   8.011  0.00  0.00    +0.000 A 
ATOM     20  N   UNL     1      46.214   3.188   7.432  0.00  0.00    +0.000 NA
ATOM     21  C   UNL     1      45.874   2.065   8.097  0.00  0.00    +0.000 A 
ATOM     22  C   UNL     1      45.230   2.063   9.323  0.00  0.00    +0.000 A 
ENDBRANCH  14  17
ENDBRANCH   5  14
TORSDOF 3
ENDMDL
MODEL 3
REMARK VINA RESULT:    -6.234      3.535      5.503
REMARK INTER + INTRA:          -7.172
REMARK INTER:                  -7.029
REMARK INTRA:                  -0.143
REMARK UNBOUND:                 0.155
REMARK  Name = 
REMARK  3 active torsions:
REMARK  status: ('A' for Active; 'I' for Inactive)
REMARK    1  A    between atoms: C_2  and  C_4
REMARK    2  A    between atoms: N_8  and  C_9
REMARK    3  A    between atoms: C_9  and  C_10
REMARK                            x       y       z     vdW  Elec       q    Type
REMARK                         _______ _______ _______ _____ _____    ______ ____
ROOT
ATOM      1  C   UNL     1      44.961   3.822  11.431  0.00  0.00    +0.000 A 
ATOM      2  C   UNL     1      45.436   3.704  12.735  0.00  0.00    +0.000 A 
ATOM      3  C   UNL     1      46.051   4.805  13.326  0.00  0.00    +0.000 A 
ATOM      4  C   UNL     1      46.204   5.984  12.594  0.00  0.00    +0.000 A 
ATOM      5  N   UNL     1      46.630   7.138  13.299  0.00  0.00    +0.000 N 
ATOM      6  N   UNL     1      45.812   6.068  11.308  0.00  0.00    +0.000 NA
ATOM      7  C   UNL     1      45.218   4.991  10.743  0.00  0.00    +0.000 A 
ATOM      8  H   UNL     1      45.802   7.500  13.768  0.00  0.00    +0.000 HD
ENDROOT
BRANCH   1  10
ATOM      9  N   UNL     1      44.599   2.175   9.719  0.00  0.00    +0.000 N 
ATOM     10  C   UNL     1      44.088   2.810  10.817  0.00  0.00    +0.000 C 
ATOM     11  O   UNL     1      43.011   2.488  11.319  0.00  0.00    +0.000 OA
ATOM     12  H   UNL     1      44.104   1.347   9.408  0.00  0.00    +0.000 HD
ATOM     13  H   UNL     1      45.574   2.244   9.469  0.00  0.00    +0.000 HD
ENDBRANCH   1  10
BRANCH   5  14
ATOM     14  C   UNL     1      47.457   8.198  12.676  0.00  0.00    +0.000 C 
ATOM     15  C   UNL     1      48.721   7.971  11.866  0.00  0.00    +0.000 C 
ATOM     16  C   UNL     1      48.832   8.459  13.276  0.00  0.00    +0.000 C 
BRANCH  14  17
ATOM     17  C   UNL     1      46.650   9.435  12.277  0.00  0.00    +0.000 A 
ATOM     18  C   UNL     1      47.258  10.528  11.648  0.00  0.00    +0.000 A 
ATOM     19  C   UNL     1      46.465  11.516  11.088  0.00  0.00    +0.000 A 
ATOM     20  N   UNL     1      45.118  11.516  11.139  0.00  0.00    +0.000 NA
ATOM     21  C   UNL     1      44.542  10.496  11.808  0.00  0.00    +0.000 A 
ATOM     22  C   UNL     1      45.254   9.468  12.403  0.00  0.00    +0.000 A 
ENDBRANCH  14  17
ENDBRANCH   5  14
TORSDOF 3
ENDMDL
MODEL 4
REMARK VINA RESULT:    -6.147      3.262      6.130
REMARK INTER + INTRA:          -7.070
REMARK INTER:                  -7.455
REMARK INTRA:                   0.385
REMARK UNBOUND:                 0.155
REMARK  Name = 
REMARK  3 active torsions:
REMARK  status: ('A' for Active; 'I' for Inactive)
REMARK    1  A    between atoms: C_2  and  C_4
REMARK    2  A    between atoms: N_8  and  C_9
REMARK    3  A    between atoms: C_9  and  C_10
REMARK                            x       y       z     vdW  Elec       q    Type
REMARK                         _______ _______ _______ _____ _____    ______ ____
ROOT
ATOM      1  C   UNL     1      48.503   6.843  13.525  0.00  0.00    +0.000 A 
ATOM      2  C   UNL     1      48.211   7.694  12.462  0.00  0.00    +0.000 A 
ATOM      3  C   UNL     1      46.966   7.592  11.845  0.00  0.00    +0.000 A 
ATOM      4  C   UNL     1      46.057   6.626  12.282  0.00  0.00    +0.000 A 
ATOM      5  N   UNL     1      44.733   6.703  11.781  0.00  0.00    +0.000 N 
ATOM      6  N   UNL     1      46.374   5.755  13.260  0.00  0.00    +0.000 NA
ATOM      7  C   UNL     1      47.588   5.862  13.850  0.00  0.00    +0.000 A 
ATOM      8  H   UNL     1      44.270   7.429  12.325  0.00  0.00    +0.000 HD
ENDROOT
BRANCH   1  10
ATOM      9  N   UNL     1      50.660   7.842  13.882  0.00  0.00    +0.000 N 
ATOM     10  C   UNL     1      49.677   7.038  14.390  0.00  0.00    +0.000 C 
ATOM     11  O   UNL     1      49.724   6.588  15.535  0.00  0.00    +0.000 OA
ATOM     12  H   UNL     1      51.373   8.147  14.535  0.00  0.00    +0.000 HD
ATOM     13  H   UNL     1      50.508   8.421  13.070  0.00  0.00    +0.000 HD
ENDBRANCH   1  10
BRANCH   5  14
ATOM     14  C   UNL     1      43.887   5.505  11.568  0.00  0.00    +0.000 C 
ATOM     15  C   UNL     1      42.375   5.457  11.695  0.00  0.00    +0.000 C 
ATOM     16  C   UNL     1      43.220   4.890  12.791  0.00  0.00    +0.000 C 
BRANCH  14  17
ATOM     17  C   UNL     1      44.480   4.522  10.557  0.00  0.00    +0.000 A 
ATOM     18  C   UNL     1      44.154   3.160  10.590  0.00  0.00    +0.000 A 
ATOM     19  C   UNL     1      44.513   2.351   9.524  0.00  0.00    +0.000 A 
ATOM     20  N   UNL     1      45.201   2.786   8.450  0.00  0.00    +0.000 NA
ATOM     21  C   UNL     1      45.572   4.082   8.458  0.00  0.00    +0.000 A 
ATOM     22  C   UNL     1      45.263   4.964   9.481  0.00  0.00    +0.000 A 
ENDBRANCH  14  17
ENDBRANCH   5  14
TORSDOF 3
ENDMDL
MODEL 5
REMARK VINA RESULT:    -6.142      3.432      6.617
REMARK INTER + INTRA:          -7.063
REMARK INTER:                  -6.880
REMARK INTRA:                  -0.184
REMARK UNBOUND:                 0.155
REMARK  Name = 
REMARK  3 active torsions:
REMARK  status: ('A' for Active; 'I' for Inactive)
REMARK    1  A    between atoms: C_2  and  C_4
REMARK    2  A    between atoms: N_8  and  C_9
REMARK    3  A    between atoms: C_9  and  C_10
REMARK                            x       y       z     vdW  Elec       q    Type
REMARK                         _______ _______ _______ _____ _____    ______ ____
ROOT
ATOM      1  C   UNL     1      48.589   6.048  15.476  0.00  0.00    +0.000 A 
ATOM      2  C   UNL     1      48.024   4.903  16.030  0.00  0.00    +0.000 A 
ATOM      3  C   UNL     1      47.008   4.252  15.332  0.00  0.00    +0.000 A 
ATOM      4  C   UNL     1      46.562   4.777  14.117  0.00  0.00    +0.000 A 
ATOM      5  N   UNL     1      45.692   3.970  13.340  0.00  0.00    +0.000 N 
ATOM      6  N   UNL     1      47.060   5.927  13.623  0.00  0.00    +0.000 NA
ATOM      7  C   UNL     1      48.044   6.551  14.311  0.00  0.00    +0.000 A 
ATOM      8  H   UNL     1      46.287   3.294  12.865  0.00  0.00    +0.000 HD
ENDROOT
BRANCH   1  10
ATOM      9  N   UNL     1      50.073   6.417  17.330  0.00  0.00    +0.000 N 
ATOM     10  C   UNL     1      49.819   6.655  16.008  0.00  0.00    +0.000 C 
ATOM     11  O   UNL     1      50.616   7.253  15.284  0.00  0.00    +0.000 OA
ATOM     12  H   UNL     1      51.003   6.654  17.658  0.00  0.00    +0.000 HD
ATOM     13  H   UNL     1      49.570   5.715  17.851  0.00  0.00    +0.000 HD
ENDBRANCH   1  10
BRANCH   5  14
ATOM     14  C   UNL     1      44.643   4.540  12.463  0.00  0.00    +0.000 C 
ATOM     15  C   UNL     1      43.897   5.840  12.706  0.00  0.00    +0.000 C 
ATOM     16  C   UNL     1      43.213   4.540  12.988  0.00  0.00    +0.000 C 
BRANCH  14  17
ATOM     17  C   UNL     1      44.820   4.165  10.990  0.00  0.00    +0.000 A 
ATOM     18  C   UNL     1      45.306   5.090  10.058  0.00  0.00    +0.000 A 
ATOM     19  C   UNL     1      45.680   4.650   8.798  0.00  0.00    +0.000 A 
ATOM     20  N   UNL     1      45.572   3.371   8.387  0.00  0.00    +0.000 NA
ATOM     21  C   UNL     1      45.037   2.500   9.267  0.00  0.00    +0.000 A 
ATOM     22  C   UNL     1      44.631   2.849  10.544  0.00  0.00    +0.000 A 
ENDBRANCH  14  17
ENDBRANCH   5  14
TORSDOF 3
ENDMDL
MODEL 6
REMARK VINA RESULT:    -5.984      3.732      6.232
REMARK INTER + INTRA:          -6.878
REMARK INTER:                  -6.790
REMARK INTRA:                  -0.088
REMARK UNBOUND:                 0.155
REMARK  Name = 
REMARK  3 active torsions:
REMARK  status: ('A' for Active; 'I' for Inactive)
REMARK    1  A    between atoms: C_2  and  C_4
REMARK    2  A    between atoms: N_8  and  C_9
REMARK    3  A    between atoms: C_9  and  C_10
REMARK                            x       y       z     vdW  Elec       q    Type
REMARK                         _______ _______ _______ _____ _____    ______ ____
ROOT
ATOM      1  C   UNL     1      45.471   4.370  12.135  0.00  0.00    +0.000 A 
ATOM      2  C   UNL     1      45.669   5.684  12.552  0.00  0.00    +0.000 A 
ATOM      3  C   UNL     1      46.411   5.916  13.708  0.00  0.00    +0.000 A 
ATOM      4  C   UNL     1      46.910   4.833  14.434  0.00  0.00    +0.000 A 
ATOM      5  N   UNL     1      47.838   5.115  15.469  0.00  0.00    +0.000 N 
ATOM      6  N   UNL     1      46.651   3.563  14.070  0.00  0.00    +0.000 NA
ATOM      7  C   UNL     1      45.926   3.350  12.947  0.00  0.00    +0.000 A 
ATOM      8  H   UNL     1      48.735   5.259  15.009  0.00  0.00    +0.000 HD
ENDROOT
BRANCH   1  10
ATOM      9  N   UNL     1      44.308   5.066  10.150  0.00  0.00    +0.000 N 
ATOM     10  C   UNL     1      44.922   4.038  10.812  0.00  0.00    +0.000 C 
ATOM     11  O   UNL     1      45.093   2.934  10.294  0.00  0.00    +0.000 OA
ATOM     12  H   UNL     1      44.106   4.910   9.169  0.00  0.00    +0.000 HD
ATOM     13  H   UNL     1      44.401   6.023  10.451  0.00  0.00    +0.000 HD
ENDBRANCH   1  10
BRANCH   5  14
ATOM     14  C   UNL     1      47.939   4.295  16.699  0.00  0.00    +0.000 C 
ATOM     15  C   UNL     1      46.805   3.512  17.336  0.00  0.00    +0.000 C 
ATOM     16  C   UNL     1      47.231   4.809  17.945  0.00  0.00    +0.000 C 
BRANCH  14  17
ATOM     17  C   UNL     1      49.332   3.700  16.913  0.00  0.00    +0.000 A 
ATOM     18  C   UNL     1      50.407   4.496  17.328  0.00  0.00    +0.000 A 
ATOM     19  C   UNL     1      51.581   3.888  17.742  0.00  0.00    +0.000 A 
ATOM     20  N   UNL     1      51.777   2.554  17.740  0.00  0.00    +0.000 NA
ATOM     21  C   UNL     1      50.763   1.799  17.273  0.00  0.00    +0.000 A 
ATOM     22  C   UNL     1      49.556   2.318  16.833  0.00  0.00    +0.000 A 
ENDBRANCH  14  17
ENDBRANCH   5  14
TORSDOF 3
ENDMDL
MODEL 7
REMARK VINA RESULT:    -5.978      1.641      2.481
REMARK INTER + INTRA:          -6.872
REMARK INTER:                  -6.709
REMARK INTRA:                  -0.163
REMARK UNBOUND:                 0.155
REMARK  Name = 
REMARK  3 active torsions:
REMARK  status: ('A' for Active; 'I' for Inactive)
REMARK    1  A    between atoms: C_2  and  C_4
REMARK    2  A    between atoms: N_8  and  C_9
REMARK    3  A    between atoms: C_9  and  C_10
REMARK                            x       y       z     vdW  Elec       q    Type
REMARK                         _______ _______ _______ _____ _____    ______ ____
ROOT
ATOM      1  C   UNL     1      46.381   2.992   7.577  0.00  0.00    +0.000 A 
ATOM      2  C   UNL     1      45.510   2.009   8.040  0.00  0.00    +0.000 A 
ATOM      3  C   UNL     1      44.683   2.301   9.122  0.00  0.00    +0.000 A 
ATOM      4  C   UNL     1      44.766   3.553   9.734  0.00  0.00    +0.000 A 
ATOM      5  N   UNL     1      43.762   3.884  10.679  0.00  0.00    +0.000 N 
ATOM      6  N   UNL     1      45.664   4.474   9.332  0.00  0.00    +0.000 NA
ATOM      7  C   UNL     1      46.464   4.178   8.282  0.00  0.00    +0.000 A 
ATOM      8  H   UNL     1      42.950   4.170  10.135  0.00  0.00    +0.000 HD
ENDROOT
BRANCH   1  10
ATOM      9  N   UNL     1      48.444   2.608   6.407  0.00  0.00    +0.000 N 
ATOM     10  C   UNL     1      47.105   2.868   6.303  0.00  0.00    +0.000 C 
ATOM     11  O   UNL     1      46.524   2.895   5.218  0.00  0.00    +0.000 OA
ATOM     12  H   UNL     1      48.913   2.323   5.554  0.00  0.00    +0.000 HD
ATOM     13  H   UNL     1      48.866   2.323   7.277  0.00  0.00    +0.000 HD
ENDBRANCH   1  10
BRANCH   5  14
ATOM     14  C   UNL     1      44.019   4.759  11.847  0.00  0.00    +0.000 C 
ATOM     15  C   UNL     1      44.777   4.362  13.100  0.00  0.00    +0.000 C 
ATOM     16  C   UNL     1      43.284   4.437  13.141  0.00  0.00    +0.000 C 
BRANCH  14  17
ATOM     17  C   UNL     1      44.116   6.242  11.478  0.00  0.00    +0.000 A 
ATOM     18  C   UNL     1      43.011   6.940  10.978  0.00  0.00    +0.000 A 
ATOM     19  C   UNL     1      43.067   8.322  10.886  0.00  0.00    +0.000 A 
ATOM     20  N   UNL     1      44.149   9.053  11.219  0.00  0.00    +0.000 NA
ATOM     21  C   UNL     1      45.233   8.367  11.634  0.00  0.00    +0.000 A 
ATOM     22  C   UNL     1      45.271   6.987  11.752  0.00  0.00    +0.000 A 
ENDBRANCH  14  17
ENDBRANCH   5  14
TORSDOF 3
ENDMDL
MODEL 8
REMARK VINA RESULT:    -5.866      3.356      6.026
REMARK INTER + INTRA:          -6.739
REMARK INTER:                  -6.479
REMARK INTRA:                  -0.261
REMARK UNBOUND:                 0.155
REMARK  Name = 
REMARK  3 active torsions:
REMARK  status: ('A' for Active; 'I' for Inactive)
REMARK    1  A    between atoms: C_2  and  C_4
REMARK    2  A    between atoms: N_8  and  C_9
REMARK    3  A    between atoms: C_9  and  C_10
REMARK                            x       y       z     vdW  Elec       q    Type
REMARK                         _______ _______ _______ _____ _____    ______ ____
ROOT
ATOM      1  C   UNL     1      49.622   7.948  12.647  0.00  0.00    +0.000 A 
ATOM      2  C   UNL     1      49.273   7.289  13.823  0.00  0.00    +0.000 A 
ATOM      3  C   UNL     1      48.150   6.465  13.823  0.00  0.00    +0.000 A 
ATOM      4  C   UNL     1      47.385   6.344  12.660  0.00  0.00    +0.000 A 
ATOM      5  N   UNL     1      46.390   5.334  12.638  0.00  0.00    +0.000 N 
ATOM      6  N   UNL     1      47.682   7.043  11.548  0.00  0.00    +0.000 NA
ATOM      7  C   UNL     1      48.774   7.842  11.561  0.00  0.00    +0.000 A 
ATOM      8  H   UNL     1      46.880   4.463  12.443  0.00  0.00    +0.000 HD
ENDROOT
BRANCH   1  10
ATOM      9  N   UNL     1      52.018   7.904  12.826  0.00  0.00    +0.000 N 
ATOM     10  C   UNL     1      50.913   8.632  12.480  0.00  0.00    +0.000 C 
ATOM     11  O   UNL     1      50.997   9.749  11.969  0.00  0.00    +0.000 OA
ATOM     12  H   UNL     1      52.912   8.280  12.532  0.00  0.00    +0.000 HD
ATOM     13  H   UNL     1      51.971   6.910  12.988  0.00  0.00    +0.000 HD
ENDBRANCH   1  10
BRANCH   5  14
ATOM     14  C   UNL     1      45.125   5.474  11.879  0.00  0.00    +0.000 C 
ATOM     15  C   UNL     1      44.272   6.727  11.804  0.00  0.00    +0.000 C 
ATOM     16  C   UNL     1      43.836   5.597  12.679  0.00  0.00    +0.000 C 
BRANCH  14  17
ATOM     17  C   UNL     1      45.066   4.579  10.638  0.00  0.00    +0.000 A 
ATOM     18  C   UNL     1      45.458   5.054   9.381  0.00  0.00    +0.000 A 
ATOM     19  C   UNL     1      45.621   4.156   8.338  0.00  0.00    +0.000 A 
ATOM     20  N   UNL     1      45.387   2.833   8.444  0.00  0.00    +0.000 NA
ATOM     21  C   UNL     1      44.943   2.394   9.638  0.00  0.00    +0.000 A 
ATOM     22  C   UNL     1      44.746   3.218  10.735  0.00  0.00    +0.000 A 
ENDBRANCH  14  17
ENDBRANCH   5  14
TORSDOF 3
ENDMDL
MODEL 9
REMARK VINA RESULT:    -5.690      3.708      5.599
REMARK INTER + INTRA:          -6.533
REMARK INTER:                  -6.131
REMARK INTRA:                  -0.402
REMARK UNBOUND:                 0.155
REMARK  Name = 
REMARK  3 active torsions:
REMARK  status: ('A' for Active; 'I' for Inactive)
REMARK    1  A    between atoms: C_2  and  C_4
REMARK    2  A    between atoms: N_8  and  C_9
REMARK    3  A    between atoms: C_9  and  C_10
REMARK                            x       y       z     vdW  Elec       q    Type
REMARK                         _______ _______ _______ _____ _____    ______ ____
ROOT
ATOM      1  C   UNL     1      44.649   4.554  12.028  0.00  0.00    +0.000 A 
ATOM      2  C   UNL     1      45.133   4.858  10.758  0.00  0.00    +0.000 A 
ATOM      3  C   UNL     1      46.098   5.854  10.629  0.00  0.00    +0.000 A 
ATOM      4  C   UNL     1      46.534   6.542  11.763  0.00  0.00    +0.000 A 
ATOM      5  N   UNL     1      47.666   7.384  11.619  0.00  0.00    +0.000 N 
ATOM      6  N   UNL     1      46.008   6.297  12.978  0.00  0.00    +0.000 NA
ATOM      7  C   UNL     1      45.069   5.330  13.092  0.00  0.00    +0.000 A 
ATOM      8  H   UNL     1      48.477   6.769  11.643  0.00  0.00    +0.000 HD
ENDROOT
BRANCH   1  10
ATOM      9  N   UNL     1      43.668   2.506  11.241  0.00  0.00    +0.000 N 
ATOM     10  C   UNL     1      43.825   3.366  12.294  0.00  0.00    +0.000 C 
ATOM     11  O   UNL     1      43.390   3.113  13.417  0.00  0.00    +0.000 OA
ATOM     12  H   UNL     1      43.278   1.596  11.459  0.00  0.00    +0.000 HD
ATOM     13  H   UNL     1      44.236   2.573  10.411  0.00  0.00    +0.000 HD
ENDBRANCH   1  10
BRANCH   5  14
ATOM     14  C   UNL     1      47.849   8.621  12.413  0.00  0.00    +0.000 C 
ATOM     15  C   UNL     1      46.962   9.851  12.353  0.00  0.00    +0.000 C 
ATOM     16  C   UNL     1      48.292   9.874  11.669  0.00  0.00    +0.000 C 
BRANCH  14  17
ATOM     17  C   UNL     1      48.514   8.373  13.769  0.00  0.00    +0.000 A 
ATOM     18  C   UNL     1      48.090   9.048  14.921  0.00  0.00    +0.000 A 
ATOM     19  C   UNL     1      48.543   8.625  16.160  0.00  0.00    +0.000 A 
ATOM     20  N   UNL     1      49.413   7.609  16.335  0.00  0.00    +0.000 NA
ATOM     21  C   UNL     1      49.870   7.011  15.216  0.00  0.00    +0.000 A 
ATOM     22  C   UNL     1      49.477   7.368  13.937  0.00  0.00    +0.000 A 
ENDBRANCH  14  17
ENDBRANCH   5  14
TORSDOF 3
ENDMDL
