MODEL 1
REMARK VINA RESULT:    -7.441      0.000      0.000
REMARK INTER + INTRA:         -12.039
REMARK INTER:                 -10.703
REMARK INTRA:                  -1.335
REMARK UNBOUND:                -1.335
REMARK  Name = 
REMARK  8 active torsions:
REMARK  status: ('A' for Active; 'I' for Inactive)
REMARK    1  A    between atoms: C_2  and  C_21
REMARK    2  A    between atoms: N_3  and  CA_4
REMARK    3  A    between atoms: CA_4  and  C_5
REMARK    4  A    between atoms: CA_4  and  C_7
REMARK    5  A    between atoms: C_5  and  O_6
REMARK    6  A    between atoms: C_10  and  C_11
REMARK    7  A    between atoms: C_11  and  O_12
REMARK    8  A    between atoms: O_12  and  C_13
REMARK                            x       y       z     vdW  Elec       q    Type
REMARK                         _______ _______ _______ _____ _____    ______ ____
ROOT
ATOM      1  CA  UNL     1      47.918   4.663  15.804  0.00  0.00    +0.000 C 
ENDROOT
BRANCH   1   2
ATOM      2  C   UNL     1      47.153   4.958  14.517  0.00  0.00    +0.000 A 
ATOM      3  C   UNL     1      47.533   6.034  13.717  0.00  0.00    +0.000 A 
ATOM      4  C   UNL     1      46.844   6.270  12.530  0.00  0.00    +0.000 A 
ATOM      5  C   UNL     1      45.774   5.449  12.169  0.00  0.00    +0.000 A 
ATOM      6  C   UNL     1      45.465   4.400  13.025  0.00  0.00    +0.000 A 
ATOM      7  N   UNL     1      46.126   4.133  14.180  0.00  0.00    +0.000 NA
BRANCH   5   8
ATOM      8  C   UNL     1      45.012   5.679  10.890  0.00  0.00    +0.000 C 
BRANCH   8   9
ATOM      9  O   UNL     1      44.374   4.462  10.521  0.00  0.00    +0.000 OA
BRANCH   9  10
ATOM     10  C   UNL     1      45.021   3.801   9.499  0.00  0.00    +0.000 A 
ATOM     11  N   UNL     1      45.531   4.491   8.478  0.00  0.00    +0.000 NA
ATOM     12  C   UNL     1      46.136   3.737   7.562  0.00  0.00    +0.000 A 
ATOM     13  N   UNL     1      46.254   2.412   7.591  0.00  0.00    +0.000 NA
ATOM     14  C   UNL     1      45.698   1.844   8.657  0.00  0.00    +0.000 A 
ATOM     15  N   UNL     1      45.069   2.478   9.643  0.00  0.00    +0.000 NA
ENDBRANCH   9  10
ENDBRANCH   8   9
ENDBRANCH   5   8
ENDBRANCH   1   2
BRANCH   1  18
ATOM     16  O   UNL     1      49.714   5.539  17.781  0.00  0.00    +0.000 OA
ATOM     17  C   UNL     1      48.617   6.086  17.706  0.00  0.00    +0.000 C 
ATOM     18  N   UNL     1      47.665   5.683  16.811  0.00  0.00    +0.000 N 
ATOM     19  H   UNL     1      46.859   6.275  16.629  0.00  0.00    +0.000 HD
BRANCH  17  20
ATOM     20  C   UNL     1      48.229   7.160  18.629  0.00  0.00    +0.000 A 
ATOM     21  C   UNL     1      48.085   6.886  19.981  0.00  0.00    +0.000 A 
ATOM     22  S   UNL     1      47.613   8.239  20.907  0.00  0.00    +0.000 S 
ATOM     23  C   UNL     1      47.627   9.249  19.539  0.00  0.00    +0.000 A 
ATOM     24  N   UNL     1      47.338  10.574  19.642  0.00  0.00    +0.000 NA
ATOM     25  C   UNL     1      47.429  11.229  18.533  0.00  0.00    +0.000 A 
ATOM     26  N   UNL     1      47.770  10.676  17.326  0.00  0.00    +0.000 N 
ATOM     27  C   UNL     1      47.998   9.333  17.161  0.00  0.00    +0.000 A 
ATOM     28  O   UNL     1      48.184   8.855  16.046  0.00  0.00    +0.000 OA
ATOM     29  C   UNL     1      47.956   8.557  18.384  0.00  0.00    +0.000 A 
ATOM     30  H   UNL     1      47.792  11.237  16.487  0.00  0.00    +0.000 HD
ENDBRANCH  17  20
ENDBRANCH   1  18
BRANCH   1  31
ATOM     31  C   UNL     1      47.529   3.275  16.356  0.00  0.00    +0.000 C 
BRANCH  31  32
ATOM     32  O   UNL     1      46.465   3.346  17.311  0.00  0.00    +0.000 OA
ATOM     33  H   UNL     1      46.320   2.428  17.629  0.00  0.00    +0.000 HD
ENDBRANCH  31  32
ENDBRANCH   1  31
TORSDOF 8
ENDMDL
MODEL 2
REMARK VINA RESULT:    -7.406      2.917      4.319
REMARK INTER + INTRA:         -11.989
REMARK INTER:                 -11.442
REMARK INTRA:                  -0.546
REMARK UNBOUND:                -1.335
REMARK  Name = 
REMARK  8 active torsions:
REMARK  status: ('A' for Active; 'I' for Inactive)
REMARK    1  A    between atoms: C_2  and  C_21
REMARK    2  A    between atoms: N_3  and  CA_4
REMARK    3  A    between atoms: CA_4  and  C_5
REMARK    4  A    between atoms: CA_4  and  C_7
REMARK    5  A    between atoms: C_5  and  O_6
REMARK    6  A    between atoms: C_10  and  C_11
REMARK    7  A    between atoms: C_11  and  O_12
REMARK    8  A    between atoms: O_12  and  C_13
REMARK                            x       y       z     vdW  Elec       q    Type
REMARK                         _______ _______ _______ _____ _____    ______ ____
ROOT
ATOM      1  CA  UNL     1      46.274   7.560  13.178  0.00  0.00    +0.000 C 
ENDROOT
BRANCH   1   2
ATOM      2  C   UNL     1      45.837   6.371  12.326  0.00  0.00    +0.000 A 
ATOM      3  C   UNL     1      45.972   6.425  10.940  0.00  0.00    +0.000 A 
ATOM      4  C   UNL     1      45.598   5.320  10.180  0.00  0.00    +0.000 A 
ATOM      5  C   UNL     1      45.073   4.188  10.807  0.00  0.00    +0.000 A 
ATOM      6  C   UNL     1      44.974   4.221  12.192  0.00  0.00    +0.000 A 
ATOM      7  N   UNL     1      45.344   5.275  12.962  0.00  0.00    +0.000 NA
BRANCH   5   8
ATOM      8  C   UNL     1      44.662   2.977  10.011  0.00  0.00    +0.000 C 
BRANCH   8   9
ATOM      9  O   UNL     1      44.840   3.264   8.630  0.00  0.00    +0.000 OA
BRANCH   9  10
ATOM     10  C   UNL     1      45.855   2.531   8.052  0.00  0.00    +0.000 A 
ATOM     11  N   UNL     1      45.964   1.227   8.310  0.00  0.00    +0.000 NA
ATOM     12  C   UNL     1      46.981   0.634   7.686  0.00  0.00    +0.000 A 
ATOM     13  N   UNL     1      47.851   1.223   6.871  0.00  0.00    +0.000 NA
ATOM     14  C   UNL     1      47.637   2.525   6.703  0.00  0.00    +0.000 A 
ATOM     15  N   UNL     1      46.663   3.236   7.262  0.00  0.00    +0.000 NA
ENDBRANCH   9  10
ENDBRANCH   8   9
ENDBRANCH   5   8
ENDBRANCH   1   2
BRANCH   1  18
ATOM     16  O   UNL     1      48.797   6.321  13.167  0.00  0.00    +0.000 OA
ATOM     17  C   UNL     1      48.275   6.571  14.250  0.00  0.00    +0.000 C 
ATOM     18  N   UNL     1      47.027   7.121  14.344  0.00  0.00    +0.000 N 
ATOM     19  H   UNL     1      46.709   7.504  15.229  0.00  0.00    +0.000 HD
BRANCH  17  20
ATOM     20  C   UNL     1      48.930   6.223  15.516  0.00  0.00    +0.000 A 
ATOM     21  C   UNL     1      50.075   6.900  15.909  0.00  0.00    +0.000 A 
ATOM     22  S   UNL     1      50.717   6.357  17.393  0.00  0.00    +0.000 S 
ATOM     23  C   UNL     1      49.461   5.226  17.585  0.00  0.00    +0.000 A 
ATOM     24  N   UNL     1      49.393   4.435  18.690  0.00  0.00    +0.000 NA
ATOM     25  C   UNL     1      48.365   3.655  18.725  0.00  0.00    +0.000 A 
ATOM     26  N   UNL     1      47.404   3.585  17.750  0.00  0.00    +0.000 N 
ATOM     27  C   UNL     1      47.470   4.312  16.587  0.00  0.00    +0.000 A 
ATOM     28  O   UNL     1      46.656   4.136  15.685  0.00  0.00    +0.000 OA
ATOM     29  C   UNL     1      48.581   5.239  16.516  0.00  0.00    +0.000 A 
ATOM     30  H   UNL     1      46.639   2.929  17.822  0.00  0.00    +0.000 HD
ENDBRANCH  17  20
ENDBRANCH   1  18
BRANCH   1  31
ATOM     31  C   UNL     1      47.125   8.537  12.342  0.00  0.00    +0.000 C 
BRANCH  31  32
ATOM     32  O   UNL     1      47.302   9.801  12.991  0.00  0.00    +0.000 OA
ATOM     33  H   UNL     1      46.942  10.478  12.378  0.00  0.00    +0.000 HD
ENDBRANCH  31  32
ENDBRANCH   1  31
TORSDOF 8
ENDMDL
MODEL 3
REMARK VINA RESULT:    -7.310      1.732      2.191
REMARK INTER + INTRA:         -11.850
REMARK INTER:                 -10.475
REMARK INTRA:                  -1.376
REMARK UNBOUND:                -1.335
REMARK  Name = 
REMARK  8 active torsions:
REMARK  status: ('A' for Active; 'I' for Inactive)
REMARK    1  A    between atoms: C_2  and  C_21
REMARK    2  A    between atoms: N_3  and  CA_4
REMARK    3  A    between atoms: CA_4  and  C_5
REMARK    4  A    between atoms: CA_4  and  C_7
REMARK    5  A    between atoms: C_5  and  O_6
REMARK    6  A    between atoms: C_10  and  C_11
REMARK    7  A    between atoms: C_11  and  O_12
REMARK    8  A    between atoms: O_12  and  C_13
REMARK                            x       y       z     vdW  Elec       q    Type
REMARK                         _______ _______ _______ _____ _____    ______ ____
ROOT
ATOM      1  CA  UNL     1      47.824   5.072  14.705  0.00  0.00    +0.000 C 
ENDROOT
BRANCH   1   2
ATOM      2  C   UNL     1      46.843   4.998  13.539  0.00  0.00    +0.000 A 
ATOM      3  C   UNL     1      46.846   5.997  12.566  0.00  0.00    +0.000 A 
ATOM      4  C   UNL     1      45.966   5.897  11.492  0.00  0.00    +0.000 A 
ATOM      5  C   UNL     1      45.080   4.821  11.413  0.00  0.00    +0.000 A 
ATOM      6  C   UNL     1      45.145   3.873  12.426  0.00  0.00    +0.000 A 
ATOM      7  N   UNL     1      46.002   3.932  13.477  0.00  0.00    +0.000 NA
BRANCH   5   8
ATOM      8  C   UNL     1      44.118   4.686  10.262  0.00  0.00    +0.000 C 
BRANCH   8   9
ATOM      9  O   UNL     1      44.128   3.333   9.823  0.00  0.00    +0.000 OA
BRANCH   9  10
ATOM     10  C   UNL     1      45.082   3.083   8.861  0.00  0.00    +0.000 A 
ATOM     11  N   UNL     1      45.471   4.061   8.042  0.00  0.00    +0.000 NA
ATOM     12  C   UNL     1      46.403   3.693   7.163  0.00  0.00    +0.000 A 
ATOM     13  N   UNL     1      46.938   2.480   7.049  0.00  0.00    +0.000 NA
ATOM     14  C   UNL     1      46.460   1.596   7.919  0.00  0.00    +0.000 A 
ATOM     15  N   UNL     1      45.536   1.831   8.846  0.00  0.00    +0.000 NA
ENDBRANCH   9  10
ENDBRANCH   8   9
ENDBRANCH   5   8
ENDBRANCH   1   2
BRANCH   1  18
ATOM     16  O   UNL     1      50.095   6.614  15.308  0.00  0.00    +0.000 OA
ATOM     17  C   UNL     1      48.988   7.103  15.512  0.00  0.00    +0.000 C 
ATOM     18  N   UNL     1      47.834   6.402  15.298  0.00  0.00    +0.000 N 
ATOM     19  H   UNL     1      46.943   6.889  15.275  0.00  0.00    +0.000 HD
BRANCH  17  20
ATOM     20  C   UNL     1      48.836   8.451  16.072  0.00  0.00    +0.000 A 
ATOM     21  C   UNL     1      49.222   9.555  15.326  0.00  0.00    +0.000 A 
ATOM     22  S   UNL     1      48.995  11.041  16.134  0.00  0.00    +0.000 S 
ATOM     23  C   UNL     1      48.333  10.264  17.493  0.00  0.00    +0.000 A 
ATOM     24  N   UNL     1      47.892  10.978  18.564  0.00  0.00    +0.000 NA
ATOM     25  C   UNL     1      47.373  10.263  19.506  0.00  0.00    +0.000 A 
ATOM     26  N   UNL     1      47.266   8.897  19.480  0.00  0.00    +0.000 N 
ATOM     27  C   UNL     1      47.762   8.131  18.454  0.00  0.00    +0.000 A 
ATOM     28  O   UNL     1      47.755   6.905  18.520  0.00  0.00    +0.000 OA
ATOM     29  C   UNL     1      48.314   8.886  17.347  0.00  0.00    +0.000 A 
ATOM     30  H   UNL     1      46.878   8.392  20.264  0.00  0.00    +0.000 HD
ENDBRANCH  17  20
ENDBRANCH   1  18
BRANCH   1  31
ATOM     31  C   UNL     1      47.465   4.023  15.778  0.00  0.00    +0.000 C 
BRANCH  31  32
ATOM     32  O   UNL     1      48.059   2.747  15.514  0.00  0.00    +0.000 OA
ATOM     33  H   UNL     1      48.242   2.723  14.550  0.00  0.00    +0.000 HD
ENDBRANCH  31  32
ENDBRANCH   1  31
TORSDOF 8
ENDMDL
MODEL 4
REMARK VINA RESULT:    -7.153      1.986      3.394
REMARK INTER + INTRA:         -11.625
REMARK INTER:                 -10.034
REMARK INTRA:                  -1.591
REMARK UNBOUND:                -1.335
REMARK  Name = 
REMARK  8 active torsions:
REMARK  status: ('A' for Active; 'I' for Inactive)
REMARK    1  A    between atoms: C_2  and  C_21
REMARK    2  A    between atoms: N_3  and  CA_4
REMARK    3  A    between atoms: CA_4  and  C_5
REMARK    4  A    between atoms: CA_4  and  C_7
REMARK    5  A    between atoms: C_5  and  O_6
REMARK    6  A    between atoms: C_10  and  C_11
REMARK    7  A    between atoms: C_11  and  O_12
REMARK    8  A    between atoms: O_12  and  C_13
REMARK                            x       y       z     vdW  Elec       q    Type
REMARK                         _______ _______ _______ _____ _____    ______ ____
ROOT
ATOM      1  CA  UNL     1      47.666   8.053  13.387  0.00  0.00    +0.000 C 
ENDROOT
BRANCH   1   2
ATOM      2  C   UNL     1      46.581   7.142  12.822  0.00  0.00    +0.000 A 
ATOM      3  C   UNL     1      45.543   7.686  12.067  0.00  0.00    +0.000 A 
ATOM      4  C   UNL     1      44.578   6.837  11.533  0.00  0.00    +0.000 A 
ATOM      5  C   UNL     1      44.645   5.464  11.777  0.00  0.00    +0.000 A 
ATOM      6  C   UNL     1      45.713   5.008  12.540  0.00  0.00    +0.000 A 
ATOM      7  N   UNL     1      46.678   5.807  13.061  0.00  0.00    +0.000 NA
BRANCH   5   8
ATOM      8  C   UNL     1      43.616   4.520  11.211  0.00  0.00    +0.000 C 
BRANCH   8   9
ATOM      9  O   UNL     1      43.605   4.663   9.796  0.00  0.00    +0.000 OA
BRANCH   9  10
ATOM     10  C   UNL     1      44.489   3.818   9.160  0.00  0.00    +0.000 A 
ATOM     11  N   UNL     1      44.517   2.523   9.478  0.00  0.00    +0.000 NA
ATOM     12  C   UNL     1      45.409   1.814   8.788  0.00  0.00    +0.000 A 
ATOM     13  N   UNL     1      46.235   2.286   7.857  0.00  0.00    +0.000 NA
ATOM     14  C   UNL     1      46.112   3.592   7.639  0.00  0.00    +0.000 A 
ATOM     15  N   UNL     1      45.264   4.411   8.254  0.00  0.00    +0.000 NA
ENDBRANCH   9  10
ENDBRANCH   8   9
ENDBRANCH   5   8
ENDBRANCH   1   2
BRANCH   1  18
ATOM     16  O   UNL     1      48.672   9.895  15.258  0.00  0.00    +0.000 OA
ATOM     17  C   UNL     1      48.306   8.794  15.662  0.00  0.00    +0.000 C 
ATOM     18  N   UNL     1      47.858   7.822  14.812  0.00  0.00    +0.000 N 
ATOM     19  H   UNL     1      47.373   7.010  15.183  0.00  0.00    +0.000 HD
BRANCH  17  20
ATOM     20  C   UNL     1      48.402   8.426  17.079  0.00  0.00    +0.000 A 
ATOM     21  C   UNL     1      47.914   9.288  18.050  0.00  0.00    +0.000 A 
ATOM     22  S   UNL     1      48.122   8.715  19.643  0.00  0.00    +0.000 S 
ATOM     23  C   UNL     1      48.834   7.274  19.090  0.00  0.00    +0.000 A 
ATOM     24  N   UNL     1      49.227   6.306  19.962  0.00  0.00    +0.000 NA
ATOM     25  C   UNL     1      49.712   5.248  19.403  0.00  0.00    +0.000 A 
ATOM     26  N   UNL     1      49.850   5.073  18.050  0.00  0.00    +0.000 N 
ATOM     27  C   UNL     1      49.534   6.050  17.138  0.00  0.00    +0.000 A 
ATOM     28  O   UNL     1      49.781   5.904  15.944  0.00  0.00    +0.000 OA
ATOM     29  C   UNL     1      48.942   7.242  17.709  0.00  0.00    +0.000 A 
ATOM     30  H   UNL     1      50.266   4.233  17.676  0.00  0.00    +0.000 HD
ENDBRANCH  17  20
ENDBRANCH   1  18
BRANCH   1  31
ATOM     31  C   UNL     1      48.997   7.834  12.638  0.00  0.00    +0.000 C 
BRANCH  31  32
ATOM     32  O   UNL     1      49.659   6.630  13.040  0.00  0.00    +0.000 OA
ATOM     33  H   UNL     1      49.407   5.946  12.382  0.00  0.00    +0.000 HD
ENDBRANCH  31  32
ENDBRANCH   1  31
TORSDOF 8
ENDMDL
MODEL 5
REMARK VINA RESULT:    -7.130      4.847      8.713
REMARK INTER + INTRA:         -11.591
REMARK INTER:                 -10.569
REMARK INTRA:                  -1.022
REMARK UNBOUND:                -1.335
REMARK  Name = 
REMARK  8 active torsions:
REMARK  status: ('A' for Active; 'I' for Inactive)
REMARK    1  A    between atoms: C_2  and  C_21
REMARK    2  A    between atoms: N_3  and  CA_4
REMARK    3  A    between atoms: CA_4  and  C_5
REMARK    4  A    between atoms: CA_4  and  C_7
REMARK    5  A    between atoms: C_5  and  O_6
REMARK    6  A    between atoms: C_10  and  C_11
REMARK    7  A    between atoms: C_11  and  O_12
REMARK    8  A    between atoms: O_12  and  C_13
REMARK                            x       y       z     vdW  Elec       q    Type
REMARK                         _______ _______ _______ _____ _____    ______ ____
ROOT
ATOM      1  CA  UNL     1      48.972   6.247  16.886  0.00  0.00    +0.000 C 
ENDROOT
BRANCH   1   2
ATOM      2  C   UNL     1      49.605   4.874  17.095  0.00  0.00    +0.000 A 
ATOM      3  C   UNL     1      48.802   3.735  17.102  0.00  0.00    +0.000 A 
ATOM      4  C   UNL     1      49.399   2.487  17.263  0.00  0.00    +0.000 A 
ATOM      5  C   UNL     1      50.781   2.393  17.440  0.00  0.00    +0.000 A 
ATOM      6  C   UNL     1      51.503   3.579  17.419  0.00  0.00    +0.000 A 
ATOM      7  N   UNL     1      50.954   4.808  17.248  0.00  0.00    +0.000 NA
BRANCH   5   8
ATOM      8  C   UNL     1      51.456   1.057  17.614  0.00  0.00    +0.000 C 
BRANCH   8   9
ATOM      9  O   UNL     1      52.682   1.259  18.306  0.00  0.00    +0.000 OA
BRANCH   9  10
ATOM     10  C   UNL     1      53.633   0.307  18.008  0.00  0.00    +0.000 A 
ATOM     11  N   UNL     1      54.153  -0.441  18.982  0.00  0.00    +0.000 NA
ATOM     12  C   UNL     1      55.056  -1.327  18.563  0.00  0.00    +0.000 A 
ATOM     13  N   UNL     1      55.456  -1.502  17.307  0.00  0.00    +0.000 NA
ATOM     14  C   UNL     1      54.867  -0.691  16.434  0.00  0.00    +0.000 A 
ATOM     15  N   UNL     1      53.952   0.232  16.717  0.00  0.00    +0.000 NA
ENDBRANCH   9  10
ENDBRANCH   8   9
ENDBRANCH   5   8
ENDBRANCH   1   2
BRANCH   1  18
ATOM     16  O   UNL     1      49.374   6.713  14.143  0.00  0.00    +0.000 OA
ATOM     17  C   UNL     1      48.250   6.393  14.522  0.00  0.00    +0.000 C 
ATOM     18  N   UNL     1      47.957   6.203  15.843  0.00  0.00    +0.000 N 
ATOM     19  H   UNL     1      47.090   5.743  16.107  0.00  0.00    +0.000 HD
BRANCH  17  20
ATOM     20  C   UNL     1      47.130   6.271  13.582  0.00  0.00    +0.000 A 
ATOM     21  C   UNL     1      46.622   7.405  12.964  0.00  0.00    +0.000 A 
ATOM     22  S   UNL     1      45.312   7.086  11.919  0.00  0.00    +0.000 S 
ATOM     23  C   UNL     1      45.405   5.416  12.221  0.00  0.00    +0.000 A 
ATOM     24  N   UNL     1      44.566   4.543  11.602  0.00  0.00    +0.000 NA
ATOM     25  C   UNL     1      44.776   3.302  11.891  0.00  0.00    +0.000 A 
ATOM     26  N   UNL     1      45.744   2.855  12.753  0.00  0.00    +0.000 N 
ATOM     27  C   UNL     1      46.564   3.703  13.454  0.00  0.00    +0.000 A 
ATOM     28  O   UNL     1      47.338   3.274  14.306  0.00  0.00    +0.000 OA
ATOM     29  C   UNL     1      46.402   5.106  13.133  0.00  0.00    +0.000 A 
ATOM     30  H   UNL     1      45.837   1.872  12.962  0.00  0.00    +0.000 HD
ENDBRANCH  17  20
ENDBRANCH   1  18
BRANCH   1  31
ATOM     31  C   UNL     1      48.350   6.759  18.201  0.00  0.00    +0.000 C 
BRANCH  31  32
ATOM     32  O   UNL     1      47.034   6.241  18.422  0.00  0.00    +0.000 OA
ATOM     33  H   UNL     1      46.750   6.575  19.301  0.00  0.00    +0.000 HD
ENDBRANCH  31  32
ENDBRANCH   1  31
TORSDOF 8
ENDMDL
MODEL 6
REMARK VINA RESULT:    -7.003      2.843      3.986
REMARK INTER + INTRA:         -11.408
REMARK INTER:                 -10.400
REMARK INTRA:                  -1.009
REMARK UNBOUND:                -1.335
REMARK  Name = 
REMARK  8 active torsions:
REMARK  status: ('A' for Active; 'I' for Inactive)
REMARK    1  A    between atoms: C_2  and  C_21
REMARK    2  A    between atoms: N_3  and  CA_4
REMARK    3  A    between atoms: CA_4  and  C_5
REMARK    4  A    between atoms: CA_4  and  C_7
REMARK    5  A    between atoms: C_5  and  O_6
REMARK    6  A    between atoms: C_10  and  C_11
REMARK    7  A    between atoms: C_11  and  O_12
REMARK    8  A    between atoms: O_12  and  C_13
REMARK                            x       y       z     vdW  Elec       q    Type
REMARK                         _______ _______ _______ _____ _____    ______ ____
ROOT
ATOM      1  CA  UNL     1      47.593   7.059  13.636  0.00  0.00    +0.000 C 
ENDROOT
BRANCH   1   2
ATOM      2  C   UNL     1      46.639   6.215  12.794  0.00  0.00    +0.000 A 
ATOM      3  C   UNL     1      46.078   6.751  11.636  0.00  0.00    +0.000 A 
ATOM      4  C   UNL     1      45.235   5.957  10.863  0.00  0.00    +0.000 A 
ATOM      5  C   UNL     1      44.942   4.653  11.265  0.00  0.00    +0.000 A 
ATOM      6  C   UNL     1      45.545   4.201  12.433  0.00  0.00    +0.000 A 
ATOM      7  N   UNL     1      46.384   4.943  13.199  0.00  0.00    +0.000 NA
BRANCH   5   8
ATOM      8  C   UNL     1      44.035   3.770  10.449  0.00  0.00    +0.000 C 
BRANCH   8   9
ATOM      9  O   UNL     1      44.217   4.087   9.074  0.00  0.00    +0.000 OA
BRANCH   9  10
ATOM     10  C   UNL     1      45.219   3.353   8.477  0.00  0.00    +0.000 A 
ATOM     11  N   UNL     1      45.339   2.052   8.744  0.00  0.00    +0.000 NA
ATOM     12  C   UNL     1      46.341   1.456   8.099  0.00  0.00    +0.000 A 
ATOM     13  N   UNL     1      47.188   2.040   7.257  0.00  0.00    +0.000 NA
ATOM     14  C   UNL     1      46.965   3.339   7.082  0.00  0.00    +0.000 A 
ATOM     15  N   UNL     1      46.003   4.053   7.659  0.00  0.00    +0.000 NA
ENDBRANCH   9  10
ENDBRANCH   8   9
ENDBRANCH   5   8
ENDBRANCH   1   2
BRANCH   1  18
ATOM     16  O   UNL     1      48.604   8.066  16.057  0.00  0.00    +0.000 OA
ATOM     17  C   UNL     1      48.582   6.849  15.896  0.00  0.00    +0.000 C 
ATOM     18  N   UNL     1      48.159   6.279  14.727  0.00  0.00    +0.000 N 
ATOM     19  H   UNL     1      47.956   5.285  14.694  0.00  0.00    +0.000 HD
BRANCH  17  20
ATOM     20  C   UNL     1      49.085   5.929  16.924  0.00  0.00    +0.000 A 
ATOM     21  C   UNL     1      48.190   5.238  17.726  0.00  0.00    +0.000 A 
ATOM     22  S   UNL     1      48.941   4.229  18.878  0.00  0.00    +0.000 S 
ATOM     23  C   UNL     1      50.490   4.648  18.316  0.00  0.00    +0.000 A 
ATOM     24  N   UNL     1      51.607   4.099  18.865  0.00  0.00    +0.000 NA
ATOM     25  C   UNL     1      52.713   4.474  18.313  0.00  0.00    +0.000 A 
ATOM     26  N   UNL     1      52.804   5.357  17.269  0.00  0.00    +0.000 N 
ATOM     27  C   UNL     1      51.710   5.990  16.732  0.00  0.00    +0.000 A 
ATOM     28  O   UNL     1      51.839   6.863  15.879  0.00  0.00    +0.000 OA
ATOM     29  C   UNL     1      50.437   5.571  17.284  0.00  0.00    +0.000 A 
ATOM     30  H   UNL     1      53.702   5.635  16.901  0.00  0.00    +0.000 HD
ENDBRANCH  17  20
ENDBRANCH   1  18
BRANCH   1  31
ATOM     31  C   UNL     1      48.725   7.629  12.757  0.00  0.00    +0.000 C 
BRANCH  31  32
ATOM     32  O   UNL     1      49.788   6.690  12.557  0.00  0.00    +0.000 OA
ATOM     33  H   UNL     1      50.103   6.437  13.452  0.00  0.00    +0.000 HD
ENDBRANCH  31  32
ENDBRANCH   1  31
TORSDOF 8
ENDMDL
MODEL 7
REMARK VINA RESULT:    -6.801      3.981      5.438
REMARK INTER + INTRA:         -11.118
REMARK INTER:                  -9.703
REMARK INTRA:                  -1.415
REMARK UNBOUND:                -1.335
REMARK  Name = 
REMARK  8 active torsions:
REMARK  status: ('A' for Active; 'I' for Inactive)
REMARK    1  A    between atoms: C_2  and  C_21
REMARK    2  A    between atoms: N_3  and  CA_4
REMARK    3  A    between atoms: CA_4  and  C_5
REMARK    4  A    between atoms: CA_4  and  C_7
REMARK    5  A    between atoms: C_5  and  O_6
REMARK    6  A    between atoms: C_10  and  C_11
REMARK    7  A    between atoms: C_11  and  O_12
REMARK    8  A    between atoms: O_12  and  C_13
REMARK                            x       y       z     vdW  Elec       q    Type
REMARK                         _______ _______ _______ _____ _____    ______ ____
ROOT
ATOM      1  CA  UNL     1      46.093   8.787  12.919  0.00  0.00    +0.000 C 
ENDROOT
BRANCH   1   2
ATOM      2  C   UNL     1      45.716   7.387  12.441  0.00  0.00    +0.000 A 
ATOM      3  C   UNL     1      46.351   6.274  12.990  0.00  0.00    +0.000 A 
ATOM      4  C   UNL     1      45.973   5.003  12.565  0.00  0.00    +0.000 A 
ATOM      5  C   UNL     1      44.989   4.858  11.585  0.00  0.00    +0.000 A 
ATOM      6  C   UNL     1      44.410   6.022  11.094  0.00  0.00    +0.000 A 
ATOM      7  N   UNL     1      44.744   7.273  11.498  0.00  0.00    +0.000 NA
BRANCH   5   8
ATOM      8  C   UNL     1      44.558   3.496  11.108  0.00  0.00    +0.000 C 
BRANCH   8   9
ATOM      9  O   UNL     1      44.157   3.602   9.747  0.00  0.00    +0.000 OA
BRANCH   9  10
ATOM     10  C   UNL     1      45.115   3.151   8.864  0.00  0.00    +0.000 A 
ATOM     11  N   UNL     1      45.494   1.872   8.891  0.00  0.00    +0.000 NA
ATOM     12  C   UNL     1      46.419   1.562   7.984  0.00  0.00    +0.000 A 
ATOM     13  N   UNL     1      46.965   2.398   7.104  0.00  0.00    +0.000 NA
ATOM     14  C   UNL     1      46.506   3.643   7.186  0.00  0.00    +0.000 A 
ATOM     15  N   UNL     1      45.586   4.083   8.039  0.00  0.00    +0.000 NA
ENDBRANCH   9  10
ENDBRANCH   8   9
ENDBRANCH   5   8
ENDBRANCH   1   2
BRANCH   1  18
ATOM     16  O   UNL     1      47.880   8.947  15.082  0.00  0.00    +0.000 OA
ATOM     17  C   UNL     1      48.335   9.013  13.944  0.00  0.00    +0.000 C 
ATOM     18  N   UNL     1      47.531   9.000  12.839  0.00  0.00    +0.000 N 
ATOM     19  H   UNL     1      47.936   8.848  11.920  0.00  0.00    +0.000 HD
BRANCH  17  20
ATOM     20  C   UNL     1      49.772   9.190  13.701  0.00  0.00    +0.000 A 
ATOM     21  C   UNL     1      50.523   9.981  14.559  0.00  0.00    +0.000 A 
ATOM     22  S   UNL     1      52.168  10.094  14.121  0.00  0.00    +0.000 S 
ATOM     23  C   UNL     1      51.943   9.055  12.794  0.00  0.00    +0.000 A 
ATOM     24  N   UNL     1      52.986   8.704  11.994  0.00  0.00    +0.000 NA
ATOM     25  C   UNL     1      52.681   7.876  11.051  0.00  0.00    +0.000 A 
ATOM     26  N   UNL     1      51.424   7.376  10.828  0.00  0.00    +0.000 N 
ATOM     27  C   UNL     1      50.330   7.759  11.564  0.00  0.00    +0.000 A 
ATOM     28  O   UNL     1      49.201   7.383  11.261  0.00  0.00    +0.000 OA
ATOM     29  C   UNL     1      50.624   8.652  12.666  0.00  0.00    +0.000 A 
ATOM     30  H   UNL     1      51.243   6.755  10.052  0.00  0.00    +0.000 HD
ENDBRANCH  17  20
ENDBRANCH   1  18
BRANCH   1  31
ATOM     31  C   UNL     1      45.358   9.856  12.085  0.00  0.00    +0.000 C 
BRANCH  31  32
ATOM     32  O   UNL     1      44.003  10.045  12.509  0.00  0.00    +0.000 OA
ATOM     33  H   UNL     1      44.047  10.356  13.439  0.00  0.00    +0.000 HD
ENDBRANCH  31  32
ENDBRANCH   1  31
TORSDOF 8
ENDMDL
MODEL 8
REMARK VINA RESULT:    -6.637      2.817      4.877
REMARK INTER + INTRA:         -10.883
REMARK INTER:                  -9.646
REMARK INTRA:                  -1.237
REMARK UNBOUND:                -1.335
REMARK  Name = 
REMARK  8 active torsions:
REMARK  status: ('A' for Active; 'I' for Inactive)
REMARK    1  A    between atoms: C_2  and  C_21
REMARK    2  A    between atoms: N_3  and  CA_4
REMARK    3  A    between atoms: CA_4  and  C_5
REMARK    4  A    between atoms: CA_4  and  C_7
REMARK    5  A    between atoms: C_5  and  O_6
REMARK    6  A    between atoms: C_10  and  C_11
REMARK    7  A    between atoms: C_11  and  O_12
REMARK    8  A    between atoms: O_12  and  C_13
REMARK                            x       y       z     vdW  Elec       q    Type
REMARK                         _______ _______ _______ _____ _____    ______ ____
ROOT
ATOM      1  CA  UNL     1      47.915   6.781  15.165  0.00  0.00    +0.000 C 
ENDROOT
BRANCH   1   2
ATOM      2  C   UNL     1      47.163   5.845  14.223  0.00  0.00    +0.000 A 
ATOM      3  C   UNL     1      47.129   4.477  14.486  0.00  0.00    +0.000 A 
ATOM      4  C   UNL     1      46.412   3.641  13.634  0.00  0.00    +0.000 A 
ATOM      5  C   UNL     1      45.761   4.174  12.520  0.00  0.00    +0.000 A 
ATOM      6  C   UNL     1      45.847   5.548  12.335  0.00  0.00    +0.000 A 
ATOM      7  N   UNL     1      46.524   6.391  13.155  0.00  0.00    +0.000 NA
BRANCH   5   8
ATOM      8  C   UNL     1      44.975   3.295  11.582  0.00  0.00    +0.000 C 
BRANCH   8   9
ATOM      9  O   UNL     1      44.740   4.017  10.379  0.00  0.00    +0.000 OA
BRANCH   9  10
ATOM     10  C   UNL     1      45.360   3.458   9.283  0.00  0.00    +0.000 A 
ATOM     11  N   UNL     1      45.490   2.134   9.196  0.00  0.00    +0.000 NA
ATOM     12  C   UNL     1      46.100   1.720   8.086  0.00  0.00    +0.000 A 
ATOM     13  N   UNL     1      46.568   2.498   7.113  0.00  0.00    +0.000 NA
ATOM     14  C   UNL     1      46.382   3.797   7.324  0.00  0.00    +0.000 A 
ATOM     15  N   UNL     1      45.789   4.341   8.382  0.00  0.00    +0.000 NA
ENDBRANCH   9  10
ENDBRANCH   8   9
ENDBRANCH   5   8
ENDBRANCH   1   2
BRANCH   1  18
ATOM     16  O   UNL     1      48.387   5.951  17.809  0.00  0.00    +0.000 OA
ATOM     17  C   UNL     1      49.253   5.733  16.966  0.00  0.00    +0.000 C 
ATOM     18  N   UNL     1      49.127   6.153  15.671  0.00  0.00    +0.000 N 
ATOM     19  H   UNL     1      49.749   5.785  14.957  0.00  0.00    +0.000 HD
BRANCH  17  20
ATOM     20  C   UNL     1      50.517   5.073  17.316  0.00  0.00    +0.000 A 
ATOM     21  C   UNL     1      51.617   5.839  17.674  0.00  0.00    +0.000 A 
ATOM     22  S   UNL     1      53.006   4.916  18.031  0.00  0.00    +0.000 S 
ATOM     23  C   UNL     1      52.174   3.458  17.762  0.00  0.00    +0.000 A 
ATOM     24  N   UNL     1      52.790   2.257  17.930  0.00  0.00    +0.000 NA
ATOM     25  C   UNL     1      52.029   1.233  17.735  0.00  0.00    +0.000 A 
ATOM     26  N   UNL     1      50.708   1.300  17.374  0.00  0.00    +0.000 N 
ATOM     27  C   UNL     1      50.065   2.487  17.123  0.00  0.00    +0.000 A 
ATOM     28  O   UNL     1      48.917   2.505  16.687  0.00  0.00    +0.000 OA
ATOM     29  C   UNL     1      50.862   3.671  17.373  0.00  0.00    +0.000 A 
ATOM     30  H   UNL     1      50.173   0.461  17.204  0.00  0.00    +0.000 HD
ENDBRANCH  17  20
ENDBRANCH   1  18
BRANCH   1  31
ATOM     31  C   UNL     1      48.269   8.099  14.446  0.00  0.00    +0.000 C 
BRANCH  31  32
ATOM     32  O   UNL     1      47.171   9.018  14.418  0.00  0.00    +0.000 OA
ATOM     33  H   UNL     1      46.962   9.225  15.355  0.00  0.00    +0.000 HD
ENDBRANCH  31  32
ENDBRANCH   1  31
TORSDOF 8
ENDMDL
MODEL 9
REMARK VINA RESULT:    -6.566      4.407      5.388
REMARK INTER + INTRA:         -10.780
REMARK INTER:                  -9.766
REMARK INTRA:                  -1.014
REMARK UNBOUND:                -1.335
REMARK  Name = 
REMARK  8 active torsions:
REMARK  status: ('A' for Active; 'I' for Inactive)
REMARK    1  A    between atoms: C_2  and  C_21
REMARK    2  A    between atoms: N_3  and  CA_4
REMARK    3  A    between atoms: CA_4  and  C_5
REMARK    4  A    between atoms: CA_4  and  C_7
REMARK    5  A    between atoms: C_5  and  O_6
REMARK    6  A    between atoms: C_10  and  C_11
REMARK    7  A    between atoms: C_11  and  O_12
REMARK    8  A    between atoms: O_12  and  C_13
REMARK                            x       y       z     vdW  Elec       q    Type
REMARK                         _______ _______ _______ _____ _____    ______ ____
ROOT
ATOM      1  CA  UNL     1      45.521   8.038  12.554  0.00  0.00    +0.000 C 
ENDROOT
BRANCH   1   2
ATOM      2  C   UNL     1      45.303   6.658  11.942  0.00  0.00    +0.000 A 
ATOM      3  C   UNL     1      44.660   5.666  12.681  0.00  0.00    +0.000 A 
ATOM      4  C   UNL     1      44.440   4.422  12.096  0.00  0.00    +0.000 A 
ATOM      5  C   UNL     1      44.885   4.174  10.795  0.00  0.00    +0.000 A 
ATOM      6  C   UNL     1      45.516   5.219  10.133  0.00  0.00    +0.000 A 
ATOM      7  N   UNL     1      45.730   6.447  10.668  0.00  0.00    +0.000 NA
BRANCH   5   8
ATOM      8  C   UNL     1      44.660   2.838  10.136  0.00  0.00    +0.000 C 
BRANCH   8   9
ATOM      9  O   UNL     1      44.638   3.030   8.727  0.00  0.00    +0.000 OA
BRANCH   9  10
ATOM     10  C   UNL     1      45.725   2.473   8.088  0.00  0.00    +0.000 A 
ATOM     11  N   UNL     1      46.511   3.235   7.327  0.00  0.00    +0.000 NA
ATOM     12  C   UNL     1      47.529   2.578   6.772  0.00  0.00    +0.000 A 
ATOM     13  N   UNL     1      47.797   1.283   6.913  0.00  0.00    +0.000 NA
ATOM     14  C   UNL     1      46.935   0.636   7.691  0.00  0.00    +0.000 A 
ATOM     15  N   UNL     1      45.882   1.168   8.305  0.00  0.00    +0.000 NA
ENDBRANCH   9  10
ENDBRANCH   8   9
ENDBRANCH   5   8
ENDBRANCH   1   2
BRANCH   1  18
ATOM     16  O   UNL     1      47.419   8.846  14.463  0.00  0.00    +0.000 OA
ATOM     17  C   UNL     1      47.745   8.850  13.279  0.00  0.00    +0.000 C 
ATOM     18  N   UNL     1      46.866   8.526  12.283  0.00  0.00    +0.000 N 
ATOM     19  H   UNL     1      47.210   8.337  11.347  0.00  0.00    +0.000 HD
BRANCH  17  20
ATOM     20  C   UNL     1      49.082   9.280  12.852  0.00  0.00    +0.000 A 
ATOM     21  C   UNL     1      49.213  10.314  11.936  0.00  0.00    +0.000 A 
ATOM     22  S   UNL     1      50.831  10.673  11.537  0.00  0.00    +0.000 S 
ATOM     23  C   UNL     1      51.417   9.489  12.607  0.00  0.00    +0.000 A 
ATOM     24  N   UNL     1      52.752   9.292  12.773  0.00  0.00    +0.000 NA
ATOM     25  C   UNL     1      53.055   8.392  13.648  0.00  0.00    +0.000 A 
ATOM     26  N   UNL     1      52.143   7.661  14.363  0.00  0.00    +0.000 N 
ATOM     27  C   UNL     1      50.787   7.774  14.175  0.00  0.00    +0.000 A 
ATOM     28  O   UNL     1      50.004   7.020  14.747  0.00  0.00    +0.000 OA
ATOM     29  C   UNL     1      50.390   8.805  13.238  0.00  0.00    +0.000 A 
ATOM     30  H   UNL     1      52.444   6.947  15.011  0.00  0.00    +0.000 HD
ENDBRANCH  17  20
ENDBRANCH   1  18
BRANCH   1  31
ATOM     31  C   UNL     1      44.482   9.039  12.008  0.00  0.00    +0.000 C 
BRANCH  31  32
ATOM     32  O   UNL     1      43.675   8.477  10.967  0.00  0.00    +0.000 OA
ATOM     33  H   UNL     1      42.823   8.225  11.385  0.00  0.00    +0.000 HD
ENDBRANCH  31  32
ENDBRANCH   1  31
TORSDOF 8
ENDMDL
