MODEL 1
REMARK VINA RESULT:    -8.587      0.000      0.000
REMARK INTER + INTRA:         -12.760
REMARK INTER:                 -11.850
REMARK INTRA:                  -0.910
REMARK UNBOUND:                -0.910
REMARK  Name = 
REMARK  7 active torsions:
REMARK  status: ('A' for Active; 'I' for Inactive)
REMARK    1  A    between atoms: N_1  and  C_2
REMARK    2  A    between atoms: C_2  and  C_3
REMARK    3  A    between atoms: C_3  and  N_4
REMARK    4  A    between atoms: C_3  and  C_17
REMARK    5  A    between atoms: C_5  and  C_7
REMARK    6  A    between atoms: C_20  and  C_21
REMARK    7  A    between atoms: C_21  and  C_22
REMARK                            x       y       z     vdW  Elec       q    Type
REMARK                         _______ _______ _______ _____ _____    ______ ____
ROOT
ATOM      1  C   UNL     1      46.432   7.677  12.673  0.00  0.00    +0.000 C 
ENDROOT
BRANCH   1   2
ATOM      2  C   UNL     1      45.983   6.498  11.809  0.00  0.00    +0.000 A 
ATOM      3  C   UNL     1      46.392   6.424  10.473  0.00  0.00    +0.000 A 
ATOM      4  C   UNL     1      45.936   5.397   9.641  0.00  0.00    +0.000 A 
ATOM      5  C   UNL     1      45.080   4.401  10.133  0.00  0.00    +0.000 A 
ATOM      6  C   UNL     1      44.702   4.448  11.480  0.00  0.00    +0.000 A 
ATOM      7  C   UNL     1      45.141   5.488  12.306  0.00  0.00    +0.000 A 
BRANCH   5   8
ATOM      8  C   UNL     1      44.559   3.312   9.220  0.00  0.00    +0.000 C 
BRANCH   8   9
ATOM      9  C   UNL     1      45.565   2.694   8.274  0.00  0.00    +0.000 A 
ATOM     10  C   UNL     1      45.955   3.352   7.107  0.00  0.00    +0.000 A 
ATOM     11  C   UNL     1      46.788   2.698   6.203  0.00  0.00    +0.000 A 
ATOM     12  C   UNL     1      47.208   1.404   6.478  0.00  0.00    +0.000 A 
ATOM     13  C   UNL     1      46.787   0.821   7.660  0.00  0.00    +0.000 A 
ATOM     14  N   UNL     1      45.980   1.431   8.557  0.00  0.00    +0.000 NA
ENDBRANCH   8   9
ENDBRANCH   5   8
ENDBRANCH   1   2
BRANCH   1  15
ATOM     15  N   UNL     1      46.975   7.170  13.925  0.00  0.00    +0.000 N 
ATOM     16  C   UNL     1      48.261   6.718  14.077  0.00  0.00    +0.000 C 
ATOM     17  O   UNL     1      49.041   6.601  13.137  0.00  0.00    +0.000 OA
ATOM     18  H   UNL     1      46.413   7.338  14.749  0.00  0.00    +0.000 HD
BRANCH  16  19
ATOM     19  C   UNL     1      48.636   6.329  15.441  0.00  0.00    +0.000 A 
ATOM     20  C   UNL     1      49.508   7.110  16.186  0.00  0.00    +0.000 A 
ATOM     21  S   UNL     1      49.897   6.430  17.704  0.00  0.00    +0.000 S 
ATOM     22  C   UNL     1      48.876   5.095  17.434  0.00  0.00    +0.000 A 
ATOM     23  N   UNL     1      48.762   4.095  18.348  0.00  0.00    +0.000 NA
ATOM     24  C   UNL     1      47.937   3.158  18.016  0.00  0.00    +0.000 A 
ATOM     25  N   UNL     1      47.197   3.141  16.862  0.00  0.00    +0.000 N 
ATOM     26  C   UNL     1      47.268   4.137  15.919  0.00  0.00    +0.000 A 
ATOM     27  O   UNL     1      46.571   4.104  14.913  0.00  0.00    +0.000 OA
ATOM     28  C   UNL     1      48.225   5.184  16.218  0.00  0.00    +0.000 A 
ATOM     29  H   UNL     1      46.553   2.390  16.666  0.00  0.00    +0.000 HD
ENDBRANCH  16  19
ENDBRANCH   1  15
BRANCH   1  30
ATOM     30  C   UNL     1      45.280   8.701  12.907  0.00  0.00    +0.000 C 
BRANCH  30  31
ATOM     31  N   UNL     1      44.387   8.867  11.752  0.00  0.00    +0.000 NA
ATOM     32  H   UNL     1      44.594   9.758  11.301  0.00  0.00    +0.000 HD
ATOM     33  H   UNL     1      43.422   8.932  12.080  0.00  0.00    +0.000 HD
ENDBRANCH  30  31
ENDBRANCH   1  30
TORSDOF 7
ENDMDL
MODEL 2
REMARK VINA RESULT:    -7.962      2.634      4.046
REMARK INTER + INTRA:         -11.897
REMARK INTER:                 -10.524
REMARK INTRA:                  -1.373
REMARK UNBOUND:                -0.910
REMARK  Name = 
REMARK  7 active torsions:
REMARK  status: ('A' for Active; 'I' for Inactive)
REMARK    1  A    between atoms: N_1  and  C_2
REMARK    2  A    between atoms: C_2  and  C_3
REMARK    3  A    between atoms: C_3  and  N_4
REMARK    4  A    between atoms: C_3  and  C_17
REMARK    5  A    between atoms: C_5  and  C_7
REMARK    6  A    between atoms: C_20  and  C_21
REMARK    7  A    between atoms: C_21  and  C_22
REMARK                            x       y       z     vdW  Elec       q    Type
REMARK                         _______ _______ _______ _____ _____    ______ ____
ROOT
ATOM      1  C   UNL     1      46.401   5.681  13.620  0.00  0.00    +0.000 C 
ENDROOT
BRANCH   1   2
ATOM      2  C   UNL     1      45.870   5.162  12.284  0.00  0.00    +0.000 A 
ATOM      3  C   UNL     1      45.229   3.919  12.229  0.00  0.00    +0.000 A 
ATOM      4  C   UNL     1      44.800   3.388  11.009  0.00  0.00    +0.000 A 
ATOM      5  C   UNL     1      44.977   4.100   9.814  0.00  0.00    +0.000 A 
ATOM      6  C   UNL     1      45.580   5.362   9.869  0.00  0.00    +0.000 A 
ATOM      7  C   UNL     1      46.029   5.883  11.087  0.00  0.00    +0.000 A 
BRANCH   5   8
ATOM      8  C   UNL     1      44.545   3.505   8.491  0.00  0.00    +0.000 C 
BRANCH   8   9
ATOM      9  C   UNL     1      45.638   2.887   7.647  0.00  0.00    +0.000 A 
ATOM     10  C   UNL     1      46.260   1.699   8.032  0.00  0.00    +0.000 A 
ATOM     11  C   UNL     1      47.343   1.228   7.293  0.00  0.00    +0.000 A 
ATOM     12  C   UNL     1      47.784   1.951   6.195  0.00  0.00    +0.000 A 
ATOM     13  C   UNL     1      47.110   3.115   5.869  0.00  0.00    +0.000 A 
ATOM     14  N   UNL     1      46.056   3.596   6.565  0.00  0.00    +0.000 NA
ENDBRANCH   8   9
ENDBRANCH   5   8
ENDBRANCH   1   2
BRANCH   1  15
ATOM     15  N   UNL     1      47.528   6.569  13.372  0.00  0.00    +0.000 N 
ATOM     16  C   UNL     1      47.457   7.936  13.442  0.00  0.00    +0.000 C 
ATOM     17  O   UNL     1      46.404   8.541  13.617  0.00  0.00    +0.000 OA
ATOM     18  H   UNL     1      48.436   6.126  13.325  0.00  0.00    +0.000 HD
BRANCH  16  19
ATOM     19  C   UNL     1      48.727   8.645  13.241  0.00  0.00    +0.000 A 
ATOM     20  C   UNL     1      48.797   9.746  12.398  0.00  0.00    +0.000 A 
ATOM     21  S   UNL     1      50.380  10.360  12.219  0.00  0.00    +0.000 S 
ATOM     22  C   UNL     1      51.014   9.207  13.299  0.00  0.00    +0.000 A 
ATOM     23  N   UNL     1      52.344   9.154  13.578  0.00  0.00    +0.000 NA
ATOM     24  C   UNL     1      52.676   8.241  14.428  0.00  0.00    +0.000 A 
ATOM     25  N   UNL     1      51.796   7.388  15.043  0.00  0.00    +0.000 N 
ATOM     26  C   UNL     1      50.444   7.415  14.803  0.00  0.00    +0.000 A 
ATOM     27  O   UNL     1      49.684   6.657  15.392  0.00  0.00    +0.000 OA
ATOM     28  C   UNL     1      50.027   8.386  13.811  0.00  0.00    +0.000 A 
ATOM     29  H   UNL     1      52.113   6.705  15.714  0.00  0.00    +0.000 HD
ENDBRANCH  16  19
ENDBRANCH   1  15
BRANCH   1  30
ATOM     30  C   UNL     1      46.775   4.519  14.590  0.00  0.00    +0.000 C 
BRANCH  30  31
ATOM     31  N   UNL     1      47.295   4.972  15.888  0.00  0.00    +0.000 NA
ATOM     32  H   UNL     1      48.303   5.112  15.807  0.00  0.00    +0.000 HD
ATOM     33  H   UNL     1      47.167   4.230  16.578  0.00  0.00    +0.000 HD
ENDBRANCH  30  31
ENDBRANCH   1  30
TORSDOF 7
ENDMDL
MODEL 3
REMARK VINA RESULT:    -7.728      2.243      3.030
REMARK INTER + INTRA:         -11.574
REMARK INTER:                 -10.381
REMARK INTRA:                  -1.193
REMARK UNBOUND:                -0.910
REMARK  Name = 
REMARK  7 active torsions:
REMARK  status: ('A' for Active; 'I' for Inactive)
REMARK    1  A    between atoms: N_1  and  C_2
REMARK    2  A    between atoms: C_2  and  C_3
REMARK    3  A    between atoms: C_3  and  N_4
REMARK    4  A    between atoms: C_3  and  C_17
REMARK    5  A    between atoms: C_5  and  C_7
REMARK    6  A    between atoms: C_20  and  C_21
REMARK    7  A    between atoms: C_21  and  C_22
REMARK                            x       y       z     vdW  Elec       q    Type
REMARK                         _______ _______ _______ _____ _____    ______ ____
ROOT
ATOM      1  C   UNL     1      47.830   7.356  13.854  0.00  0.00    +0.000 C 
ENDROOT
BRANCH   1   2
ATOM      2  C   UNL     1      46.873   6.608  12.927  0.00  0.00    +0.000 A 
ATOM      3  C   UNL     1      46.619   5.249  13.144  0.00  0.00    +0.000 A 
ATOM      4  C   UNL     1      45.806   4.524  12.268  0.00  0.00    +0.000 A 
ATOM      5  C   UNL     1      45.203   5.146  11.166  0.00  0.00    +0.000 A 
ATOM      6  C   UNL     1      45.421   6.515  10.967  0.00  0.00    +0.000 A 
ATOM      7  C   UNL     1      46.252   7.234  11.832  0.00  0.00    +0.000 A 
BRANCH   5   8
ATOM      8  C   UNL     1      44.355   4.349  10.198  0.00  0.00    +0.000 C 
BRANCH   8   9
ATOM      9  C   UNL     1      45.100   3.593   9.120  0.00  0.00    +0.000 A 
ATOM     10  C   UNL     1      45.259   2.209   9.191  0.00  0.00    +0.000 A 
ATOM     11  C   UNL     1      46.055   1.567   8.245  0.00  0.00    +0.000 A 
ATOM     12  C   UNL     1      46.676   2.317   7.256  0.00  0.00    +0.000 A 
ATOM     13  C   UNL     1      46.462   3.683   7.245  0.00  0.00    +0.000 A 
ATOM     14  N   UNL     1      45.695   4.334   8.149  0.00  0.00    +0.000 NA
ENDBRANCH   8   9
ENDBRANCH   5   8
ENDBRANCH   1   2
BRANCH   1  15
ATOM     15  N   UNL     1      47.862   6.686  15.147  0.00  0.00    +0.000 N 
ATOM     16  C   UNL     1      49.011   6.427  15.849  0.00  0.00    +0.000 C 
ATOM     17  O   UNL     1      50.131   6.643  15.398  0.00  0.00    +0.000 OA
ATOM     18  H   UNL     1      46.969   6.578  15.609  0.00  0.00    +0.000 HD
BRANCH  16  19
ATOM     19  C   UNL     1      48.819   5.818  17.170  0.00  0.00    +0.000 A 
ATOM     20  C   UNL     1      49.058   4.464  17.368  0.00  0.00    +0.000 A 
ATOM     21  S   UNL     1      48.675   3.934  18.946  0.00  0.00    +0.000 S 
ATOM     22  C   UNL     1      48.224   5.503  19.428  0.00  0.00    +0.000 A 
ATOM     23  N   UNL     1      47.759   5.752  20.682  0.00  0.00    +0.000 NA
ATOM     24  C   UNL     1      47.474   6.991  20.910  0.00  0.00    +0.000 A 
ATOM     25  N   UNL     1      47.632   8.009  20.007  0.00  0.00    +0.000 N 
ATOM     26  C   UNL     1      48.112   7.807  18.735  0.00  0.00    +0.000 A 
ATOM     27  O   UNL     1      48.268   8.744  17.964  0.00  0.00    +0.000 OA
ATOM     28  C   UNL     1      48.393   6.422  18.410  0.00  0.00    +0.000 A 
ATOM     29  H   UNL     1      47.409   8.962  20.249  0.00  0.00    +0.000 HD
ENDBRANCH  16  19
ENDBRANCH   1  15
BRANCH   1  30
ATOM     30  C   UNL     1      47.456   8.863  13.987  0.00  0.00    +0.000 C 
BRANCH  30  31
ATOM     31  N   UNL     1      48.206   9.573  15.032  0.00  0.00    +0.000 NA
ATOM     32  H   UNL     1      48.410   8.921  15.791  0.00  0.00    +0.000 HD
ATOM     33  H   UNL     1      47.614  10.300  15.435  0.00  0.00    +0.000 HD
ENDBRANCH  30  31
ENDBRANCH   1  30
TORSDOF 7
ENDMDL
MODEL 4
REMARK VINA RESULT:    -7.555      2.684      4.631
REMARK INTER + INTRA:         -11.336
REMARK INTER:                  -9.913
REMARK INTRA:                  -1.423
REMARK UNBOUND:                -0.910
REMARK  Name = 
REMARK  7 active torsions:
REMARK  status: ('A' for Active; 'I' for Inactive)
REMARK    1  A    between atoms: N_1  and  C_2
REMARK    2  A    between atoms: C_2  and  C_3
REMARK    3  A    between atoms: C_3  and  N_4
REMARK    4  A    between atoms: C_3  and  C_17
REMARK    5  A    between atoms: C_5  and  C_7
REMARK    6  A    between atoms: C_20  and  C_21
REMARK    7  A    between atoms: C_21  and  C_22
REMARK                            x       y       z     vdW  Elec       q    Type
REMARK                         _______ _______ _______ _____ _____    ______ ____
ROOT
ATOM      1  C   UNL     1      46.974   5.681  14.187  0.00  0.00    +0.000 C 
ENDROOT
BRANCH   1   2
ATOM      2  C   UNL     1      46.269   5.231  12.908  0.00  0.00    +0.000 A 
ATOM      3  C   UNL     1      45.603   4.000  12.881  0.00  0.00    +0.000 A 
ATOM      4  C   UNL     1      45.013   3.532  11.704  0.00  0.00    +0.000 A 
ATOM      5  C   UNL     1      45.049   4.295  10.529  0.00  0.00    +0.000 A 
ATOM      6  C   UNL     1      45.678   5.546  10.562  0.00  0.00    +0.000 A 
ATOM      7  C   UNL     1      46.287   6.004  11.734  0.00  0.00    +0.000 A 
BRANCH   5   8
ATOM      8  C   UNL     1      44.442   3.768   9.247  0.00  0.00    +0.000 C 
BRANCH   8   9
ATOM      9  C   UNL     1      45.389   3.070   8.295  0.00  0.00    +0.000 A 
ATOM     10  C   UNL     1      45.800   1.757   8.522  0.00  0.00    +0.000 A 
ATOM     11  C   UNL     1      46.766   1.194   7.691  0.00  0.00    +0.000 A 
ATOM     12  C   UNL     1      47.303   1.951   6.660  0.00  0.00    +0.000 A 
ATOM     13  C   UNL     1      46.837   3.242   6.491  0.00  0.00    +0.000 A 
ATOM     14  N   UNL     1      45.901   3.816   7.280  0.00  0.00    +0.000 NA
ENDBRANCH   8   9
ENDBRANCH   5   8
ENDBRANCH   1   2
BRANCH   1  15
ATOM     15  N   UNL     1      48.163   6.444  13.832  0.00  0.00    +0.000 N 
ATOM     16  C   UNL     1      48.791   7.323  14.677  0.00  0.00    +0.000 C 
ATOM     17  O   UNL     1      48.341   7.626  15.777  0.00  0.00    +0.000 OA
ATOM     18  H   UNL     1      48.631   6.160  12.982  0.00  0.00    +0.000 HD
BRANCH  16  19
ATOM     19  C   UNL     1      50.022   7.928  14.156  0.00  0.00    +0.000 A 
ATOM     20  C   UNL     1      51.244   7.686  14.769  0.00  0.00    +0.000 A 
ATOM     21  S   UNL     1      52.534   8.564  14.075  0.00  0.00    +0.000 S 
ATOM     22  C   UNL     1      51.511   9.256  12.903  0.00  0.00    +0.000 A 
ATOM     23  N   UNL     1      51.982  10.147  11.990  0.00  0.00    +0.000 NA
ATOM     24  C   UNL     1      51.096  10.573  11.153  0.00  0.00    +0.000 A 
ATOM     25  N   UNL     1      49.785  10.174  11.130  0.00  0.00    +0.000 N 
ATOM     26  C   UNL     1      49.269   9.265  12.023  0.00  0.00    +0.000 A 
ATOM     27  O   UNL     1      48.101   8.909  11.956  0.00  0.00    +0.000 OA
ATOM     28  C   UNL     1      50.212   8.800  13.021  0.00  0.00    +0.000 A 
ATOM     29  H   UNL     1      49.142  10.529  10.439  0.00  0.00    +0.000 HD
ENDBRANCH  16  19
ENDBRANCH   1  15
BRANCH   1  30
ATOM     30  C   UNL     1      47.309   4.479  15.122  0.00  0.00    +0.000 C 
BRANCH  30  31
ATOM     31  N   UNL     1      47.178   4.785  16.554  0.00  0.00    +0.000 NA
ATOM     32  H   UNL     1      47.083   3.910  17.070  0.00  0.00    +0.000 HD
ATOM     33  H   UNL     1      46.311   5.300  16.709  0.00  0.00    +0.000 HD
ENDBRANCH  30  31
ENDBRANCH   1  30
TORSDOF 7
ENDMDL
MODEL 5
REMARK VINA RESULT:    -7.390      1.573      2.029
REMARK INTER + INTRA:         -11.109
REMARK INTER:                  -9.862
REMARK INTRA:                  -1.247
REMARK UNBOUND:                -0.910
REMARK  Name = 
REMARK  7 active torsions:
REMARK  status: ('A' for Active; 'I' for Inactive)
REMARK    1  A    between atoms: N_1  and  C_2
REMARK    2  A    between atoms: C_2  and  C_3
REMARK    3  A    between atoms: C_3  and  N_4
REMARK    4  A    between atoms: C_3  and  C_17
REMARK    5  A    between atoms: C_5  and  C_7
REMARK    6  A    between atoms: C_20  and  C_21
REMARK    7  A    between atoms: C_21  and  C_22
REMARK                            x       y       z     vdW  Elec       q    Type
REMARK                         _______ _______ _______ _____ _____    ______ ____
ROOT
ATOM      1  C   UNL     1      47.658   8.092  13.535  0.00  0.00    +0.000 C 
ENDROOT
BRANCH   1   2
ATOM      2  C   UNL     1      46.693   7.223  12.729  0.00  0.00    +0.000 A 
ATOM      3  C   UNL     1      46.926   5.847  12.619  0.00  0.00    +0.000 A 
ATOM      4  C   UNL     1      46.101   5.043  11.827  0.00  0.00    +0.000 A 
ATOM      5  C   UNL     1      45.004   5.589  11.146  0.00  0.00    +0.000 A 
ATOM      6  C   UNL     1      44.742   6.957  11.287  0.00  0.00    +0.000 A 
ATOM      7  C   UNL     1      45.581   7.765  12.061  0.00  0.00    +0.000 A 
BRANCH   5   8
ATOM      8  C   UNL     1      44.136   4.721  10.260  0.00  0.00    +0.000 C 
BRANCH   8   9
ATOM      9  C   UNL     1      44.864   3.834   9.273  0.00  0.00    +0.000 A 
ATOM     10  C   UNL     1      44.915   2.452   9.449  0.00  0.00    +0.000 A 
ATOM     11  C   UNL     1      45.695   1.684   8.588  0.00  0.00    +0.000 A 
ATOM     12  C   UNL     1      46.410   2.311   7.577  0.00  0.00    +0.000 A 
ATOM     13  C   UNL     1      46.300   3.685   7.459  0.00  0.00    +0.000 A 
ATOM     14  N   UNL     1      45.551   4.455   8.278  0.00  0.00    +0.000 NA
ENDBRANCH   8   9
ENDBRANCH   5   8
ENDBRANCH   1   2
BRANCH   1  15
ATOM     15  N   UNL     1      47.870   7.481  14.841  0.00  0.00    +0.000 N 
ATOM     16  C   UNL     1      49.106   7.230  15.378  0.00  0.00    +0.000 C 
ATOM     17  O   UNL     1      50.150   7.402  14.757  0.00  0.00    +0.000 OA
ATOM     18  H   UNL     1      47.054   7.414  15.433  0.00  0.00    +0.000 HD
BRANCH  16  19
ATOM     19  C   UNL     1      49.103   6.688  16.741  0.00  0.00    +0.000 A 
ATOM     20  C   UNL     1      49.555   7.452  17.809  0.00  0.00    +0.000 A 
ATOM     21  S   UNL     1      49.568   6.602  19.290  0.00  0.00    +0.000 S 
ATOM     22  C   UNL     1      48.924   5.204  18.563  0.00  0.00    +0.000 A 
ATOM     23  N   UNL     1      48.708   4.069  19.280  0.00  0.00    +0.000 NA
ATOM     24  C   UNL     1      48.199   3.096  18.599  0.00  0.00    +0.000 A 
ATOM     25  N   UNL     1      47.866   3.160  17.271  0.00  0.00    +0.000 N 
ATOM     26  C   UNL     1      48.053   4.290  16.512  0.00  0.00    +0.000 A 
ATOM     27  O   UNL     1      47.716   4.322  15.336  0.00  0.00    +0.000 OA
ATOM     28  C   UNL     1      48.675   5.393  17.217  0.00  0.00    +0.000 A 
ATOM     29  H   UNL     1      47.453   2.371  16.797  0.00  0.00    +0.000 HD
ENDBRANCH  16  19
ENDBRANCH   1  15
BRANCH   1  30
ATOM     30  C   UNL     1      47.159   9.563  13.653  0.00  0.00    +0.000 C 
BRANCH  30  31
ATOM     31  N   UNL     1      48.224  10.566  13.512  0.00  0.00    +0.000 NA
ATOM     32  H   UNL     1      49.127  10.091  13.530  0.00  0.00    +0.000 HD
ATOM     33  H   UNL     1      48.214  11.184  14.325  0.00  0.00    +0.000 HD
ENDBRANCH  30  31
ENDBRANCH   1  30
TORSDOF 7
ENDMDL
MODEL 6
REMARK VINA RESULT:    -7.218      3.243      7.843
REMARK INTER + INTRA:         -10.871
REMARK INTER:                  -9.511
REMARK INTRA:                  -1.360
REMARK UNBOUND:                -0.910
REMARK  Name = 
REMARK  7 active torsions:
REMARK  status: ('A' for Active; 'I' for Inactive)
REMARK    1  A    between atoms: N_1  and  C_2
REMARK    2  A    between atoms: C_2  and  C_3
REMARK    3  A    between atoms: C_3  and  N_4
REMARK    4  A    between atoms: C_3  and  C_17
REMARK    5  A    between atoms: C_5  and  C_7
REMARK    6  A    between atoms: C_20  and  C_21
REMARK    7  A    between atoms: C_21  and  C_22
REMARK                            x       y       z     vdW  Elec       q    Type
REMARK                         _______ _______ _______ _____ _____    ______ ____
ROOT
ATOM      1  C   UNL     1      48.117   7.336  13.376  0.00  0.00    +0.000 C 
ENDROOT
BRANCH   1   2
ATOM      2  C   UNL     1      48.548   6.671  14.683  0.00  0.00    +0.000 A 
ATOM      3  C   UNL     1      49.722   7.090  15.320  0.00  0.00    +0.000 A 
ATOM      4  C   UNL     1      50.177   6.449  16.476  0.00  0.00    +0.000 A 
ATOM      5  C   UNL     1      49.454   5.390  17.042  0.00  0.00    +0.000 A 
ATOM      6  C   UNL     1      48.257   4.994  16.433  0.00  0.00    +0.000 A 
ATOM      7  C   UNL     1      47.814   5.621  15.264  0.00  0.00    +0.000 A 
BRANCH   5   8
ATOM      8  C   UNL     1      49.969   4.674  18.272  0.00  0.00    +0.000 C 
BRANCH   8   9
ATOM      9  C   UNL     1      50.985   3.578  18.033  0.00  0.00    +0.000 A 
ATOM     10  C   UNL     1      50.622   2.384  17.411  0.00  0.00    +0.000 A 
ATOM     11  C   UNL     1      51.555   1.354  17.320  0.00  0.00    +0.000 A 
ATOM     12  C   UNL     1      52.823   1.535  17.852  0.00  0.00    +0.000 A 
ATOM     13  C   UNL     1      53.112   2.751  18.444  0.00  0.00    +0.000 A 
ATOM     14  N   UNL     1      52.228   3.769  18.547  0.00  0.00    +0.000 NA
ENDBRANCH   8   9
ENDBRANCH   5   8
ENDBRANCH   1   2
BRANCH   1  15
ATOM     15  N   UNL     1      47.350   6.382  12.587  0.00  0.00    +0.000 N 
ATOM     16  C   UNL     1      46.322   6.731  11.749  0.00  0.00    +0.000 C 
ATOM     17  O   UNL     1      45.885   7.875  11.671  0.00  0.00    +0.000 OA
ATOM     18  H   UNL     1      47.730   5.447  12.535  0.00  0.00    +0.000 HD
BRANCH  16  19
ATOM     19  C   UNL     1      45.734   5.629  10.980  0.00  0.00    +0.000 A 
ATOM     20  C   UNL     1      45.890   5.565   9.602  0.00  0.00    +0.000 A 
ATOM     21  S   UNL     1      45.042   4.267   8.885  0.00  0.00    +0.000 S 
ATOM     22  C   UNL     1      44.481   3.721  10.397  0.00  0.00    +0.000 A 
ATOM     23  N   UNL     1      43.660   2.641  10.499  0.00  0.00    +0.000 NA
ATOM     24  C   UNL     1      43.331   2.332  11.710  0.00  0.00    +0.000 A 
ATOM     25  N   UNL     1      43.765   2.992  12.830  0.00  0.00    +0.000 N 
ATOM     26  C   UNL     1      44.605   4.078  12.775  0.00  0.00    +0.000 A 
ATOM     27  O   UNL     1      44.996   4.625  13.798  0.00  0.00    +0.000 OA
ATOM     28  C   UNL     1      44.958   4.499  11.434  0.00  0.00    +0.000 A 
ATOM     29  H   UNL     1      43.488   2.693  13.753  0.00  0.00    +0.000 HD
ENDBRANCH  16  19
ENDBRANCH   1  15
BRANCH   1  30
ATOM     30  C   UNL     1      49.333   7.906  12.584  0.00  0.00    +0.000 C 
BRANCH  30  31
ATOM     31  N   UNL     1      49.004   9.065  11.742  0.00  0.00    +0.000 NA
ATOM     32  H   UNL     1      47.989   9.130  11.655  0.00  0.00    +0.000 HD
ATOM     33  H   UNL     1      49.360   8.907  10.799  0.00  0.00    +0.000 HD
ENDBRANCH  30  31
ENDBRANCH   1  30
TORSDOF 7
ENDMDL
MODEL 7
REMARK VINA RESULT:    -6.860      3.057      8.203
REMARK INTER + INTRA:         -10.377
REMARK INTER:                  -9.305
REMARK INTRA:                  -1.072
REMARK UNBOUND:                -0.910
REMARK  Name = 
REMARK  7 active torsions:
REMARK  status: ('A' for Active; 'I' for Inactive)
REMARK    1  A    between atoms: N_1  and  C_2
REMARK    2  A    between atoms: C_2  and  C_3
REMARK    3  A    between atoms: C_3  and  N_4
REMARK    4  A    between atoms: C_3  and  C_17
REMARK    5  A    between atoms: C_5  and  C_7
REMARK    6  A    between atoms: C_20  and  C_21
REMARK    7  A    between atoms: C_21  and  C_22
REMARK                            x       y       z     vdW  Elec       q    Type
REMARK                         _______ _______ _______ _____ _____    ______ ____
ROOT
ATOM      1  C   UNL     1      47.693   6.998  13.558  0.00  0.00    +0.000 C 
ENDROOT
BRANCH   1   2
ATOM      2  C   UNL     1      48.380   6.488  14.824  0.00  0.00    +0.000 A 
ATOM      3  C   UNL     1      49.619   7.019  15.202  0.00  0.00    +0.000 A 
ATOM      4  C   UNL     1      50.303   6.518  16.314  0.00  0.00    +0.000 A 
ATOM      5  C   UNL     1      49.753   5.492  17.094  0.00  0.00    +0.000 A 
ATOM      6  C   UNL     1      48.495   4.986  16.744  0.00  0.00    +0.000 A 
ATOM      7  C   UNL     1      47.821   5.472  15.619  0.00  0.00    +0.000 A 
BRANCH   5   8
ATOM      8  C   UNL     1      50.514   4.927  18.274  0.00  0.00    +0.000 C 
BRANCH   8   9
ATOM      9  C   UNL     1      51.352   3.696  18.003  0.00  0.00    +0.000 A 
ATOM     10  C   UNL     1      50.776   2.529  17.502  0.00  0.00    +0.000 A 
ATOM     11  C   UNL     1      51.557   1.382  17.382  0.00  0.00    +0.000 A 
ATOM     12  C   UNL     1      52.889   1.423  17.768  0.00  0.00    +0.000 A 
ATOM     13  C   UNL     1      53.391   2.619  18.246  0.00  0.00    +0.000 A 
ATOM     14  N   UNL     1      52.659   3.749  18.373  0.00  0.00    +0.000 NA
ENDBRANCH   8   9
ENDBRANCH   5   8
ENDBRANCH   1   2
BRANCH   1  15
ATOM     15  N   UNL     1      46.797   5.967  13.054  0.00  0.00    +0.000 N 
ATOM     16  C   UNL     1      45.687   6.222  12.291  0.00  0.00    +0.000 C 
ATOM     17  O   UNL     1      45.288   7.357  12.052  0.00  0.00    +0.000 OA
ATOM     18  H   UNL     1      47.131   5.016  13.133  0.00  0.00    +0.000 HD
BRANCH  16  19
ATOM     19  C   UNL     1      44.964   5.037  11.813  0.00  0.00    +0.000 A 
ATOM     20  C   UNL     1      44.111   4.339  12.658  0.00  0.00    +0.000 A 
ATOM     21  S   UNL     1      43.452   2.935  11.943  0.00  0.00    +0.000 S 
ATOM     22  C   UNL     1      44.244   3.242  10.468  0.00  0.00    +0.000 A 
ATOM     23  N   UNL     1      44.130   2.391   9.413  0.00  0.00    +0.000 NA
ATOM     24  C   UNL     1      44.771   2.763   8.355  0.00  0.00    +0.000 A 
ATOM     25  N   UNL     1      45.500   3.918   8.247  0.00  0.00    +0.000 N 
ATOM     26  C   UNL     1      45.631   4.813   9.282  0.00  0.00    +0.000 A 
ATOM     27  O   UNL     1      46.266   5.850   9.141  0.00  0.00    +0.000 OA
ATOM     28  C   UNL     1      44.976   4.413  10.512  0.00  0.00    +0.000 A 
ATOM     29  H   UNL     1      45.965   4.164   7.387  0.00  0.00    +0.000 HD
ENDBRANCH  16  19
ENDBRANCH   1  15
BRANCH   1  30
ATOM     30  C   UNL     1      48.722   7.456  12.480  0.00  0.00    +0.000 C 
BRANCH  30  31
ATOM     31  N   UNL     1      48.318   8.664  11.747  0.00  0.00    +0.000 NA
ATOM     32  H   UNL     1      47.582   9.137  12.273  0.00  0.00    +0.000 HD
ATOM     33  H   UNL     1      47.898   8.392  10.857  0.00  0.00    +0.000 HD
ENDBRANCH  30  31
ENDBRANCH   1  30
TORSDOF 7
ENDMDL
MODEL 8
REMARK VINA RESULT:    -6.477      4.042      5.501
REMARK INTER + INTRA:          -9.848
REMARK INTER:                  -8.635
REMARK INTRA:                  -1.213
REMARK UNBOUND:                -0.910
REMARK  Name = 
REMARK  7 active torsions:
REMARK  status: ('A' for Active; 'I' for Inactive)
REMARK    1  A    between atoms: N_1  and  C_2
REMARK    2  A    between atoms: C_2  and  C_3
REMARK    3  A    between atoms: C_3  and  N_4
REMARK    4  A    between atoms: C_3  and  C_17
REMARK    5  A    between atoms: C_5  and  C_7
REMARK    6  A    between atoms: C_20  and  C_21
REMARK    7  A    between atoms: C_21  and  C_22
REMARK                            x       y       z     vdW  Elec       q    Type
REMARK                         _______ _______ _______ _____ _____    ______ ____
ROOT
ATOM      1  C   UNL     1      47.423   8.793  13.282  0.00  0.00    +0.000 C 
ENDROOT
BRANCH   1   2
ATOM      2  C   UNL     1      46.534   7.739  12.623  0.00  0.00    +0.000 A 
ATOM      3  C   UNL     1      46.954   6.404  12.585  0.00  0.00    +0.000 A 
ATOM      4  C   UNL     1      46.196   5.434  11.924  0.00  0.00    +0.000 A 
ATOM      5  C   UNL     1      44.982   5.768  11.306  0.00  0.00    +0.000 A 
ATOM      6  C   UNL     1      44.538   7.094  11.376  0.00  0.00    +0.000 A 
ATOM      7  C   UNL     1      45.308   8.068  12.019  0.00  0.00    +0.000 A 
BRANCH   5   8
ATOM      8  C   UNL     1      44.183   4.722  10.559  0.00  0.00    +0.000 C 
BRANCH   8   9
ATOM      9  C   UNL     1      44.951   3.874   9.568  0.00  0.00    +0.000 A 
ATOM     10  C   UNL     1      45.599   4.452   8.477  0.00  0.00    +0.000 A 
ATOM     11  C   UNL     1      46.191   3.627   7.522  0.00  0.00    +0.000 A 
ATOM     12  C   UNL     1      46.119   2.250   7.675  0.00  0.00    +0.000 A 
ATOM     13  C   UNL     1      45.469   1.752   8.789  0.00  0.00    +0.000 A 
ATOM     14  N   UNL     1      44.886   2.527   9.732  0.00  0.00    +0.000 NA
ENDBRANCH   8   9
ENDBRANCH   5   8
ENDBRANCH   1   2
BRANCH   1  15
ATOM     15  N   UNL     1      48.534   9.104  12.393  0.00  0.00    +0.000 N 
ATOM     16  C   UNL     1      49.100  10.347  12.277  0.00  0.00    +0.000 C 
ATOM     17  O   UNL     1      48.647  11.340  12.839  0.00  0.00    +0.000 OA
ATOM     18  H   UNL     1      49.008   8.308  11.986  0.00  0.00    +0.000 HD
BRANCH  16  19
ATOM     19  C   UNL     1      50.264  10.430  11.387  0.00  0.00    +0.000 A 
ATOM     20  C   UNL     1      50.327  11.397  10.393  0.00  0.00    +0.000 A 
ATOM     21  S   UNL     1      51.711  11.257   9.402  0.00  0.00    +0.000 S 
ATOM     22  C   UNL     1      52.294   9.933  10.300  0.00  0.00    +0.000 A 
ATOM     23  N   UNL     1      53.449   9.301   9.960  0.00  0.00    +0.000 NA
ATOM     24  C   UNL     1      53.775   8.326  10.743  0.00  0.00    +0.000 A 
ATOM     25  N   UNL     1      53.063   7.939  11.848  0.00  0.00    +0.000 N 
ATOM     26  C   UNL     1      51.900   8.558  12.237  0.00  0.00    +0.000 A 
ATOM     27  O   UNL     1      51.305   8.205  13.247  0.00  0.00    +0.000 OA
ATOM     28  C   UNL     1      51.460   9.623  11.357  0.00  0.00    +0.000 A 
ATOM     29  H   UNL     1      53.378   7.180  12.433  0.00  0.00    +0.000 HD
ENDBRANCH  16  19
ENDBRANCH   1  15
BRANCH   1  30
ATOM     30  C   UNL     1      47.912   8.344  14.692  0.00  0.00    +0.000 C 
BRANCH  30  31
ATOM     31  N   UNL     1      47.544   9.271  15.772  0.00  0.00    +0.000 NA
ATOM     32  H   UNL     1      46.931   8.785  16.428  0.00  0.00    +0.000 HD
ATOM     33  H   UNL     1      46.993  10.038  15.384  0.00  0.00    +0.000 HD
ENDBRANCH  30  31
ENDBRANCH   1  30
TORSDOF 7
ENDMDL
MODEL 9
REMARK VINA RESULT:    -6.346      2.943      8.619
REMARK INTER + INTRA:          -9.667
REMARK INTER:                  -8.774
REMARK INTRA:                  -0.893
REMARK UNBOUND:                -0.910
REMARK  Name = 
REMARK  7 active torsions:
REMARK  status: ('A' for Active; 'I' for Inactive)
REMARK    1  A    between atoms: N_1  and  C_2
REMARK    2  A    between atoms: C_2  and  C_3
REMARK    3  A    between atoms: C_3  and  N_4
REMARK    4  A    between atoms: C_3  and  C_17
REMARK    5  A    between atoms: C_5  and  C_7
REMARK    6  A    between atoms: C_20  and  C_21
REMARK    7  A    between atoms: C_21  and  C_22
REMARK                            x       y       z     vdW  Elec       q    Type
REMARK                         _______ _______ _______ _____ _____    ______ ____
ROOT
ATOM      1  C   UNL     1      47.858   7.806  12.486  0.00  0.00    +0.000 C 
ENDROOT
BRANCH   1   2
ATOM      2  C   UNL     1      48.403   7.855  13.913  0.00  0.00    +0.000 A 
ATOM      3  C   UNL     1      48.439   6.686  14.681  0.00  0.00    +0.000 A 
ATOM      4  C   UNL     1      48.864   6.718  16.013  0.00  0.00    +0.000 A 
ATOM      5  C   UNL     1      49.289   7.916  16.603  0.00  0.00    +0.000 A 
ATOM      6  C   UNL     1      49.294   9.081  15.826  0.00  0.00    +0.000 A 
ATOM      7  C   UNL     1      48.848   9.052  14.501  0.00  0.00    +0.000 A 
BRANCH   5   8
ATOM      8  C   UNL     1      49.712   7.953  18.056  0.00  0.00    +0.000 C 
BRANCH   8   9
ATOM      9  C   UNL     1      49.087   6.914  18.961  0.00  0.00    +0.000 A 
ATOM     10  C   UNL     1      47.812   7.098  19.495  0.00  0.00    +0.000 A 
ATOM     11  C   UNL     1      47.322   6.179  20.420  0.00  0.00    +0.000 A 
ATOM     12  C   UNL     1      48.114   5.103  20.795  0.00  0.00    +0.000 A 
ATOM     13  C   UNL     1      49.363   4.982  20.214  0.00  0.00    +0.000 A 
ATOM     14  N   UNL     1      49.865   5.857  19.314  0.00  0.00    +0.000 NA
ENDBRANCH   8   9
ENDBRANCH   5   8
ENDBRANCH   1   2
BRANCH   1  15
ATOM     15  N   UNL     1      46.962   6.665  12.358  0.00  0.00    +0.000 N 
ATOM     16  C   UNL     1      45.708   6.732  11.806  0.00  0.00    +0.000 C 
ATOM     17  O   UNL     1      45.186   7.788  11.466  0.00  0.00    +0.000 OA
ATOM     18  H   UNL     1      47.377   5.758  12.527  0.00  0.00    +0.000 HD
BRANCH  16  19
ATOM     19  C   UNL     1      44.999   5.452  11.694  0.00  0.00    +0.000 A 
ATOM     20  C   UNL     1      44.237   4.969  12.749  0.00  0.00    +0.000 A 
ATOM     21  S   UNL     1      43.583   3.419  12.457  0.00  0.00    +0.000 S 
ATOM     22  C   UNL     1      44.255   3.364  10.894  0.00  0.00    +0.000 A 
ATOM     23  N   UNL     1      44.098   2.276  10.094  0.00  0.00    +0.000 NA
ATOM     24  C   UNL     1      44.647   2.385   8.930  0.00  0.00    +0.000 A 
ATOM     25  N   UNL     1      45.321   3.491   8.483  0.00  0.00    +0.000 N 
ATOM     26  C   UNL     1      45.492   4.618   9.251  0.00  0.00    +0.000 A 
ATOM     27  O   UNL     1      46.075   5.599   8.810  0.00  0.00    +0.000 OA
ATOM     28  C   UNL     1      44.942   4.524  10.589  0.00  0.00    +0.000 A 
ATOM     29  H   UNL     1      45.714   3.525   7.555  0.00  0.00    +0.000 HD
ENDBRANCH  16  19
ENDBRANCH   1  15
BRANCH   1  30
ATOM     30  C   UNL     1      49.000   7.774  11.426  0.00  0.00    +0.000 C 
BRANCH  30  31
ATOM     31  N   UNL     1      50.263   7.215  11.929  0.00  0.00    +0.000 NA
ATOM     32  H   UNL     1      50.106   6.246  12.206  0.00  0.00    +0.000 HD
ATOM     33  H   UNL     1      50.536   7.712  12.778  0.00  0.00    +0.000 HD
ENDBRANCH  30  31
ENDBRANCH   1  30
TORSDOF 7
ENDMDL
