MODEL 1
REMARK VINA RESULT:    -8.518      0.000      0.000
REMARK INTER + INTRA:         -12.760
REMARK INTER:                 -11.754
REMARK INTRA:                  -1.006
REMARK UNBOUND:                -1.006
REMARK  Name = 
REMARK  7 active torsions:
REMARK  status: ('A' for Active; 'I' for Inactive)
REMARK    1  A    between atoms: C_2  and  C_21
REMARK    2  A    between atoms: N_3  and  C_4
REMARK    3  A    between atoms: C_4  and  C_5
REMARK    4  A    between atoms: N_9  and  C_10
REMARK    5  A    between atoms: C_10  and  C_11
REMARK    6  A    between atoms: C_11  and  O_12
REMARK    7  A    between atoms: C_11  and  C_13
REMARK                            x       y       z     vdW  Elec       q    Type
REMARK                         _______ _______ _______ _____ _____    ______ ____
ROOT
ATOM      1  C   UNL     1      45.658   5.882  12.434  0.00  0.00    +0.000 A 
ATOM      2  C   UNL     1      46.850   6.512  12.781  0.00  0.00    +0.000 A 
ATOM      3  C   UNL     1      47.553   6.078  13.903  0.00  0.00    +0.000 A 
ATOM      4  C   UNL     1      47.075   5.003  14.648  0.00  0.00    +0.000 A 
ATOM      5  N   UNL     1      47.890   4.523  15.673  0.00  0.00    +0.000 N 
ATOM      6  N   UNL     1      45.922   4.386  14.329  0.00  0.00    +0.000 NA
ATOM      7  C   UNL     1      45.236   4.840  13.251  0.00  0.00    +0.000 A 
ATOM      8  H   UNL     1      48.082   5.250  16.360  0.00  0.00    +0.000 HD
ENDROOT
BRANCH   1   9
ATOM      9  C   UNL     1      44.908   6.264  11.196  0.00  0.00    +0.000 C 
BRANCH   9  12
ATOM     10  O   UNL     1      43.922   4.046   9.766  0.00  0.00    +0.000 OA
ATOM     11  C   UNL     1      44.986   4.555   9.427  0.00  0.00    +0.000 C 
ATOM     12  N   UNL     1      45.507   5.680  10.024  0.00  0.00    +0.000 N 
ATOM     13  H   UNL     1      46.420   5.981   9.691  0.00  0.00    +0.000 HD
BRANCH  11  14
ATOM     14  C   UNL     1      45.858   3.991   8.385  0.00  0.00    +0.000 A 
ATOM     15  N   UNL     1      46.640   4.782   7.612  0.00  0.00    +0.000 NA
ATOM     16  N   UNL     1      47.356   3.901   6.881  0.00  0.00    +0.000 N 
ATOM     17  C   UNL     1      47.085   2.596   7.160  0.00  0.00    +0.000 A 
ATOM     18  N   UNL     1      47.703   1.523   6.630  0.00  0.00    +0.000 NA
ATOM     19  C   UNL     1      47.219   0.355   7.113  0.00  0.00    +0.000 A 
ATOM     20  C   UNL     1      46.176   0.222   8.023  0.00  0.00    +0.000 A 
ATOM     21  C   UNL     1      45.569   1.371   8.534  0.00  0.00    +0.000 A 
ATOM     22  C   UNL     1      46.066   2.610   8.098  0.00  0.00    +0.000 A 
ATOM     23  H   UNL     1      48.040   4.243   6.217  0.00  0.00    +0.000 HD
ENDBRANCH  11  14
ENDBRANCH   9  12
ENDBRANCH   1   9
BRANCH   5  24
ATOM     24  C   UNL     1      47.486   3.267  16.314  0.00  0.00    +0.000 C 
BRANCH  24  25
ATOM     25  C   UNL     1      48.710   2.676  17.041  0.00  0.00    +0.000 C 
BRANCH  25  26
ATOM     26  C   UNL     1      49.553   3.754  17.691  0.00  0.00    +0.000 A 
ATOM     27  C   UNL     1      49.273   4.192  18.984  0.00  0.00    +0.000 A 
ATOM     28  C   UNL     1      50.081   5.168  19.555  0.00  0.00    +0.000 A 
ATOM     29  C   UNL     1      51.150   5.683  18.823  0.00  0.00    +0.000 A 
ATOM     30  C   UNL     1      51.360   5.195  17.545  0.00  0.00    +0.000 A 
ATOM     31  N   UNL     1      50.593   4.247  16.963  0.00  0.00    +0.000 NA
ENDBRANCH  25  26
BRANCH  25  32
ATOM     32  O   UNL     1      49.506   1.937  16.090  0.00  0.00    +0.000 OA
ATOM     33  H   UNL     1      50.177   2.582  15.781  0.00  0.00    +0.000 HD
ENDBRANCH  25  32
ENDBRANCH  24  25
ENDBRANCH   5  24
TORSDOF 7
ENDMDL
MODEL 2
REMARK VINA RESULT:    -7.993      2.226      9.008
REMARK INTER + INTRA:         -12.036
REMARK INTER:                 -11.237
REMARK INTRA:                  -0.799
REMARK UNBOUND:                -1.006
REMARK  Name = 
REMARK  7 active torsions:
REMARK  status: ('A' for Active; 'I' for Inactive)
REMARK    1  A    between atoms: C_2  and  C_21
REMARK    2  A    between atoms: N_3  and  C_4
REMARK    3  A    between atoms: C_4  and  C_5
REMARK    4  A    between atoms: N_9  and  C_10
REMARK    5  A    between atoms: C_10  and  C_11
REMARK    6  A    between atoms: C_11  and  O_12
REMARK    7  A    between atoms: C_11  and  C_13
REMARK                            x       y       z     vdW  Elec       q    Type
REMARK                         _______ _______ _______ _____ _____    ______ ____
ROOT
ATOM      1  C   UNL     1      46.791   8.002  13.074  0.00  0.00    +0.000 A 
ATOM      2  C   UNL     1      45.607   8.432  12.483  0.00  0.00    +0.000 A 
ATOM      3  C   UNL     1      44.919   7.578  11.624  0.00  0.00    +0.000 A 
ATOM      4  C   UNL     1      45.406   6.294  11.388  0.00  0.00    +0.000 A 
ATOM      5  N   UNL     1      44.605   5.436  10.634  0.00  0.00    +0.000 N 
ATOM      6  N   UNL     1      46.552   5.865  11.947  0.00  0.00    +0.000 NA
ATOM      7  C   UNL     1      47.223   6.720  12.757  0.00  0.00    +0.000 A 
ATOM      8  H   UNL     1      44.426   5.820   9.708  0.00  0.00    +0.000 HD
ENDROOT
BRANCH   1   9
ATOM      9  C   UNL     1      47.523   8.858  14.060  0.00  0.00    +0.000 C 
BRANCH   9  12
ATOM     10  O   UNL     1      50.145   8.191  14.850  0.00  0.00    +0.000 OA
ATOM     11  C   UNL     1      49.194   7.772  15.506  0.00  0.00    +0.000 C 
ATOM     12  N   UNL     1      47.887   8.105  15.233  0.00  0.00    +0.000 N 
ATOM     13  H   UNL     1      47.182   7.658  15.813  0.00  0.00    +0.000 HD
BRANCH  11  14
ATOM     14  C   UNL     1      49.334   6.823  16.620  0.00  0.00    +0.000 A 
ATOM     15  N   UNL     1      50.060   7.126  17.722  0.00  0.00    +0.000 NA
ATOM     16  N   UNL     1      49.849   6.073  18.540  0.00  0.00    +0.000 N 
ATOM     17  C   UNL     1      49.016   5.126  18.025  0.00  0.00    +0.000 A 
ATOM     18  N   UNL     1      48.585   4.017  18.655  0.00  0.00    +0.000 NA
ATOM     19  C   UNL     1      47.755   3.274  17.886  0.00  0.00    +0.000 A 
ATOM     20  C   UNL     1      47.389   3.559  16.575  0.00  0.00    +0.000 A 
ATOM     21  C   UNL     1      47.873   4.721  15.972  0.00  0.00    +0.000 A 
ATOM     22  C   UNL     1      48.702   5.551  16.744  0.00  0.00    +0.000 A 
ATOM     23  H   UNL     1      50.281   6.058  19.456  0.00  0.00    +0.000 HD
ENDBRANCH  11  14
ENDBRANCH   9  12
ENDBRANCH   1   9
BRANCH   5  24
ATOM     24  C   UNL     1      45.015   4.030  10.565  0.00  0.00    +0.000 C 
BRANCH  24  25
ATOM     25  C   UNL     1      44.427   3.413   9.280  0.00  0.00    +0.000 C 
BRANCH  25  26
ATOM     26  C   UNL     1      45.499   2.775   8.421  0.00  0.00    +0.000 A 
ATOM     27  C   UNL     1      46.248   3.544   7.532  0.00  0.00    +0.000 A 
ATOM     28  C   UNL     1      47.237   2.927   6.775  0.00  0.00    +0.000 A 
ATOM     29  C   UNL     1      47.456   1.558   6.924  0.00  0.00    +0.000 A 
ATOM     30  C   UNL     1      46.669   0.867   7.828  0.00  0.00    +0.000 A 
ATOM     31  N   UNL     1      45.701   1.437   8.578  0.00  0.00    +0.000 NA
ENDBRANCH  25  26
BRANCH  25  32
ATOM     32  O   UNL     1      43.750   4.448   8.534  0.00  0.00    +0.000 OA
ATOM     33  H   UNL     1      44.213   5.273   8.789  0.00  0.00    +0.000 HD
ENDBRANCH  25  32
ENDBRANCH  24  25
ENDBRANCH   5  24
TORSDOF 7
ENDMDL
MODEL 3
REMARK VINA RESULT:    -7.954      2.084      9.618
REMARK INTER + INTRA:         -11.983
REMARK INTER:                 -11.380
REMARK INTRA:                  -0.604
REMARK UNBOUND:                -1.006
REMARK  Name = 
REMARK  7 active torsions:
REMARK  status: ('A' for Active; 'I' for Inactive)
REMARK    1  A    between atoms: C_2  and  C_21
REMARK    2  A    between atoms: N_3  and  C_4
REMARK    3  A    between atoms: C_4  and  C_5
REMARK    4  A    between atoms: N_9  and  C_10
REMARK    5  A    between atoms: C_10  and  C_11
REMARK    6  A    between atoms: C_11  and  O_12
REMARK    7  A    between atoms: C_11  and  C_13
REMARK                            x       y       z     vdW  Elec       q    Type
REMARK                         _______ _______ _______ _____ _____    ______ ____
ROOT
ATOM      1  C   UNL     1      47.290   7.376  13.441  0.00  0.00    +0.000 A 
ATOM      2  C   UNL     1      46.307   8.056  12.727  0.00  0.00    +0.000 A 
ATOM      3  C   UNL     1      45.532   7.364  11.799  0.00  0.00    +0.000 A 
ATOM      4  C   UNL     1      45.726   5.997  11.616  0.00  0.00    +0.000 A 
ATOM      5  N   UNL     1      44.829   5.331  10.781  0.00  0.00    +0.000 N 
ATOM      6  N   UNL     1      46.675   5.326  12.295  0.00  0.00    +0.000 NA
ATOM      7  C   UNL     1      47.440   6.020  13.172  0.00  0.00    +0.000 A 
ATOM      8  H   UNL     1      44.842   5.723   9.841  0.00  0.00    +0.000 HD
ENDROOT
BRANCH   1   9
ATOM      9  C   UNL     1      48.095   8.061  14.500  0.00  0.00    +0.000 C 
BRANCH   9  12
ATOM     10  O   UNL     1      50.443   6.782  15.391  0.00  0.00    +0.000 OA
ATOM     11  C   UNL     1      49.392   6.601  15.999  0.00  0.00    +0.000 C 
ATOM     12  N   UNL     1      48.216   7.238  15.676  0.00  0.00    +0.000 N 
ATOM     13  H   UNL     1      47.399   6.971  16.220  0.00  0.00    +0.000 HD
BRANCH  11  14
ATOM     14  C   UNL     1      49.251   5.641  17.105  0.00  0.00    +0.000 A 
ATOM     15  N   UNL     1      49.751   4.386  17.021  0.00  0.00    +0.000 NA
ATOM     16  N   UNL     1      49.525   3.873  18.250  0.00  0.00    +0.000 N 
ATOM     17  C   UNL     1      48.926   4.739  19.113  0.00  0.00    +0.000 A 
ATOM     18  N   UNL     1      48.655   4.509  20.412  0.00  0.00    +0.000 NA
ATOM     19  C   UNL     1      48.064   5.568  21.013  0.00  0.00    +0.000 A 
ATOM     20  C   UNL     1      47.718   6.764  20.396  0.00  0.00    +0.000 A 
ATOM     21  C   UNL     1      48.020   6.944  19.044  0.00  0.00    +0.000 A 
ATOM     22  C   UNL     1      48.675   5.891  18.386  0.00  0.00    +0.000 A 
ATOM     23  H   UNL     1      49.823   2.928  18.458  0.00  0.00    +0.000 HD
ENDBRANCH  11  14
ENDBRANCH   9  12
ENDBRANCH   1   9
BRANCH   5  24
ATOM     24  C   UNL     1      44.902   3.866  10.755  0.00  0.00    +0.000 C 
BRANCH  24  25
ATOM     25  C   UNL     1      44.350   3.374   9.402  0.00  0.00    +0.000 C 
BRANCH  25  26
ATOM     26  C   UNL     1      45.448   2.823   8.514  0.00  0.00    +0.000 A 
ATOM     27  C   UNL     1      46.153   3.661   7.654  0.00  0.00    +0.000 A 
ATOM     28  C   UNL     1      47.167   3.124   6.870  0.00  0.00    +0.000 A 
ATOM     29  C   UNL     1      47.453   1.763   6.964  0.00  0.00    +0.000 A 
ATOM     30  C   UNL     1      46.705   0.998   7.843  0.00  0.00    +0.000 A 
ATOM     31  N   UNL     1      45.715   1.491   8.618  0.00  0.00    +0.000 NA
ENDBRANCH  25  26
BRANCH  25  32
ATOM     32  O   UNL     1      43.689   4.474   8.741  0.00  0.00    +0.000 OA
ATOM     33  H   UNL     1      43.666   5.185   9.416  0.00  0.00    +0.000 HD
ENDBRANCH  25  32
ENDBRANCH  24  25
ENDBRANCH   5  24
TORSDOF 7
ENDMDL
MODEL 4
REMARK VINA RESULT:    -7.881      1.748      2.353
REMARK INTER + INTRA:         -11.882
REMARK INTER:                 -11.123
REMARK INTRA:                  -0.759
REMARK UNBOUND:                -1.006
REMARK  Name = 
REMARK  7 active torsions:
REMARK  status: ('A' for Active; 'I' for Inactive)
REMARK    1  A    between atoms: C_2  and  C_21
REMARK    2  A    between atoms: N_3  and  C_4
REMARK    3  A    between atoms: C_4  and  C_5
REMARK    4  A    between atoms: N_9  and  C_10
REMARK    5  A    between atoms: C_10  and  C_11
REMARK    6  A    between atoms: C_11  and  O_12
REMARK    7  A    between atoms: C_11  and  C_13
REMARK                            x       y       z     vdW  Elec       q    Type
REMARK                         _______ _______ _______ _____ _____    ______ ____
ROOT
ATOM      1  C   UNL     1      45.350   6.535  12.139  0.00  0.00    +0.000 A 
ATOM      2  C   UNL     1      45.465   7.898  12.395  0.00  0.00    +0.000 A 
ATOM      3  C   UNL     1      46.446   8.350  13.275  0.00  0.00    +0.000 A 
ATOM      4  C   UNL     1      47.320   7.441  13.865  0.00  0.00    +0.000 A 
ATOM      5  N   UNL     1      48.369   7.962  14.622  0.00  0.00    +0.000 N 
ATOM      6  N   UNL     1      47.220   6.119  13.632  0.00  0.00    +0.000 NA
ATOM      7  C   UNL     1      46.241   5.694  12.796  0.00  0.00    +0.000 A 
ATOM      8  H   UNL     1      48.018   8.524  15.396  0.00  0.00    +0.000 HD
ENDROOT
BRANCH   1   9
ATOM      9  C   UNL     1      44.361   6.011  11.146  0.00  0.00    +0.000 C 
BRANCH   9  12
ATOM     10  O   UNL     1      43.853   3.529   9.912  0.00  0.00    +0.000 OA
ATOM     11  C   UNL     1      44.751   4.244   9.476  0.00  0.00    +0.000 C 
ATOM     12  N   UNL     1      45.021   5.499   9.973  0.00  0.00    +0.000 N 
ATOM     13  H   UNL     1      45.821   5.977   9.566  0.00  0.00    +0.000 HD
BRANCH  11  14
ATOM     14  C   UNL     1      45.679   3.825   8.415  0.00  0.00    +0.000 A 
ATOM     15  N   UNL     1      46.377   4.728   7.687  0.00  0.00    +0.000 NA
ATOM     16  N   UNL     1      47.182   3.962   6.920  0.00  0.00    +0.000 N 
ATOM     17  C   UNL     1      47.046   2.624   7.134  0.00  0.00    +0.000 A 
ATOM     18  N   UNL     1      47.772   1.647   6.558  0.00  0.00    +0.000 NA
ATOM     19  C   UNL     1      47.410   0.413   6.981  0.00  0.00    +0.000 A 
ATOM     20  C   UNL     1      46.384   0.130   7.875  0.00  0.00    +0.000 A 
ATOM     21  C   UNL     1      45.660   1.184   8.436  0.00  0.00    +0.000 A 
ATOM     22  C   UNL     1      46.028   2.487   8.064  0.00  0.00    +0.000 A 
ATOM     23  H   UNL     1      47.829   4.404   6.279  0.00  0.00    +0.000 HD
ENDBRANCH  11  14
ENDBRANCH   9  12
ENDBRANCH   1   9
BRANCH   5  24
ATOM     24  C   UNL     1      49.404   7.022  15.064  0.00  0.00    +0.000 C 
BRANCH  24  25
ATOM     25  C   UNL     1      49.260   6.818  16.586  0.00  0.00    +0.000 C 
BRANCH  25  26
ATOM     26  C   UNL     1      48.983   5.370  16.936  0.00  0.00    +0.000 A 
ATOM     27  C   UNL     1      47.674   4.903  17.036  0.00  0.00    +0.000 A 
ATOM     28  C   UNL     1      47.458   3.563  17.338  0.00  0.00    +0.000 A 
ATOM     29  C   UNL     1      48.554   2.723  17.532  0.00  0.00    +0.000 A 
ATOM     30  C   UNL     1      49.821   3.266  17.415  0.00  0.00    +0.000 A 
ATOM     31  N   UNL     1      50.063   4.562  17.122  0.00  0.00    +0.000 NA
ENDBRANCH  25  26
BRANCH  25  32
ATOM     32  O   UNL     1      48.187   7.655  17.069  0.00  0.00    +0.000 OA
ATOM     33  H   UNL     1      47.388   7.093  16.993  0.00  0.00    +0.000 HD
ENDBRANCH  25  32
ENDBRANCH  24  25
ENDBRANCH   5  24
TORSDOF 7
ENDMDL
MODEL 5
REMARK VINA RESULT:    -7.593      1.750      9.404
REMARK INTER + INTRA:         -11.485
REMARK INTER:                 -10.833
REMARK INTRA:                  -0.652
REMARK UNBOUND:                -1.006
REMARK  Name = 
REMARK  7 active torsions:
REMARK  status: ('A' for Active; 'I' for Inactive)
REMARK    1  A    between atoms: C_2  and  C_21
REMARK    2  A    between atoms: N_3  and  C_4
REMARK    3  A    between atoms: C_4  and  C_5
REMARK    4  A    between atoms: N_9  and  C_10
REMARK    5  A    between atoms: C_10  and  C_11
REMARK    6  A    between atoms: C_11  and  O_12
REMARK    7  A    between atoms: C_11  and  C_13
REMARK                            x       y       z     vdW  Elec       q    Type
REMARK                         _______ _______ _______ _____ _____    ______ ____
ROOT
ATOM      1  C   UNL     1      46.588   5.197  14.146  0.00  0.00    +0.000 A 
ATOM      2  C   UNL     1      45.965   6.222  13.440  0.00  0.00    +0.000 A 
ATOM      3  C   UNL     1      45.369   5.944  12.211  0.00  0.00    +0.000 A 
ATOM      4  C   UNL     1      45.376   4.642  11.717  0.00  0.00    +0.000 A 
ATOM      5  N   UNL     1      44.644   4.396  10.555  0.00  0.00    +0.000 N 
ATOM      6  N   UNL     1      45.979   3.641  12.385  0.00  0.00    +0.000 NA
ATOM      7  C   UNL     1      46.579   3.935  13.564  0.00  0.00    +0.000 A 
ATOM      8  H   UNL     1      44.979   4.969   9.782  0.00  0.00    +0.000 HD
ENDROOT
BRANCH   1   9
ATOM      9  C   UNL     1      47.175   5.433  15.503  0.00  0.00    +0.000 C 
BRANCH   9  12
ATOM     10  O   UNL     1      46.985   3.140  17.130  0.00  0.00    +0.000 OA
ATOM     11  C   UNL     1      48.070   3.441  16.639  0.00  0.00    +0.000 C 
ATOM     12  N   UNL     1      48.239   4.502  15.779  0.00  0.00    +0.000 N 
ATOM     13  H   UNL     1      49.192   4.684  15.476  0.00  0.00    +0.000 HD
BRANCH  11  14
ATOM     14  C   UNL     1      49.325   2.743  16.957  0.00  0.00    +0.000 A 
ATOM     15  N   UNL     1      49.635   1.552  16.391  0.00  0.00    +0.000 NA
ATOM     16  N   UNL     1      50.886   1.307  16.836  0.00  0.00    +0.000 N 
ATOM     17  C   UNL     1      51.393   2.284  17.639  0.00  0.00    +0.000 A 
ATOM     18  N   UNL     1      52.635   2.324  18.157  0.00  0.00    +0.000 NA
ATOM     19  C   UNL     1      52.848   3.430  18.908  0.00  0.00    +0.000 A 
ATOM     20  C   UNL     1      51.911   4.421  19.177  0.00  0.00    +0.000 A 
ATOM     21  C   UNL     1      50.636   4.323  18.617  0.00  0.00    +0.000 A 
ATOM     22  C   UNL     1      50.380   3.216  17.791  0.00  0.00    +0.000 A 
ATOM     23  H   UNL     1      51.364   0.464  16.542  0.00  0.00    +0.000 HD
ENDBRANCH  11  14
ENDBRANCH   9  12
ENDBRANCH   1   9
BRANCH   5  24
ATOM     24  C   UNL     1      44.479   2.995  10.155  0.00  0.00    +0.000 C 
BRANCH  24  25
ATOM     25  C   UNL     1      44.283   2.944   8.626  0.00  0.00    +0.000 C 
BRANCH  25  26
ATOM     26  C   UNL     1      45.528   2.453   7.916  0.00  0.00    +0.000 A 
ATOM     27  C   UNL     1      46.147   3.238   6.945  0.00  0.00    +0.000 A 
ATOM     28  C   UNL     1      47.300   2.763   6.330  0.00  0.00    +0.000 A 
ATOM     29  C   UNL     1      47.806   1.518   6.699  0.00  0.00    +0.000 A 
ATOM     30  C   UNL     1      47.131   0.801   7.671  0.00  0.00    +0.000 A 
ATOM     31  N   UNL     1      46.010   1.235   8.287  0.00  0.00    +0.000 NA
ENDBRANCH  25  26
BRANCH  25  32
ATOM     32  O   UNL     1      43.937   4.265   8.157  0.00  0.00    +0.000 OA
ATOM     33  H   UNL     1      43.699   4.134   7.215  0.00  0.00    +0.000 HD
ENDBRANCH  25  32
ENDBRANCH  24  25
ENDBRANCH   5  24
TORSDOF 7
ENDMDL
MODEL 6
REMARK VINA RESULT:    -7.367      2.876     10.091
REMARK INTER + INTRA:         -11.173
REMARK INTER:                 -10.349
REMARK INTRA:                  -0.824
REMARK UNBOUND:                -1.006
REMARK  Name = 
REMARK  7 active torsions:
REMARK  status: ('A' for Active; 'I' for Inactive)
REMARK    1  A    between atoms: C_2  and  C_21
REMARK    2  A    between atoms: N_3  and  C_4
REMARK    3  A    between atoms: C_4  and  C_5
REMARK    4  A    between atoms: N_9  and  C_10
REMARK    5  A    between atoms: C_10  and  C_11
REMARK    6  A    between atoms: C_11  and  O_12
REMARK    7  A    between atoms: C_11  and  C_13
REMARK                            x       y       z     vdW  Elec       q    Type
REMARK                         _______ _______ _______ _____ _____    ______ ____
ROOT
ATOM      1  C   UNL     1      46.838   4.174  14.328  0.00  0.00    +0.000 A 
ATOM      2  C   UNL     1      46.373   5.473  14.145  0.00  0.00    +0.000 A 
ATOM      3  C   UNL     1      45.706   5.802  12.967  0.00  0.00    +0.000 A 
ATOM      4  C   UNL     1      45.486   4.825  11.999  0.00  0.00    +0.000 A 
ATOM      5  N   UNL     1      44.692   5.175  10.907  0.00  0.00    +0.000 N 
ATOM      6  N   UNL     1      45.934   3.566  12.159  0.00  0.00    +0.000 NA
ATOM      7  C   UNL     1      46.606   3.270  13.298  0.00  0.00    +0.000 A 
ATOM      8  H   UNL     1      45.095   5.959  10.397  0.00  0.00    +0.000 HD
ENDROOT
BRANCH   1   9
ATOM      9  C   UNL     1      47.493   3.757  15.608  0.00  0.00    +0.000 C 
BRANCH   9  12
ATOM     10  O   UNL     1      49.543   5.186  16.910  0.00  0.00    +0.000 OA
ATOM     11  C   UNL     1      48.379   5.353  17.260  0.00  0.00    +0.000 C 
ATOM     12  N   UNL     1      47.311   4.750  16.635  0.00  0.00    +0.000 N 
ATOM     13  H   UNL     1      46.397   4.925  17.044  0.00  0.00    +0.000 HD
BRANCH  11  14
ATOM     14  C   UNL     1      47.990   6.168  18.421  0.00  0.00    +0.000 A 
ATOM     15  N   UNL     1      47.729   5.607  19.625  0.00  0.00    +0.000 NA
ATOM     16  N   UNL     1      47.530   6.669  20.433  0.00  0.00    +0.000 N 
ATOM     17  C   UNL     1      47.669   7.874  19.813  0.00  0.00    +0.000 A 
ATOM     18  N   UNL     1      47.594   9.084  20.399  0.00  0.00    +0.000 NA
ATOM     19  C   UNL     1      47.785  10.097  19.521  0.00  0.00    +0.000 A 
ATOM     20  C   UNL     1      47.997   9.959  18.154  0.00  0.00    +0.000 A 
ATOM     21  C   UNL     1      48.058   8.677  17.602  0.00  0.00    +0.000 A 
ATOM     22  C   UNL     1      47.912   7.591  18.479  0.00  0.00    +0.000 A 
ATOM     23  H   UNL     1      47.326   6.519  21.414  0.00  0.00    +0.000 HD
ENDBRANCH  11  14
ENDBRANCH   9  12
ENDBRANCH   1   9
BRANCH   5  24
ATOM     24  C   UNL     1      44.287   4.093  10.002  0.00  0.00    +0.000 C 
BRANCH  24  25
ATOM     25  C   UNL     1      44.902   4.364   8.614  0.00  0.00    +0.000 C 
BRANCH  25  26
ATOM     26  C   UNL     1      45.750   3.201   8.139  0.00  0.00    +0.000 A 
ATOM     27  C   UNL     1      45.494   1.907   8.585  0.00  0.00    +0.000 A 
ATOM     28  C   UNL     1      46.280   0.863   8.111  0.00  0.00    +0.000 A 
ATOM     29  C   UNL     1      47.301   1.136   7.203  0.00  0.00    +0.000 A 
ATOM     30  C   UNL     1      47.491   2.450   6.810  0.00  0.00    +0.000 A 
ATOM     31  N   UNL     1      46.744   3.485   7.252  0.00  0.00    +0.000 NA
ENDBRANCH  25  26
BRANCH  25  32
ATOM     32  O   UNL     1      45.705   5.562   8.685  0.00  0.00    +0.000 OA
ATOM     33  H   UNL     1      46.465   5.379   8.094  0.00  0.00    +0.000 HD
ENDBRANCH  25  32
ENDBRANCH  24  25
ENDBRANCH   5  24
TORSDOF 7
ENDMDL
MODEL 7
REMARK VINA RESULT:    -7.345      1.993      9.241
REMARK INTER + INTRA:         -11.142
REMARK INTER:                 -10.239
REMARK INTRA:                  -0.903
REMARK UNBOUND:                -1.006
REMARK  Name = 
REMARK  7 active torsions:
REMARK  status: ('A' for Active; 'I' for Inactive)
REMARK    1  A    between atoms: C_2  and  C_21
REMARK    2  A    between atoms: N_3  and  C_4
REMARK    3  A    between atoms: C_4  and  C_5
REMARK    4  A    between atoms: N_9  and  C_10
REMARK    5  A    between atoms: C_10  and  C_11
REMARK    6  A    between atoms: C_11  and  O_12
REMARK    7  A    between atoms: C_11  and  C_13
REMARK                            x       y       z     vdW  Elec       q    Type
REMARK                         _______ _______ _______ _____ _____    ______ ____
ROOT
ATOM      1  C   UNL     1      48.086   7.094  14.249  0.00  0.00    +0.000 A 
ATOM      2  C   UNL     1      47.626   7.943  13.247  0.00  0.00    +0.000 A 
ATOM      3  C   UNL     1      46.804   7.435  12.243  0.00  0.00    +0.000 A 
ATOM      4  C   UNL     1      46.428   6.095  12.267  0.00  0.00    +0.000 A 
ATOM      5  N   UNL     1      45.494   5.676  11.320  0.00  0.00    +0.000 N 
ATOM      6  N   UNL     1      46.869   5.259  13.226  0.00  0.00    +0.000 NA
ATOM      7  C   UNL     1      47.691   5.763  14.179  0.00  0.00    +0.000 A 
ATOM      8  H   UNL     1      45.835   5.833  10.373  0.00  0.00    +0.000 HD
ENDROOT
BRANCH   1   9
ATOM      9  C   UNL     1      48.909   7.611  15.388  0.00  0.00    +0.000 C 
BRANCH   9  12
ATOM     10  O   UNL     1      49.382   6.988  18.096  0.00  0.00    +0.000 OA
ATOM     11  C   UNL     1      50.025   6.410  17.225  0.00  0.00    +0.000 C 
ATOM     12  N   UNL     1      49.811   6.601  15.879  0.00  0.00    +0.000 N 
ATOM     13  H   UNL     1      50.439   6.104  15.251  0.00  0.00    +0.000 HD
BRANCH  11  14
ATOM     14  C   UNL     1      51.137   5.491  17.513  0.00  0.00    +0.000 A 
ATOM     15  N   UNL     1      52.328   5.942  17.971  0.00  0.00    +0.000 NA
ATOM     16  N   UNL     1      53.021   4.810  18.219  0.00  0.00    +0.000 N 
ATOM     17  C   UNL     1      52.329   3.666  17.960  0.00  0.00    +0.000 A 
ATOM     18  N   UNL     1      52.757   2.409  18.185  0.00  0.00    +0.000 NA
ATOM     19  C   UNL     1      51.838   1.479  17.835  0.00  0.00    +0.000 A 
ATOM     20  C   UNL     1      50.596   1.738  17.266  0.00  0.00    +0.000 A 
ATOM     21  C   UNL     1      50.210   3.062  17.051  0.00  0.00    +0.000 A 
ATOM     22  C   UNL     1      51.110   4.067  17.440  0.00  0.00    +0.000 A 
ATOM     23  H   UNL     1      53.962   4.872  18.589  0.00  0.00    +0.000 HD
ENDBRANCH  11  14
ENDBRANCH   9  12
ENDBRANCH   1   9
BRANCH   5  24
ATOM     24  C   UNL     1      44.942   4.326  11.478  0.00  0.00    +0.000 C 
BRANCH  24  25
ATOM     25  C   UNL     1      44.209   3.944  10.176  0.00  0.00    +0.000 C 
BRANCH  25  26
ATOM     26  C   UNL     1      45.165   3.413   9.127  0.00  0.00    +0.000 A 
ATOM     27  C   UNL     1      45.410   2.046   9.016  0.00  0.00    +0.000 A 
ATOM     28  C   UNL     1      46.277   1.595   8.028  0.00  0.00    +0.000 A 
ATOM     29  C   UNL     1      46.879   2.518   7.175  0.00  0.00    +0.000 A 
ATOM     30  C   UNL     1      46.583   3.859   7.352  0.00  0.00    +0.000 A 
ATOM     31  N   UNL     1      45.745   4.328   8.301  0.00  0.00    +0.000 NA
ENDBRANCH  25  26
BRANCH  25  32
ATOM     32  O   UNL     1      43.521   5.108   9.670  0.00  0.00    +0.000 OA
ATOM     33  H   UNL     1      42.884   4.748   9.016  0.00  0.00    +0.000 HD
ENDBRANCH  25  32
ENDBRANCH  24  25
ENDBRANCH   5  24
TORSDOF 7
ENDMDL
MODEL 8
REMARK VINA RESULT:    -7.180      2.239      3.365
REMARK INTER + INTRA:         -10.915
REMARK INTER:                  -9.924
REMARK INTRA:                  -0.991
REMARK UNBOUND:                -1.006
REMARK  Name = 
REMARK  7 active torsions:
REMARK  status: ('A' for Active; 'I' for Inactive)
REMARK    1  A    between atoms: C_2  and  C_21
REMARK    2  A    between atoms: N_3  and  C_4
REMARK    3  A    between atoms: C_4  and  C_5
REMARK    4  A    between atoms: N_9  and  C_10
REMARK    5  A    between atoms: C_10  and  C_11
REMARK    6  A    between atoms: C_11  and  O_12
REMARK    7  A    between atoms: C_11  and  C_13
REMARK                            x       y       z     vdW  Elec       q    Type
REMARK                         _______ _______ _______ _____ _____    ______ ____
ROOT
ATOM      1  C   UNL     1      47.049   7.788  13.230  0.00  0.00    +0.000 A 
ATOM      2  C   UNL     1      47.310   8.925  13.989  0.00  0.00    +0.000 A 
ATOM      3  C   UNL     1      48.265   8.869  15.001  0.00  0.00    +0.000 A 
ATOM      4  C   UNL     1      48.969   7.688  15.225  0.00  0.00    +0.000 A 
ATOM      5  N   UNL     1      50.009   7.730  16.153  0.00  0.00    +0.000 N 
ATOM      6  N   UNL     1      48.725   6.578  14.503  0.00  0.00    +0.000 NA
ATOM      7  C   UNL     1      47.772   6.643  13.542  0.00  0.00    +0.000 A 
ATOM      8  H   UNL     1      49.669   8.008  17.073  0.00  0.00    +0.000 HD
ENDROOT
BRANCH   1   9
ATOM      9  C   UNL     1      46.086   7.823  12.084  0.00  0.00    +0.000 C 
BRANCH   9  12
ATOM     10  O   UNL     1      43.641   6.584  11.430  0.00  0.00    +0.000 OA
ATOM     11  C   UNL     1      44.689   5.967  11.269  0.00  0.00    +0.000 C 
ATOM     12  N   UNL     1      45.930   6.517  11.496  0.00  0.00    +0.000 N 
ATOM     13  H   UNL     1      46.724   5.894  11.376  0.00  0.00    +0.000 HD
BRANCH  11  14
ATOM     14  C   UNL     1      44.743   4.552  10.871  0.00  0.00    +0.000 A 
ATOM     15  N   UNL     1      44.200   3.578  11.640  0.00  0.00    +0.000 NA
ATOM     16  N   UNL     1      44.350   2.464  10.892  0.00  0.00    +0.000 N 
ATOM     17  C   UNL     1      44.941   2.679   9.684  0.00  0.00    +0.000 A 
ATOM     18  N   UNL     1      45.144   1.760   8.722  0.00  0.00    +0.000 NA
ATOM     19  C   UNL     1      45.747   2.280   7.627  0.00  0.00    +0.000 A 
ATOM     20  C   UNL     1      46.166   3.597   7.479  0.00  0.00    +0.000 A 
ATOM     21  C   UNL     1      45.933   4.505   8.514  0.00  0.00    +0.000 A 
ATOM     22  C   UNL     1      45.269   4.025   9.654  0.00  0.00    +0.000 A 
ATOM     23  H   UNL     1      44.007   1.579  11.243  0.00  0.00    +0.000 HD
ENDBRANCH  11  14
ENDBRANCH   9  12
ENDBRANCH   1   9
BRANCH   5  24
ATOM     24  C   UNL     1      50.881   6.553  16.233  0.00  0.00    +0.000 C 
BRANCH  24  25
ATOM     25  C   UNL     1      50.642   5.862  17.590  0.00  0.00    +0.000 C 
BRANCH  25  26
ATOM     26  C   UNL     1      49.554   4.811  17.503  0.00  0.00    +0.000 A 
ATOM     27  C   UNL     1      48.233   5.131  17.808  0.00  0.00    +0.000 A 
ATOM     28  C   UNL     1      47.258   4.146  17.696  0.00  0.00    +0.000 A 
ATOM     29  C   UNL     1      47.625   2.867  17.281  0.00  0.00    +0.000 A 
ATOM     30  C   UNL     1      48.960   2.631  16.997  0.00  0.00    +0.000 A 
ATOM     31  N   UNL     1      49.929   3.567  17.096  0.00  0.00    +0.000 NA
ENDBRANCH  25  26
BRANCH  25  32
ATOM     32  O   UNL     1      50.282   6.862  18.567  0.00  0.00    +0.000 OA
ATOM     33  H   UNL     1      49.549   6.454  19.073  0.00  0.00    +0.000 HD
ENDBRANCH  25  32
ENDBRANCH  24  25
ENDBRANCH   5  24
TORSDOF 7
ENDMDL
MODEL 9
REMARK VINA RESULT:    -6.813      3.238      9.945
REMARK INTER + INTRA:         -10.408
REMARK INTER:                  -9.538
REMARK INTRA:                  -0.870
REMARK UNBOUND:                -1.006
REMARK  Name = 
REMARK  7 active torsions:
REMARK  status: ('A' for Active; 'I' for Inactive)
REMARK    1  A    between atoms: C_2  and  C_21
REMARK    2  A    between atoms: N_3  and  C_4
REMARK    3  A    between atoms: C_4  and  C_5
REMARK    4  A    between atoms: N_9  and  C_10
REMARK    5  A    between atoms: C_10  and  C_11
REMARK    6  A    between atoms: C_11  and  O_12
REMARK    7  A    between atoms: C_11  and  C_13
REMARK                            x       y       z     vdW  Elec       q    Type
REMARK                         _______ _______ _______ _____ _____    ______ ____
ROOT
ATOM      1  C   UNL     1      48.227   7.207  13.608  0.00  0.00    +0.000 A 
ATOM      2  C   UNL     1      47.364   8.294  13.502  0.00  0.00    +0.000 A 
ATOM      3  C   UNL     1      46.039   8.082  13.127  0.00  0.00    +0.000 A 
ATOM      4  C   UNL     1      45.584   6.787  12.891  0.00  0.00    +0.000 A 
ATOM      5  N   UNL     1      44.218   6.623  12.659  0.00  0.00    +0.000 N 
ATOM      6  N   UNL     1      46.407   5.727  12.985  0.00  0.00    +0.000 NA
ATOM      7  C   UNL     1      47.700   5.953  13.322  0.00  0.00    +0.000 A 
ATOM      8  H   UNL     1      43.918   7.156  11.844  0.00  0.00    +0.000 HD
ENDROOT
BRANCH   1   9
ATOM      9  C   UNL     1      49.638   7.378  14.079  0.00  0.00    +0.000 C 
BRANCH   9  12
ATOM     10  O   UNL     1      49.595   5.563  16.234  0.00  0.00    +0.000 OA
ATOM     11  C   UNL     1      49.593   6.769  16.464  0.00  0.00    +0.000 C 
ATOM     12  N   UNL     1      49.682   7.723  15.477  0.00  0.00    +0.000 N 
ATOM     13  H   UNL     1      49.620   8.691  15.784  0.00  0.00    +0.000 HD
BRANCH  11  14
ATOM     14  C   UNL     1      49.435   7.336  17.811  0.00  0.00    +0.000 A 
ATOM     15  N   UNL     1      50.021   6.768  18.892  0.00  0.00    +0.000 NA
ATOM     16  N   UNL     1      49.742   7.630  19.893  0.00  0.00    +0.000 N 
ATOM     17  C   UNL     1      49.028   8.723  19.504  0.00  0.00    +0.000 A 
ATOM     18  N   UNL     1      48.680   9.765  20.282  0.00  0.00    +0.000 NA
ATOM     19  C   UNL     1      47.980  10.706  19.606  0.00  0.00    +0.000 A 
ATOM     20  C   UNL     1      47.602  10.633  18.270  0.00  0.00    +0.000 A 
ATOM     21  C   UNL     1      47.987   9.524  17.514  0.00  0.00    +0.000 A 
ATOM     22  C   UNL     1      48.755   8.541  18.158  0.00  0.00    +0.000 A 
ATOM     23  H   UNL     1      50.086   7.439  20.826  0.00  0.00    +0.000 HD
ENDBRANCH  11  14
ENDBRANCH   9  12
ENDBRANCH   1   9
BRANCH   5  24
ATOM     24  C   UNL     1      43.709   5.248  12.622  0.00  0.00    +0.000 C 
BRANCH  24  25
ATOM     25  C   UNL     1      43.005   5.025  11.268  0.00  0.00    +0.000 C 
BRANCH  25  26
ATOM     26  C   UNL     1      43.878   4.250  10.302  0.00  0.00    +0.000 A 
ATOM     27  C   UNL     1      44.757   4.915   9.450  0.00  0.00    +0.000 A 
ATOM     28  C   UNL     1      45.557   4.170   8.592  0.00  0.00    +0.000 A 
ATOM     29  C   UNL     1      45.460   2.779   8.605  0.00  0.00    +0.000 A 
ATOM     30  C   UNL     1      44.561   2.196   9.481  0.00  0.00    +0.000 A 
ATOM     31  N   UNL     1      43.771   2.893  10.327  0.00  0.00    +0.000 NA
ENDBRANCH  25  26
BRANCH  25  32
ATOM     32  O   UNL     1      42.665   6.309  10.703  0.00  0.00    +0.000 OA
ATOM     33  H   UNL     1      42.406   6.854  11.476  0.00  0.00    +0.000 HD
ENDBRANCH  25  32
ENDBRANCH  24  25
ENDBRANCH   5  24
TORSDOF 7
ENDMDL
