MODEL 1
REMARK VINA RESULT:    -7.734      0.000      0.000
REMARK INTER + INTRA:         -11.524
REMARK INTER:                 -10.899
REMARK INTRA:                  -0.625
REMARK UNBOUND:                -0.625
REMARK  Name = 
REMARK  8 active torsions:
REMARK  status: ('A' for Active; 'I' for Inactive)
REMARK    1  A    between atoms: N_1  and  C_2
REMARK    2  A    between atoms: C_2  and  C_3
REMARK    3  A    between atoms: C_7  and  O_8
REMARK    4  A    between atoms: O_8  and  C_9
REMARK    5  A    between atoms: C_9  and  C_10
REMARK    6  A    between atoms: C_10  and  C_11
REMARK    7  A    between atoms: CA_15  and  C_16
REMARK    8  A    between atoms: C_16  and  OXT_18
REMARK                            x       y       z     vdW  Elec       q    Type
REMARK                         _______ _______ _______ _____ _____    ______ ____
ROOT
ATOM      1  C   UNL     1      43.371   4.208  10.677  0.00  0.00    +0.000 C 
ENDROOT
BRANCH   1   2
ATOM      2  O   UNL     1      43.850   2.936  10.236  0.00  0.00    +0.000 OA
BRANCH   2   7
ATOM      3  C   UNL     1      46.468   2.036   7.754  0.00  0.00    +0.000 A 
ATOM      4  C   UNL     1      46.618   3.313   7.224  0.00  0.00    +0.000 A 
ATOM      5  N   UNL     1      45.917   4.392   7.638  0.00  0.00    +0.000 NA
ATOM      6  C   UNL     1      45.023   4.185   8.635  0.00  0.00    +0.000 A 
ATOM      7  C   UNL     1      44.788   2.956   9.241  0.00  0.00    +0.000 A 
ATOM      8  C   UNL     1      45.529   1.870   8.783  0.00  0.00    +0.000 A 
BRANCH   3   9
ATOM      9  C   UNL     1      47.301   0.885   7.272  0.00  0.00    +0.000 C 
BRANCH   9  10
ATOM     10  N   UNL     1      46.780  -0.394   7.742  0.00  0.00    +0.000 NA
ATOM     11  H   UNL     1      47.456  -1.127   7.533  0.00  0.00    +0.000 HD
ATOM     12  H   UNL     1      45.940  -0.626   7.212  0.00  0.00    +0.000 HD
ENDBRANCH   9  10
ENDBRANCH   3   9
ENDBRANCH   2   7
ENDBRANCH   1   2
BRANCH   1  13
ATOM     13  C   UNL     1      43.461   4.266  12.199  0.00  0.00    +0.000 C 
BRANCH  13  14
ATOM     14  C   UNL     1      44.813   4.756  12.637  0.00  0.00    +0.000 A 
ATOM     15  C   UNL     1      45.422   5.831  11.991  0.00  0.00    +0.000 A 
ATOM     16  N   UNL     1      46.621   6.339  12.371  0.00  0.00    +0.000 NA
ATOM     17  C   UNL     1      47.205   5.733  13.433  0.00  0.00    +0.000 A 
ATOM     18  CA  UNL     1      46.605   4.669  14.081  0.00  0.00    +0.000 A 
ATOM     19  N   UNL     1      45.392   4.152  13.709  0.00  0.00    +0.000 NA
BRANCH  18  20
ATOM     20  C   UNL     1      47.266   4.030  15.241  0.00  0.00    +0.000 C 
ATOM     21  O   UNL     1      47.806   2.939  15.220  0.00  0.00    +0.000 OA
BRANCH  20  22
ATOM     22  OXT UNL     1      47.191   4.831  16.333  0.00  0.00    +0.000 OA
ATOM     23  HXT UNL     1      48.028   5.345  16.418  0.00  0.00    +0.000 HD
ENDBRANCH  20  22
ENDBRANCH  18  20
ENDBRANCH  13  14
ENDBRANCH   1  13
TORSDOF 8
ENDMDL
MODEL 2
REMARK VINA RESULT:    -7.537      2.276      6.509
REMARK INTER + INTRA:         -11.246
REMARK INTER:                 -10.641
REMARK INTRA:                  -0.605
REMARK UNBOUND:                -0.625
REMARK  Name = 
REMARK  8 active torsions:
REMARK  status: ('A' for Active; 'I' for Inactive)
REMARK    1  A    between atoms: N_1  and  C_2
REMARK    2  A    between atoms: C_2  and  C_3
REMARK    3  A    between atoms: C_7  and  O_8
REMARK    4  A    between atoms: O_8  and  C_9
REMARK    5  A    between atoms: C_9  and  C_10
REMARK    6  A    between atoms: C_10  and  C_11
REMARK    7  A    between atoms: CA_15  and  C_16
REMARK    8  A    between atoms: C_16  and  OXT_18
REMARK                            x       y       z     vdW  Elec       q    Type
REMARK                         _______ _______ _______ _____ _____    ______ ____
ROOT
ATOM      1  C   UNL     1      43.449   3.678  11.447  0.00  0.00    +0.000 C 
ENDROOT
BRANCH   1   2
ATOM      2  O   UNL     1      43.979   3.721  12.774  0.00  0.00    +0.000 OA
BRANCH   2   7
ATOM      3  C   UNL     1      46.136   6.732  13.094  0.00  0.00    +0.000 A 
ATOM      4  C   UNL     1      47.296   6.051  13.444  0.00  0.00    +0.000 A 
ATOM      5  N   UNL     1      47.375   4.708  13.571  0.00  0.00    +0.000 NA
ATOM      6  C   UNL     1      46.238   4.010  13.335  0.00  0.00    +0.000 A 
ATOM      7  C   UNL     1      45.022   4.581  12.978  0.00  0.00    +0.000 A 
ATOM      8  C   UNL     1      44.982   5.969  12.860  0.00  0.00    +0.000 A 
BRANCH   3   9
ATOM      9  C   UNL     1      46.121   8.225  12.937  0.00  0.00    +0.000 C 
BRANCH   9  10
ATOM     10  N   UNL     1      46.705   8.897  14.092  0.00  0.00    +0.000 NA
ATOM     11  H   UNL     1      47.069   9.803  13.803  0.00  0.00    +0.000 HD
ATOM     12  H   UNL     1      47.510   8.361  14.417  0.00  0.00    +0.000 HD
ENDBRANCH   9  10
ENDBRANCH   3   9
ENDBRANCH   2   7
ENDBRANCH   1   2
BRANCH   1  13
ATOM     13  C   UNL     1      43.941   2.407  10.762  0.00  0.00    +0.000 C 
BRANCH  13  14
ATOM     14  C   UNL     1      44.782   2.738   9.561  0.00  0.00    +0.000 A 
ATOM     15  C   UNL     1      44.822   4.038   9.057  0.00  0.00    +0.000 A 
ATOM     16  N   UNL     1      45.594   4.400   8.004  0.00  0.00    +0.000 NA
ATOM     17  C   UNL     1      46.340   3.410   7.456  0.00  0.00    +0.000 A 
ATOM     18  CA  UNL     1      46.310   2.120   7.952  0.00  0.00    +0.000 A 
ATOM     19  N   UNL     1      45.537   1.744   9.019  0.00  0.00    +0.000 NA
BRANCH  18  20
ATOM     20  C   UNL     1      47.139   1.060   7.334  0.00  0.00    +0.000 C 
ATOM     21  O   UNL     1      47.980   1.248   6.474  0.00  0.00    +0.000 OA
BRANCH  20  22
ATOM     22  OXT UNL     1      46.834  -0.151   7.861  0.00  0.00    +0.000 OA
ATOM     23  HXT UNL     1      47.189  -0.861   7.274  0.00  0.00    +0.000 HD
ENDBRANCH  20  22
ENDBRANCH  18  20
ENDBRANCH  13  14
ENDBRANCH   1  13
TORSDOF 8
ENDMDL
MODEL 3
REMARK VINA RESULT:    -7.508      2.101      2.534
REMARK INTER + INTRA:         -11.205
REMARK INTER:                 -10.626
REMARK INTRA:                  -0.579
REMARK UNBOUND:                -0.625
REMARK  Name = 
REMARK  8 active torsions:
REMARK  status: ('A' for Active; 'I' for Inactive)
REMARK    1  A    between atoms: N_1  and  C_2
REMARK    2  A    between atoms: C_2  and  C_3
REMARK    3  A    between atoms: C_7  and  O_8
REMARK    4  A    between atoms: O_8  and  C_9
REMARK    5  A    between atoms: C_9  and  C_10
REMARK    6  A    between atoms: C_10  and  C_11
REMARK    7  A    between atoms: CA_15  and  C_16
REMARK    8  A    between atoms: C_16  and  OXT_18
REMARK                            x       y       z     vdW  Elec       q    Type
REMARK                         _______ _______ _______ _____ _____    ______ ____
ROOT
ATOM      1  C   UNL     1      43.518   3.929  11.045  0.00  0.00    +0.000 C 
ENDROOT
BRANCH   1   2
ATOM      2  O   UNL     1      43.768   2.797  10.208  0.00  0.00    +0.000 OA
BRANCH   2   7
ATOM      3  C   UNL     1      46.487   2.249   7.732  0.00  0.00    +0.000 A 
ATOM      4  C   UNL     1      46.620   3.581   7.357  0.00  0.00    +0.000 A 
ATOM      5  N   UNL     1      45.879   4.589   7.868  0.00  0.00    +0.000 NA
ATOM      6  C   UNL     1      44.958   4.249   8.803  0.00  0.00    +0.000 A 
ATOM      7  C   UNL     1      44.736   2.953   9.256  0.00  0.00    +0.000 A 
ATOM      8  C   UNL     1      45.520   1.944   8.702  0.00  0.00    +0.000 A 
BRANCH   3   9
ATOM      9  C   UNL     1      47.364   1.180   7.151  0.00  0.00    +0.000 C 
BRANCH   9  10
ATOM     10  N   UNL     1      48.296   1.720   6.166  0.00  0.00    +0.000 NA
ATOM     11  H   UNL     1      49.068   1.067   6.045  0.00  0.00    +0.000 HD
ATOM     12  H   UNL     1      48.707   2.578   6.534  0.00  0.00    +0.000 HD
ENDBRANCH   9  10
ENDBRANCH   3   9
ENDBRANCH   2   7
ENDBRANCH   1   2
BRANCH   1  13
ATOM     13  C   UNL     1      44.020   3.620  12.452  0.00  0.00    +0.000 C 
BRANCH  13  14
ATOM     14  C   UNL     1      45.129   4.556  12.843  0.00  0.00    +0.000 A 
ATOM     15  C   UNL     1      46.354   4.059  13.288  0.00  0.00    +0.000 A 
ATOM     16  N   UNL     1      47.402   4.856  13.614  0.00  0.00    +0.000 NA
ATOM     17  C   UNL     1      47.188   6.187  13.482  0.00  0.00    +0.000 A 
ATOM     18  CA  UNL     1      45.978   6.688  13.038  0.00  0.00    +0.000 A 
ATOM     19  N   UNL     1      44.915   5.892  12.700  0.00  0.00    +0.000 NA
BRANCH  18  20
ATOM     20  C   UNL     1      45.777   8.149  12.900  0.00  0.00    +0.000 C 
ATOM     21  O   UNL     1      45.130   8.682  12.018  0.00  0.00    +0.000 OA
BRANCH  20  22
ATOM     22  OXT UNL     1      46.413   8.813  13.897  0.00  0.00    +0.000 OA
ATOM     23  HXT UNL     1      45.916   8.689  14.740  0.00  0.00    +0.000 HD
ENDBRANCH  20  22
ENDBRANCH  18  20
ENDBRANCH  13  14
ENDBRANCH   1  13
TORSDOF 8
ENDMDL
MODEL 4
REMARK VINA RESULT:    -7.158      1.451      1.957
REMARK INTER + INTRA:         -10.711
REMARK INTER:                 -10.176
REMARK INTRA:                  -0.535
REMARK UNBOUND:                -0.625
REMARK  Name = 
REMARK  8 active torsions:
REMARK  status: ('A' for Active; 'I' for Inactive)
REMARK    1  A    between atoms: N_1  and  C_2
REMARK    2  A    between atoms: C_2  and  C_3
REMARK    3  A    between atoms: C_7  and  O_8
REMARK    4  A    between atoms: O_8  and  C_9
REMARK    5  A    between atoms: C_9  and  C_10
REMARK    6  A    between atoms: C_10  and  C_11
REMARK    7  A    between atoms: CA_15  and  C_16
REMARK    8  A    between atoms: C_16  and  OXT_18
REMARK                            x       y       z     vdW  Elec       q    Type
REMARK                         _______ _______ _______ _____ _____    ______ ____
ROOT
ATOM      1  C   UNL     1      44.513   4.739  10.588  0.00  0.00    +0.000 C 
ENDROOT
BRANCH   1   2
ATOM      2  O   UNL     1      44.194   4.390   9.239  0.00  0.00    +0.000 OA
BRANCH   2   7
ATOM      3  C   UNL     1      46.629   2.653   7.031  0.00  0.00    +0.000 A 
ATOM      4  C   UNL     1      46.545   1.415   7.659  0.00  0.00    +0.000 A 
ATOM      5  N   UNL     1      45.757   1.160   8.727  0.00  0.00    +0.000 NA
ATOM      6  C   UNL     1      45.013   2.193   9.189  0.00  0.00    +0.000 A 
ATOM      7  C   UNL     1      45.013   3.472   8.644  0.00  0.00    +0.000 A 
ATOM      8  C   UNL     1      45.841   3.694   7.546  0.00  0.00    +0.000 A 
BRANCH   3   9
ATOM      9  C   UNL     1      47.500   2.864   5.828  0.00  0.00    +0.000 C 
BRANCH   9  10
ATOM     10  N   UNL     1      48.485   1.798   5.679  0.00  0.00    +0.000 NA
ATOM     11  H   UNL     1      48.523   1.257   6.541  0.00  0.00    +0.000 HD
ATOM     12  H   UNL     1      49.410   2.214   5.566  0.00  0.00    +0.000 HD
ENDBRANCH   9  10
ENDBRANCH   3   9
ENDBRANCH   2   7
ENDBRANCH   1   2
BRANCH   1  13
ATOM     13  C   UNL     1      45.300   6.045  10.586  0.00  0.00    +0.000 C 
BRANCH  13  14
ATOM     14  C   UNL     1      46.240   6.106  11.758  0.00  0.00    +0.000 A 
ATOM     15  C   UNL     1      47.061   7.217  11.952  0.00  0.00    +0.000 A 
ATOM     16  N   UNL     1      47.896   7.344  13.013  0.00  0.00    +0.000 NA
ATOM     17  C   UNL     1      47.889   6.311  13.890  0.00  0.00    +0.000 A 
ATOM     18  CA  UNL     1      47.075   5.208  13.707  0.00  0.00    +0.000 A 
ATOM     19  N   UNL     1      46.223   5.073  12.642  0.00  0.00    +0.000 NA
BRANCH  18  20
ATOM     20  C   UNL     1      47.087   4.097  14.686  0.00  0.00    +0.000 C 
ATOM     21  O   UNL     1      47.453   2.961  14.445  0.00  0.00    +0.000 OA
BRANCH  20  22
ATOM     22  OXT UNL     1      46.635   4.520  15.892  0.00  0.00    +0.000 OA
ATOM     23  HXT UNL     1      46.894   3.866  16.584  0.00  0.00    +0.000 HD
ENDBRANCH  20  22
ENDBRANCH  18  20
ENDBRANCH  13  14
ENDBRANCH   1  13
TORSDOF 8
ENDMDL
MODEL 5
REMARK VINA RESULT:    -7.128      2.267      6.257
REMARK INTER + INTRA:         -10.669
REMARK INTER:                 -10.054
REMARK INTRA:                  -0.615
REMARK UNBOUND:                -0.625
REMARK  Name = 
REMARK  8 active torsions:
REMARK  status: ('A' for Active; 'I' for Inactive)
REMARK    1  A    between atoms: N_1  and  C_2
REMARK    2  A    between atoms: C_2  and  C_3
REMARK    3  A    between atoms: C_7  and  O_8
REMARK    4  A    between atoms: O_8  and  C_9
REMARK    5  A    between atoms: C_9  and  C_10
REMARK    6  A    between atoms: C_10  and  C_11
REMARK    7  A    between atoms: CA_15  and  C_16
REMARK    8  A    between atoms: C_16  and  OXT_18
REMARK                            x       y       z     vdW  Elec       q    Type
REMARK                         _______ _______ _______ _____ _____    ______ ____
ROOT
ATOM      1  C   UNL     1      43.533   4.117  11.166  0.00  0.00    +0.000 C 
ENDROOT
BRANCH   1   2
ATOM      2  O   UNL     1      44.284   4.312  12.366  0.00  0.00    +0.000 OA
BRANCH   2   7
ATOM      3  C   UNL     1      46.944   6.822  13.035  0.00  0.00    +0.000 A 
ATOM      4  C   UNL     1      46.316   7.883  12.392  0.00  0.00    +0.000 A 
ATOM      5  N   UNL     1      45.115   7.792  11.779  0.00  0.00    +0.000 NA
ATOM      6  C   UNL     1      44.509   6.581  11.813  0.00  0.00    +0.000 A 
ATOM      7  C   UNL     1      45.039   5.451  12.426  0.00  0.00    +0.000 A 
ATOM      8  C   UNL     1      46.280   5.586  13.044  0.00  0.00    +0.000 A 
BRANCH   3   9
ATOM      9  C   UNL     1      48.265   6.997  13.726  0.00  0.00    +0.000 C 
BRANCH   9  10
ATOM     10  N   UNL     1      49.379   6.596  12.873  0.00  0.00    +0.000 NA
ATOM     11  H   UNL     1      49.740   5.699  13.196  0.00  0.00    +0.000 HD
ATOM     12  H   UNL     1      50.141   7.264  12.987  0.00  0.00    +0.000 HD
ENDBRANCH   9  10
ENDBRANCH   3   9
ENDBRANCH   2   7
ENDBRANCH   1   2
BRANCH   1  13
ATOM     13  C   UNL     1      43.925   2.777  10.552  0.00  0.00    +0.000 C 
BRANCH  13  14
ATOM     14  C   UNL     1      44.846   2.974   9.381  0.00  0.00    +0.000 A 
ATOM     15  C   UNL     1      45.022   4.239   8.821  0.00  0.00    +0.000 A 
ATOM     16  N   UNL     1      45.871   4.481   7.791  0.00  0.00    +0.000 NA
ATOM     17  C   UNL     1      46.551   3.404   7.327  0.00  0.00    +0.000 A 
ATOM     18  CA  UNL     1      46.384   2.148   7.879  0.00  0.00    +0.000 A 
ATOM     19  N   UNL     1      45.534   1.894   8.923  0.00  0.00    +0.000 NA
BRANCH  18  20
ATOM     20  C   UNL     1      47.145   0.991   7.352  0.00  0.00    +0.000 C 
ATOM     21  O   UNL     1      46.890  -0.175   7.588  0.00  0.00    +0.000 OA
BRANCH  20  22
ATOM     22  OXT UNL     1      48.166   1.412   6.565  0.00  0.00    +0.000 OA
ATOM     23  HXT UNL     1      47.807   1.708   5.696  0.00  0.00    +0.000 HD
ENDBRANCH  20  22
ENDBRANCH  18  20
ENDBRANCH  13  14
ENDBRANCH   1  13
TORSDOF 8
ENDMDL
MODEL 6
REMARK VINA RESULT:    -7.019      1.909      2.588
REMARK INTER + INTRA:         -10.516
REMARK INTER:                 -10.007
REMARK INTRA:                  -0.510
REMARK UNBOUND:                -0.625
REMARK  Name = 
REMARK  8 active torsions:
REMARK  status: ('A' for Active; 'I' for Inactive)
REMARK    1  A    between atoms: N_1  and  C_2
REMARK    2  A    between atoms: C_2  and  C_3
REMARK    3  A    between atoms: C_7  and  O_8
REMARK    4  A    between atoms: O_8  and  C_9
REMARK    5  A    between atoms: C_9  and  C_10
REMARK    6  A    between atoms: C_10  and  C_11
REMARK    7  A    between atoms: CA_15  and  C_16
REMARK    8  A    between atoms: C_16  and  OXT_18
REMARK                            x       y       z     vdW  Elec       q    Type
REMARK                         _______ _______ _______ _____ _____    ______ ____
ROOT
ATOM      1  C   UNL     1      43.982   4.272  10.316  0.00  0.00    +0.000 C 
ENDROOT
BRANCH   1   2
ATOM      2  O   UNL     1      44.182   4.343   8.902  0.00  0.00    +0.000 OA
BRANCH   2   7
ATOM      3  C   UNL     1      46.650   2.550   6.777  0.00  0.00    +0.000 A 
ATOM      4  C   UNL     1      46.682   1.385   7.534  0.00  0.00    +0.000 A 
ATOM      5  N   UNL     1      45.958   1.192   8.658  0.00  0.00    +0.000 NA
ATOM      6  C   UNL     1      45.158   2.215   9.045  0.00  0.00    +0.000 A 
ATOM      7  C   UNL     1      45.043   3.425   8.369  0.00  0.00    +0.000 A 
ATOM      8  C   UNL     1      45.809   3.584   7.216  0.00  0.00    +0.000 A 
BRANCH   3   9
ATOM      9  C   UNL     1      47.455   2.690   5.518  0.00  0.00    +0.000 C 
BRANCH   9  10
ATOM     10  N   UNL     1      48.551   1.729   5.467  0.00  0.00    +0.000 NA
ATOM     11  H   UNL     1      48.421   1.116   4.664  0.00  0.00    +0.000 HD
ATOM     12  H   UNL     1      48.505   1.128   6.291  0.00  0.00    +0.000 HD
ENDBRANCH   9  10
ENDBRANCH   3   9
ENDBRANCH   2   7
ENDBRANCH   1   2
BRANCH   1  13
ATOM     13  C   UNL     1      44.400   5.601  10.939  0.00  0.00    +0.000 C 
BRANCH  13  14
ATOM     14  C   UNL     1      45.338   5.379  12.092  0.00  0.00    +0.000 A 
ATOM     15  C   UNL     1      45.073   4.395  13.044  0.00  0.00    +0.000 A 
ATOM     16  N   UNL     1      45.905   4.125  14.081  0.00  0.00    +0.000 NA
ATOM     17  C   UNL     1      47.028   4.880  14.142  0.00  0.00    +0.000 A 
ATOM     18  CA  UNL     1      47.300   5.855  13.200  0.00  0.00    +0.000 A 
ATOM     19  N   UNL     1      46.470   6.132  12.146  0.00  0.00    +0.000 NA
BRANCH  18  20
ATOM     20  C   UNL     1      48.539   6.661  13.293  0.00  0.00    +0.000 C 
ATOM     21  O   UNL     1      49.350   6.588  14.197  0.00  0.00    +0.000 OA
BRANCH  20  22
ATOM     22  OXT UNL     1      48.646   7.493  12.227  0.00  0.00    +0.000 OA
ATOM     23  HXT UNL     1      49.197   8.273  12.476  0.00  0.00    +0.000 HD
ENDBRANCH  20  22
ENDBRANCH  18  20
ENDBRANCH  13  14
ENDBRANCH   1  13
TORSDOF 8
ENDMDL
MODEL 7
REMARK VINA RESULT:    -6.418      3.087      4.149
REMARK INTER + INTRA:          -9.669
REMARK INTER:                  -9.289
REMARK INTRA:                  -0.380
REMARK UNBOUND:                -0.625
REMARK  Name = 
REMARK  8 active torsions:
REMARK  status: ('A' for Active; 'I' for Inactive)
REMARK    1  A    between atoms: N_1  and  C_2
REMARK    2  A    between atoms: C_2  and  C_3
REMARK    3  A    between atoms: C_7  and  O_8
REMARK    4  A    between atoms: O_8  and  C_9
REMARK    5  A    between atoms: C_9  and  C_10
REMARK    6  A    between atoms: C_10  and  C_11
REMARK    7  A    between atoms: CA_15  and  C_16
REMARK    8  A    between atoms: C_16  and  OXT_18
REMARK                            x       y       z     vdW  Elec       q    Type
REMARK                         _______ _______ _______ _____ _____    ______ ____
ROOT
ATOM      1  C   UNL     1      44.198   4.738  10.554  0.00  0.00    +0.000 C 
ENDROOT
BRANCH   1   2
ATOM      2  O   UNL     1      44.128   4.497   9.146  0.00  0.00    +0.000 OA
BRANCH   2   7
ATOM      3  C   UNL     1      46.812   2.689   7.317  0.00  0.00    +0.000 A 
ATOM      4  C   UNL     1      46.528   1.431   7.836  0.00  0.00    +0.000 A 
ATOM      5  N   UNL     1      45.537   1.183   8.721  0.00  0.00    +0.000 NA
ATOM      6  C   UNL     1      44.791   2.247   9.105  0.00  0.00    +0.000 A 
ATOM      7  C   UNL     1      44.981   3.548   8.654  0.00  0.00    +0.000 A 
ATOM      8  C   UNL     1      46.014   3.761   7.745  0.00  0.00    +0.000 A 
BRANCH   3   9
ATOM      9  C   UNL     1      47.907   2.892   6.311  0.00  0.00    +0.000 C 
BRANCH   9  10
ATOM     10  N   UNL     1      48.429   1.623   5.815  0.00  0.00    +0.000 NA
ATOM     11  H   UNL     1      49.013   1.799   4.999  0.00  0.00    +0.000 HD
ATOM     12  H   UNL     1      47.652   1.049   5.487  0.00  0.00    +0.000 HD
ENDBRANCH   9  10
ENDBRANCH   3   9
ENDBRANCH   2   7
ENDBRANCH   1   2
BRANCH   1  13
ATOM     13  C   UNL     1      45.610   5.197  10.903  0.00  0.00    +0.000 C 
BRANCH  13  14
ATOM     14  C   UNL     1      45.583   6.530  11.599  0.00  0.00    +0.000 A 
ATOM     15  C   UNL     1      46.453   6.796  12.657  0.00  0.00    +0.000 A 
ATOM     16  N   UNL     1      46.500   7.992  13.293  0.00  0.00    +0.000 NA
ATOM     17  C   UNL     1      45.639   8.933  12.835  0.00  0.00    +0.000 A 
ATOM     18  CA  UNL     1      44.776   8.678  11.785  0.00  0.00    +0.000 A 
ATOM     19  N   UNL     1      44.725   7.475  11.132  0.00  0.00    +0.000 NA
BRANCH  18  20
ATOM     20  C   UNL     1      43.849   9.729  11.305  0.00  0.00    +0.000 C 
ATOM     21  O   UNL     1      43.654  10.793  11.863  0.00  0.00    +0.000 OA
BRANCH  20  22
ATOM     22  OXT UNL     1      43.247   9.342  10.153  0.00  0.00    +0.000 OA
ATOM     23  HXT UNL     1      42.917  10.140   9.675  0.00  0.00    +0.000 HD
ENDBRANCH  20  22
ENDBRANCH  18  20
ENDBRANCH  13  14
ENDBRANCH   1  13
TORSDOF 8
ENDMDL
MODEL 8
REMARK VINA RESULT:    -6.388      1.941      3.111
REMARK INTER + INTRA:          -9.627
REMARK INTER:                  -9.218
REMARK INTRA:                  -0.408
REMARK UNBOUND:                -0.625
REMARK  Name = 
REMARK  8 active torsions:
REMARK  status: ('A' for Active; 'I' for Inactive)
REMARK    1  A    between atoms: N_1  and  C_2
REMARK    2  A    between atoms: C_2  and  C_3
REMARK    3  A    between atoms: C_7  and  O_8
REMARK    4  A    between atoms: O_8  and  C_9
REMARK    5  A    between atoms: C_9  and  C_10
REMARK    6  A    between atoms: C_10  and  C_11
REMARK    7  A    between atoms: CA_15  and  C_16
REMARK    8  A    between atoms: C_16  and  OXT_18
REMARK                            x       y       z     vdW  Elec       q    Type
REMARK                         _______ _______ _______ _____ _____    ______ ____
ROOT
ATOM      1  C   UNL     1      45.189   6.205  12.650  0.00  0.00    +0.000 C 
ENDROOT
BRANCH   1   2
ATOM      2  O   UNL     1      44.576   6.233  11.359  0.00  0.00    +0.000 OA
BRANCH   2   7
ATOM      3  C   UNL     1      45.165   3.566   8.837  0.00  0.00    +0.000 A 
ATOM      4  C   UNL     1      44.423   2.582   9.482  0.00  0.00    +0.000 A 
ATOM      5  N   UNL     1      43.778   2.767  10.655  0.00  0.00    +0.000 NA
ATOM      6  C   UNL     1      43.878   3.999  11.211  0.00  0.00    +0.000 A 
ATOM      7  C   UNL     1      44.589   5.059  10.660  0.00  0.00    +0.000 A 
ATOM      8  C   UNL     1      45.241   4.825   9.451  0.00  0.00    +0.000 A 
BRANCH   3   9
ATOM      9  C   UNL     1      45.831   3.306   7.518  0.00  0.00    +0.000 C 
BRANCH   9  10
ATOM     10  N   UNL     1      46.839   4.315   7.212  0.00  0.00    +0.000 NA
ATOM     11  H   UNL     1      47.504   3.931   6.543  0.00  0.00    +0.000 HD
ATOM     12  H   UNL     1      47.374   4.518   8.057  0.00  0.00    +0.000 HD
ENDBRANCH   9  10
ENDBRANCH   3   9
ENDBRANCH   2   7
ENDBRANCH   1   2
BRANCH   1  13
ATOM     13  C   UNL     1      46.671   5.884  12.483  0.00  0.00    +0.000 C 
BRANCH  13  14
ATOM     14  C   UNL     1      47.345   5.756  13.821  0.00  0.00    +0.000 A 
ATOM     15  C   UNL     1      48.104   6.806  14.337  0.00  0.00    +0.000 A 
ATOM     16  N   UNL     1      48.699   6.760  15.555  0.00  0.00    +0.000 NA
ATOM     17  C   UNL     1      48.512   5.616  16.255  0.00  0.00    +0.000 A 
ATOM     18  CA  UNL     1      47.757   4.572  15.752  0.00  0.00    +0.000 A 
ATOM     19  N   UNL     1      47.148   4.610  14.526  0.00  0.00    +0.000 NA
BRANCH  18  20
ATOM     20  C   UNL     1      47.569   3.335  16.544  0.00  0.00    +0.000 C 
ATOM     21  O   UNL     1      46.658   3.143  17.329  0.00  0.00    +0.000 OA
BRANCH  20  22
ATOM     22  OXT UNL     1      48.551   2.440  16.271  0.00  0.00    +0.000 OA
ATOM     23  HXT UNL     1      48.486   1.683  16.901  0.00  0.00    +0.000 HD
ENDBRANCH  20  22
ENDBRANCH  18  20
ENDBRANCH  13  14
ENDBRANCH   1  13
TORSDOF 8
ENDMDL
MODEL 9
REMARK VINA RESULT:    -6.139      2.493      6.866
REMARK INTER + INTRA:          -9.276
REMARK INTER:                  -8.822
REMARK INTRA:                  -0.454
REMARK UNBOUND:                -0.625
REMARK  Name = 
REMARK  8 active torsions:
REMARK  status: ('A' for Active; 'I' for Inactive)
REMARK    1  A    between atoms: N_1  and  C_2
REMARK    2  A    between atoms: C_2  and  C_3
REMARK    3  A    between atoms: C_7  and  O_8
REMARK    4  A    between atoms: O_8  and  C_9
REMARK    5  A    between atoms: C_9  and  C_10
REMARK    6  A    between atoms: C_10  and  C_11
REMARK    7  A    between atoms: CA_15  and  C_16
REMARK    8  A    between atoms: C_16  and  OXT_18
REMARK                            x       y       z     vdW  Elec       q    Type
REMARK                         _______ _______ _______ _____ _____    ______ ____
ROOT
ATOM      1  C   UNL     1      45.046   6.227  12.601  0.00  0.00    +0.000 C 
ENDROOT
BRANCH   1   2
ATOM      2  O   UNL     1      46.337   5.615  12.543  0.00  0.00    +0.000 OA
BRANCH   2   7
ATOM      3  C   UNL     1      47.542   4.580  15.904  0.00  0.00    +0.000 A 
ATOM      4  C   UNL     1      48.522   5.559  16.021  0.00  0.00    +0.000 A 
ATOM      5  N   UNL     1      48.779   6.490  15.075  0.00  0.00    +0.000 NA
ATOM      6  C   UNL     1      48.016   6.441  13.957  0.00  0.00    +0.000 A 
ATOM      7  C   UNL     1      47.009   5.510  13.729  0.00  0.00    +0.000 A 
ATOM      8  C   UNL     1      46.778   4.567  14.728  0.00  0.00    +0.000 A 
BRANCH   3   9
ATOM      9  C   UNL     1      47.284   3.594  17.006  0.00  0.00    +0.000 C 
BRANCH   9  10
ATOM     10  N   UNL     1      46.814   4.251  18.221  0.00  0.00    +0.000 NA
ATOM     11  H   UNL     1      45.914   4.690  18.035  0.00  0.00    +0.000 HD
ATOM     12  H   UNL     1      47.454   5.009  18.457  0.00  0.00    +0.000 HD
ENDBRANCH   9  10
ENDBRANCH   3   9
ENDBRANCH   2   7
ENDBRANCH   1   2
BRANCH   1  13
ATOM     13  C   UNL     1      44.455   6.261  11.196  0.00  0.00    +0.000 C 
BRANCH  13  14
ATOM     14  C   UNL     1      44.516   4.902  10.555  0.00  0.00    +0.000 A 
ATOM     15  C   UNL     1      43.732   3.854  11.037  0.00  0.00    +0.000 A 
ATOM     16  N   UNL     1      43.717   2.621  10.473  0.00  0.00    +0.000 NA
ATOM     17  C   UNL     1      44.522   2.460   9.395  0.00  0.00    +0.000 A 
ATOM     18  CA  UNL     1      45.300   3.496   8.909  0.00  0.00    +0.000 A 
ATOM     19  N   UNL     1      45.318   4.747   9.468  0.00  0.00    +0.000 NA
BRANCH  18  20
ATOM     20  C   UNL     1      46.167   3.289   7.726  0.00  0.00    +0.000 C 
ATOM     21  O   UNL     1      46.556   2.207   7.330  0.00  0.00    +0.000 OA
BRANCH  20  22
ATOM     22  OXT UNL     1      46.466   4.476   7.143  0.00  0.00    +0.000 OA
ATOM     23  HXT UNL     1      45.751   5.127   7.342  0.00  0.00    +0.000 HD
ENDBRANCH  20  22
ENDBRANCH  18  20
ENDBRANCH  13  14
ENDBRANCH   1  13
TORSDOF 8
ENDMDL
