MODEL 1
REMARK VINA RESULT:    -8.179      0.000      0.000
REMARK INTER + INTRA:         -11.609
REMARK INTER:                 -10.570
REMARK INTRA:                  -1.039
REMARK UNBOUND:                -1.039
REMARK  Name = 
REMARK  5 active torsions:
REMARK  status: ('A' for Active; 'I' for Inactive)
REMARK    1  A    between atoms: C_2  and  C_3
REMARK    2  A    between atoms: C_6  and  C_7
REMARK    3  A    between atoms: C_11  and  C_12
REMARK    4  A    between atoms: C_12  and  N_13
REMARK    5  A    between atoms: C_17  and  C_18
REMARK                            x       y       z     vdW  Elec       q    Type
REMARK                         _______ _______ _______ _____ _____    ______ ____
ROOT
ATOM      1  C   UNL     1      44.063   4.788  11.870  0.00  0.00    +0.000 C 
ATOM      2  C   UNL     1      42.753   5.104  12.594  0.00  0.00    +0.000 C 
ATOM      3  C   UNL     1      43.331   6.100  11.653  0.00  0.00    +0.000 C 
ATOM      4  F   UNL     1      42.677   6.304  10.451  0.00  0.00    +0.000 F 
ENDROOT
BRANCH   1   5
ATOM      5  N   UNL     1      43.960   3.632  10.949  0.00  0.00    +0.000 N 
ATOM      6  C   UNL     1      44.811   3.407   9.867  0.00  0.00    +0.000 A 
ATOM      7  C   UNL     1      45.353   4.433   9.105  0.00  0.00    +0.000 A 
ATOM      8  C   UNL     1      46.137   4.118   7.993  0.00  0.00    +0.000 A 
ATOM      9  C   UNL     1      46.360   2.782   7.667  0.00  0.00    +0.000 A 
ATOM     10  C   UNL     1      45.773   1.819   8.471  0.00  0.00    +0.000 A 
ATOM     11  N   UNL     1      45.017   2.107   9.563  0.00  0.00    +0.000 NA
ATOM     12  H   UNL     1      43.741   2.723  11.343  0.00  0.00    +0.000 HD
BRANCH   9  13
ATOM     13  C   UNL     1      47.154   2.357   6.493  0.00  0.00    +0.000 C 
ATOM     14  N   UNL     1      47.148   3.187   5.405  0.00  0.00    +0.000 N 
ATOM     15  O   UNL     1      47.810   1.328   6.502  0.00  0.00    +0.000 OA
ATOM     16  H   UNL     1      46.795   4.134   5.432  0.00  0.00    +0.000 HD
ATOM     17  H   UNL     1      47.742   2.927   4.627  0.00  0.00    +0.000 HD
ENDBRANCH   9  13
ENDBRANCH   1   5
BRANCH   1  22
ATOM     18  C   UNL     1      47.516   5.917  13.148  0.00  0.00    +0.000 A 
ATOM     19  C   UNL     1      47.737   4.916  14.099  0.00  0.00    +0.000 A 
ATOM     20  C   UNL     1      46.759   3.963  14.313  0.00  0.00    +0.000 A 
ATOM     21  N   UNL     1      45.587   3.931  13.650  0.00  0.00    +0.000 NA
ATOM     22  C   UNL     1      45.351   4.878  12.704  0.00  0.00    +0.000 A 
ATOM     23  C   UNL     1      46.299   5.873  12.449  0.00  0.00    +0.000 A 
BRANCH  18  27
ATOM     24  C   UNL     1      50.432   8.915  12.422  0.00  0.00    +0.000 A 
ATOM     25  C   UNL     1      49.499   8.664  11.431  0.00  0.00    +0.000 A 
ATOM     26  C   UNL     1      48.530   7.686  11.667  0.00  0.00    +0.000 A 
ATOM     27  C   UNL     1      48.515   6.966  12.874  0.00  0.00    +0.000 A 
ATOM     28  C   UNL     1      49.515   7.306  13.793  0.00  0.00    +0.000 A 
ATOM     29  N   UNL     1      50.462   8.259  13.599  0.00  0.00    +0.000 NA
BRANCH  24  31
ATOM     30  N   UNL     1      52.292  10.696  12.094  0.00  0.00    +0.000 NA
ATOM     31  C   UNL     1      51.443   9.912  12.232  0.00  0.00    +0.000 C 
ENDBRANCH  24  31
ENDBRANCH  18  27
ENDBRANCH   1  22
TORSDOF 5
ENDMDL
MODEL 2
REMARK VINA RESULT:    -7.568      2.432      3.764
REMARK INTER + INTRA:         -10.819
REMARK INTER:                 -11.031
REMARK INTRA:                   0.212
REMARK UNBOUND:                -1.039
REMARK  Name = 
REMARK  5 active torsions:
REMARK  status: ('A' for Active; 'I' for Inactive)
REMARK    1  A    between atoms: C_2  and  C_3
REMARK    2  A    between atoms: C_6  and  C_7
REMARK    3  A    between atoms: C_11  and  C_12
REMARK    4  A    between atoms: C_12  and  N_13
REMARK    5  A    between atoms: C_17  and  C_18
REMARK                            x       y       z     vdW  Elec       q    Type
REMARK                         _______ _______ _______ _____ _____    ______ ____
ROOT
ATOM      1  C   UNL     1      44.085   4.536  11.969  0.00  0.00    +0.000 C 
ATOM      2  C   UNL     1      43.079   4.357  13.108  0.00  0.00    +0.000 C 
ATOM      3  C   UNL     1      42.881   5.448  12.117  0.00  0.00    +0.000 C 
ATOM      4  F   UNL     1      41.837   5.319  11.218  0.00  0.00    +0.000 F 
ENDROOT
BRANCH   1   5
ATOM      5  N   UNL     1      44.130   3.383  11.039  0.00  0.00    +0.000 N 
ATOM      6  C   UNL     1      44.911   3.332   9.885  0.00  0.00    +0.000 A 
ATOM      7  C   UNL     1      45.174   4.446   9.099  0.00  0.00    +0.000 A 
ATOM      8  C   UNL     1      45.906   4.292   7.919  0.00  0.00    +0.000 A 
ATOM      9  C   UNL     1      46.356   3.027   7.550  0.00  0.00    +0.000 A 
ATOM     10  C   UNL     1      46.040   1.966   8.382  0.00  0.00    +0.000 A 
ATOM     11  N   UNL     1      45.340   2.098   9.540  0.00  0.00    +0.000 NA
ATOM     12  H   UNL     1      44.128   2.449  11.434  0.00  0.00    +0.000 HD
BRANCH   9  13
ATOM     13  C   UNL     1      47.112   2.768   6.305  0.00  0.00    +0.000 C 
ATOM     14  N   UNL     1      48.437   2.455   6.436  0.00  0.00    +0.000 N 
ATOM     15  O   UNL     1      46.573   2.802   5.210  0.00  0.00    +0.000 OA
ATOM     16  H   UNL     1      48.865   2.213   7.319  0.00  0.00    +0.000 HD
ATOM     17  H   UNL     1      48.938   2.215   5.589  0.00  0.00    +0.000 HD
ENDBRANCH   9  13
ENDBRANCH   1   5
BRANCH   1  22
ATOM     18  C   UNL     1      47.212   5.560  13.972  0.00  0.00    +0.000 A 
ATOM     19  C   UNL     1      47.789   6.435  13.047  0.00  0.00    +0.000 A 
ATOM     20  C   UNL     1      47.177   6.620  11.822  0.00  0.00    +0.000 A 
ATOM     21  N   UNL     1      46.037   6.003  11.453  0.00  0.00    +0.000 NA
ATOM     22  C   UNL     1      45.440   5.162  12.339  0.00  0.00    +0.000 A 
ATOM     23  C   UNL     1      46.016   4.929  13.591  0.00  0.00    +0.000 A 
BRANCH  18  27
ATOM     24  C   UNL     1      48.973   4.926  17.782  0.00  0.00    +0.000 A 
ATOM     25  C   UNL     1      48.118   3.954  17.292  0.00  0.00    +0.000 A 
ATOM     26  C   UNL     1      47.543   4.150  16.035  0.00  0.00    +0.000 A 
ATOM     27  C   UNL     1      47.815   5.314  15.294  0.00  0.00    +0.000 A 
ATOM     28  C   UNL     1      48.687   6.225  15.901  0.00  0.00    +0.000 A 
ATOM     29  N   UNL     1      49.272   6.058  17.114  0.00  0.00    +0.000 NA
BRANCH  24  31
ATOM     30  N   UNL     1      50.127   4.625  20.088  0.00  0.00    +0.000 NA
ATOM     31  C   UNL     1      49.593   4.770  19.064  0.00  0.00    +0.000 C 
ENDBRANCH  24  31
ENDBRANCH  18  27
ENDBRANCH   1  22
TORSDOF 5
ENDMDL
MODEL 3
REMARK VINA RESULT:    -6.658      4.816      8.828
REMARK INTER + INTRA:          -9.643
REMARK INTER:                  -8.598
REMARK INTRA:                  -1.045
REMARK UNBOUND:                -1.039
REMARK  Name = 
REMARK  5 active torsions:
REMARK  status: ('A' for Active; 'I' for Inactive)
REMARK    1  A    between atoms: C_2  and  C_3
REMARK    2  A    between atoms: C_6  and  C_7
REMARK    3  A    between atoms: C_11  and  C_12
REMARK    4  A    between atoms: C_12  and  N_13
REMARK    5  A    between atoms: C_17  and  C_18
REMARK                            x       y       z     vdW  Elec       q    Type
REMARK                         _______ _______ _______ _____ _____    ______ ____
ROOT
ATOM      1  C   UNL     1      49.555   7.232  17.364  0.00  0.00    +0.000 C 
ATOM      2  C   UNL     1      49.198   8.543  18.068  0.00  0.00    +0.000 C 
ATOM      3  C   UNL     1      48.298   7.367  18.205  0.00  0.00    +0.000 C 
ATOM      4  F   UNL     1      48.251   6.733  19.434  0.00  0.00    +0.000 F 
ENDROOT
BRANCH   1   5
ATOM      5  N   UNL     1      50.811   6.622  17.862  0.00  0.00    +0.000 N 
ATOM      6  C   UNL     1      51.122   5.267  17.763  0.00  0.00    +0.000 A 
ATOM      7  C   UNL     1      50.168   4.262  17.855  0.00  0.00    +0.000 A 
ATOM      8  C   UNL     1      50.576   2.927  17.820  0.00  0.00    +0.000 A 
ATOM      9  C   UNL     1      51.930   2.626  17.694  0.00  0.00    +0.000 A 
ATOM     10  C   UNL     1      52.818   3.686  17.621  0.00  0.00    +0.000 A 
ATOM     11  N   UNL     1      52.440   4.991  17.642  0.00  0.00    +0.000 NA
ATOM     12  H   UNL     1      51.678   7.133  17.727  0.00  0.00    +0.000 HD
BRANCH   9  13
ATOM     13  C   UNL     1      52.453   1.241  17.675  0.00  0.00    +0.000 C 
ATOM     14  N   UNL     1      51.608   0.252  18.099  0.00  0.00    +0.000 N 
ATOM     15  O   UNL     1      53.577   0.987  17.273  0.00  0.00    +0.000 OA
ATOM     16  H   UNL     1      50.617   0.391  18.238  0.00  0.00    +0.000 HD
ATOM     17  H   UNL     1      51.945  -0.700  18.025  0.00  0.00    +0.000 HD
ENDBRANCH   9  13
ENDBRANCH   1   5
BRANCH   1  22
ATOM     18  C   UNL     1      48.129   6.304  13.909  0.00  0.00    +0.000 A 
ATOM     19  C   UNL     1      49.057   6.968  13.102  0.00  0.00    +0.000 A 
ATOM     20  C   UNL     1      50.060   7.710  13.699  0.00  0.00    +0.000 A 
ATOM     21  N   UNL     1      50.207   7.834  15.032  0.00  0.00    +0.000 NA
ATOM     22  C   UNL     1      49.333   7.182  15.844  0.00  0.00    +0.000 A 
ATOM     23  C   UNL     1      48.294   6.423  15.299  0.00  0.00    +0.000 A 
BRANCH  18  27
ATOM     24  C   UNL     1      44.984   3.936  12.321  0.00  0.00    +0.000 A 
ATOM     25  C   UNL     1      45.136   5.223  11.835  0.00  0.00    +0.000 A 
ATOM     26  C   UNL     1      46.176   6.005  12.345  0.00  0.00    +0.000 A 
ATOM     27  C   UNL     1      47.033   5.500  13.338  0.00  0.00    +0.000 A 
ATOM     28  C   UNL     1      46.771   4.189  13.753  0.00  0.00    +0.000 A 
ATOM     29  N   UNL     1      45.779   3.400  13.268  0.00  0.00    +0.000 NA
BRANCH  24  31
ATOM     30  N   UNL     1      43.063   2.438  11.424  0.00  0.00    +0.000 NA
ATOM     31  C   UNL     1      43.937   3.092  11.827  0.00  0.00    +0.000 C 
ENDBRANCH  24  31
ENDBRANCH  18  27
ENDBRANCH   1  22
TORSDOF 5
ENDMDL
MODEL 4
REMARK VINA RESULT:    -6.111      4.188      6.690
REMARK INTER + INTRA:          -8.936
REMARK INTER:                  -7.946
REMARK INTRA:                  -0.990
REMARK UNBOUND:                -1.039
REMARK  Name = 
REMARK  5 active torsions:
REMARK  status: ('A' for Active; 'I' for Inactive)
REMARK    1  A    between atoms: C_2  and  C_3
REMARK    2  A    between atoms: C_6  and  C_7
REMARK    3  A    between atoms: C_11  and  C_12
REMARK    4  A    between atoms: C_12  and  N_13
REMARK    5  A    between atoms: C_17  and  C_18
REMARK                            x       y       z     vdW  Elec       q    Type
REMARK                         _______ _______ _______ _____ _____    ______ ____
ROOT
ATOM      1  C   UNL     1      48.899   8.407  12.945  0.00  0.00    +0.000 C 
ATOM      2  C   UNL     1      49.730   9.535  12.329  0.00  0.00    +0.000 C 
ATOM      3  C   UNL     1      50.155   8.123  12.141  0.00  0.00    +0.000 C 
ATOM      4  F   UNL     1      50.023   7.575  10.877  0.00  0.00    +0.000 F 
ENDROOT
BRANCH   1   5
ATOM      5  N   UNL     1      47.530   8.314  12.385  0.00  0.00    +0.000 N 
ATOM      6  C   UNL     1      46.671   7.234  12.582  0.00  0.00    +0.000 A 
ATOM      7  C   UNL     1      47.114   5.923  12.682  0.00  0.00    +0.000 A 
ATOM      8  C   UNL     1      46.178   4.892  12.805  0.00  0.00    +0.000 A 
ATOM      9  C   UNL     1      44.820   5.198  12.823  0.00  0.00    +0.000 A 
ATOM     10  C   UNL     1      44.460   6.530  12.705  0.00  0.00    +0.000 A 
ATOM     11  N   UNL     1      45.356   7.547  12.597  0.00  0.00    +0.000 NA
ATOM     12  H   UNL     1      46.956   9.151  12.383  0.00  0.00    +0.000 HD
BRANCH   9  13
ATOM     13  C   UNL     1      43.760   4.169  12.922  0.00  0.00    +0.000 C 
ATOM     14  N   UNL     1      44.103   2.890  12.580  0.00  0.00    +0.000 N 
ATOM     15  O   UNL     1      42.638   4.442  13.319  0.00  0.00    +0.000 OA
ATOM     16  H   UNL     1      45.057   2.587  12.451  0.00  0.00    +0.000 HD
ATOM     17  H   UNL     1      43.395   2.176  12.709  0.00  0.00    +0.000 HD
ENDBRANCH   9  13
ENDBRANCH   1   5
BRANCH   1  22
ATOM     18  C   UNL     1      49.817   6.898  16.367  0.00  0.00    +0.000 A 
ATOM     19  C   UNL     1      49.098   7.769  17.192  0.00  0.00    +0.000 A 
ATOM     20  C   UNL     1      48.397   8.813  16.619  0.00  0.00    +0.000 A 
ATOM     21  N   UNL     1      48.355   9.050  15.294  0.00  0.00    +0.000 NA
ATOM     22  C   UNL     1      49.026   8.208  14.464  0.00  0.00    +0.000 A 
ATOM     23  C   UNL     1      49.760   7.139  14.985  0.00  0.00    +0.000 A 
BRANCH  18  27
ATOM     24  C   UNL     1      52.106   3.687  17.939  0.00  0.00    +0.000 A 
ATOM     25  C   UNL     1      50.729   3.548  17.906  0.00  0.00    +0.000 A 
ATOM     26  C   UNL     1      49.969   4.595  17.381  0.00  0.00    +0.000 A 
ATOM     27  C   UNL     1      50.590   5.767  16.913  0.00  0.00    +0.000 A 
ATOM     28  C   UNL     1      51.986   5.791  17.007  0.00  0.00    +0.000 A 
ATOM     29  N   UNL     1      52.752   4.785  17.500  0.00  0.00    +0.000 NA
BRANCH  24  31
ATOM     30  N   UNL     1      53.576   1.761  18.871  0.00  0.00    +0.000 NA
ATOM     31  C   UNL     1      52.930   2.639  18.463  0.00  0.00    +0.000 C 
ENDBRANCH  24  31
ENDBRANCH  18  27
ENDBRANCH   1  22
TORSDOF 5
ENDMDL
MODEL 5
REMARK VINA RESULT:    -6.024      4.408      8.883
REMARK INTER + INTRA:          -8.824
REMARK INTER:                  -8.036
REMARK INTRA:                  -0.788
REMARK UNBOUND:                -1.039
REMARK  Name = 
REMARK  5 active torsions:
REMARK  status: ('A' for Active; 'I' for Inactive)
REMARK    1  A    between atoms: C_2  and  C_3
REMARK    2  A    between atoms: C_6  and  C_7
REMARK    3  A    between atoms: C_11  and  C_12
REMARK    4  A    between atoms: C_12  and  N_13
REMARK    5  A    between atoms: C_17  and  C_18
REMARK                            x       y       z     vdW  Elec       q    Type
REMARK                         _______ _______ _______ _____ _____    ______ ____
ROOT
ATOM      1  C   UNL     1      50.428   8.489  13.770  0.00  0.00    +0.000 C 
ATOM      2  C   UNL     1      51.579   8.688  12.782  0.00  0.00    +0.000 C 
ATOM      3  C   UNL     1      51.276   9.748  13.779  0.00  0.00    +0.000 C 
ATOM      4  F   UNL     1      52.176   9.935  14.813  0.00  0.00    +0.000 F 
ENDROOT
BRANCH   1   5
ATOM      5  N   UNL     1      50.641   7.353  14.697  0.00  0.00    +0.000 N 
ATOM      6  C   UNL     1      49.894   7.127  15.852  0.00  0.00    +0.000 A 
ATOM      7  C   UNL     1      49.393   8.153  16.642  0.00  0.00    +0.000 A 
ATOM      8  C   UNL     1      48.717   7.839  17.824  0.00  0.00    +0.000 A 
ATOM      9  C   UNL     1      48.558   6.505  18.189  0.00  0.00    +0.000 A 
ATOM     10  C   UNL     1      49.098   5.542  17.353  0.00  0.00    +0.000 A 
ATOM     11  N   UNL     1      49.748   5.828  16.194  0.00  0.00    +0.000 NA
ATOM     12  H   UNL     1      50.848   6.442  14.299  0.00  0.00    +0.000 HD
BRANCH   9  13
ATOM     13  C   UNL     1      47.881   6.082  19.435  0.00  0.00    +0.000 C 
ATOM     14  N   UNL     1      46.694   5.415  19.301  0.00  0.00    +0.000 N 
ATOM     15  O   UNL     1      48.372   6.291  20.533  0.00  0.00    +0.000 OA
ATOM     16  H   UNL     1      46.363   5.043  18.423  0.00  0.00    +0.000 HD
ATOM     17  H   UNL     1      46.264   5.071  20.152  0.00  0.00    +0.000 HD
ENDBRANCH   9  13
ENDBRANCH   1   5
BRANCH   1  22
ATOM     18  C   UNL     1      46.924   7.664  12.403  0.00  0.00    +0.000 A 
ATOM     19  C   UNL     1      46.516   8.953  12.049  0.00  0.00    +0.000 A 
ATOM     20  C   UNL     1      47.358  10.020  12.304  0.00  0.00    +0.000 A 
ATOM     21  N   UNL     1      48.571   9.896  12.877  0.00  0.00    +0.000 NA
ATOM     22  C   UNL     1      49.005   8.652  13.213  0.00  0.00    +0.000 A 
ATOM     23  C   UNL     1      48.195   7.536  12.987  0.00  0.00    +0.000 A 
BRANCH  18  27
ATOM     24  C   UNL     1      44.459   4.262  11.791  0.00  0.00    +0.000 A 
ATOM     25  C   UNL     1      44.861   4.981  10.679  0.00  0.00    +0.000 A 
ATOM     26  C   UNL     1      45.680   6.096  10.871  0.00  0.00    +0.000 A 
ATOM     27  C   UNL     1      46.073   6.484  12.164  0.00  0.00    +0.000 A 
ATOM     28  C   UNL     1      45.595   5.682  13.207  0.00  0.00    +0.000 A 
ATOM     29  N   UNL     1      44.809   4.586  13.052  0.00  0.00    +0.000 NA
BRANCH  24  31
ATOM     30  N   UNL     1      42.975   2.150  11.518  0.00  0.00    +0.000 NA
ATOM     31  C   UNL     1      43.623   3.108  11.648  0.00  0.00    +0.000 C 
ENDBRANCH  24  31
ENDBRANCH  18  27
ENDBRANCH   1  22
TORSDOF 5
ENDMDL
MODEL 6
REMARK VINA RESULT:    -5.990      5.196      8.571
REMARK INTER + INTRA:          -8.779
REMARK INTER:                  -8.091
REMARK INTRA:                  -0.689
REMARK UNBOUND:                -1.039
REMARK  Name = 
REMARK  5 active torsions:
REMARK  status: ('A' for Active; 'I' for Inactive)
REMARK    1  A    between atoms: C_2  and  C_3
REMARK    2  A    between atoms: C_6  and  C_7
REMARK    3  A    between atoms: C_11  and  C_12
REMARK    4  A    between atoms: C_12  and  N_13
REMARK    5  A    between atoms: C_17  and  C_18
REMARK                            x       y       z     vdW  Elec       q    Type
REMARK                         _______ _______ _______ _____ _____    ______ ____
ROOT
ATOM      1  C   UNL     1      48.507   4.969  17.671  0.00  0.00    +0.000 C 
ATOM      2  C   UNL     1      47.363   5.336  18.618  0.00  0.00    +0.000 C 
ATOM      3  C   UNL     1      47.288   4.079  17.828  0.00  0.00    +0.000 C 
ATOM      4  F   UNL     1      47.424   2.883  18.509  0.00  0.00    +0.000 F 
ENDROOT
BRANCH   1   5
ATOM      5  N   UNL     1      49.792   4.728  18.369  0.00  0.00    +0.000 N 
ATOM      6  C   UNL     1      50.676   3.695  18.059  0.00  0.00    +0.000 A 
ATOM      7  C   UNL     1      50.256   2.445  17.625  0.00  0.00    +0.000 A 
ATOM      8  C   UNL     1      51.206   1.443  17.407  0.00  0.00    +0.000 A 
ATOM      9  C   UNL     1      52.553   1.714  17.629  0.00  0.00    +0.000 A 
ATOM     10  C   UNL     1      52.887   2.983  18.074  0.00  0.00    +0.000 A 
ATOM     11  N   UNL     1      51.980   3.973  18.280  0.00  0.00    +0.000 NA
ATOM     12  H   UNL     1      50.357   5.532  18.623  0.00  0.00    +0.000 HD
BRANCH   9  13
ATOM     13  C   UNL     1      53.622   0.707  17.451  0.00  0.00    +0.000 C 
ATOM     14  N   UNL     1      53.501  -0.459  18.157  0.00  0.00    +0.000 N 
ATOM     15  O   UNL     1      54.555   0.891  16.685  0.00  0.00    +0.000 OA
ATOM     16  H   UNL     1      52.653  -0.735  18.630  0.00  0.00    +0.000 HD
ATOM     17  H   UNL     1      54.199  -1.173  17.985  0.00  0.00    +0.000 HD
ENDBRANCH   9  13
ENDBRANCH   1   5
BRANCH   1  22
ATOM     18  C   UNL     1      47.883   6.080  14.036  0.00  0.00    +0.000 A 
ATOM     19  C   UNL     1      48.872   7.062  13.933  0.00  0.00    +0.000 A 
ATOM     20  C   UNL     1      49.655   7.349  15.036  0.00  0.00    +0.000 A 
ATOM     21  N   UNL     1      49.528   6.729  16.226  0.00  0.00    +0.000 NA
ATOM     22  C   UNL     1      48.589   5.754  16.351  0.00  0.00    +0.000 A 
ATOM     23  C   UNL     1      47.763   5.426  15.273  0.00  0.00    +0.000 A 
BRANCH  18  27
ATOM     24  C   UNL     1      45.338   5.015  10.810  0.00  0.00    +0.000 A 
ATOM     25  C   UNL     1      46.081   6.176  10.694  0.00  0.00    +0.000 A 
ATOM     26  C   UNL     1      46.929   6.528  11.747  0.00  0.00    +0.000 A 
ATOM     27  C   UNL     1      47.011   5.729  12.901  0.00  0.00    +0.000 A 
ATOM     28  C   UNL     1      46.204   4.586  12.902  0.00  0.00    +0.000 A 
ATOM     29  N   UNL     1      45.380   4.210  11.891  0.00  0.00    +0.000 NA
BRANCH  24  31
ATOM     30  N   UNL     1      43.772   4.254   8.885  0.00  0.00    +0.000 NA
ATOM     31  C   UNL     1      44.458   4.607   9.756  0.00  0.00    +0.000 C 
ENDBRANCH  24  31
ENDBRANCH  18  27
ENDBRANCH   1  22
TORSDOF 5
ENDMDL
MODEL 7
REMARK VINA RESULT:    -5.826      2.463      3.344
REMARK INTER + INTRA:          -8.567
REMARK INTER:                  -7.561
REMARK INTRA:                  -1.006
REMARK UNBOUND:                -1.039
REMARK  Name = 
REMARK  5 active torsions:
REMARK  status: ('A' for Active; 'I' for Inactive)
REMARK    1  A    between atoms: C_2  and  C_3
REMARK    2  A    between atoms: C_6  and  C_7
REMARK    3  A    between atoms: C_11  and  C_12
REMARK    4  A    between atoms: C_12  and  N_13
REMARK    5  A    between atoms: C_17  and  C_18
REMARK                            x       y       z     vdW  Elec       q    Type
REMARK                         _______ _______ _______ _____ _____    ______ ____
ROOT
ATOM      1  C   UNL     1      45.476   8.090  12.165  0.00  0.00    +0.000 C 
ATOM      2  C   UNL     1      44.806   9.304  12.811  0.00  0.00    +0.000 C 
ATOM      3  C   UNL     1      45.275   9.387  11.403  0.00  0.00    +0.000 C 
ATOM      4  F   UNL     1      44.316   9.430  10.407  0.00  0.00    +0.000 F 
ENDROOT
BRANCH   1   5
ATOM      5  N   UNL     1      44.574   6.920  12.041  0.00  0.00    +0.000 N 
ATOM      6  C   UNL     1      44.823   5.816  11.226  0.00  0.00    +0.000 A 
ATOM      7  C   UNL     1      45.469   5.911  10.001  0.00  0.00    +0.000 A 
ATOM      8  C   UNL     1      45.612   4.765   9.214  0.00  0.00    +0.000 A 
ATOM      9  C   UNL     1      45.104   3.551   9.669  0.00  0.00    +0.000 A 
ATOM     10  C   UNL     1      44.462   3.545  10.897  0.00  0.00    +0.000 A 
ATOM     11  N   UNL     1      44.323   4.646  11.682  0.00  0.00    +0.000 NA
ATOM     12  H   UNL     1      44.126   6.569  12.882  0.00  0.00    +0.000 HD
BRANCH   9  13
ATOM     13  C   UNL     1      45.186   2.296   8.890  0.00  0.00    +0.000 C 
ATOM     14  N   UNL     1      46.201   2.196   7.978  0.00  0.00    +0.000 N 
ATOM     15  O   UNL     1      44.403   1.377   9.072  0.00  0.00    +0.000 OA
ATOM     16  H   UNL     1      46.982   2.835   7.945  0.00  0.00    +0.000 HD
ATOM     17  H   UNL     1      46.294   1.312   7.492  0.00  0.00    +0.000 HD
ENDBRANCH   9  13
ENDBRANCH   1   5
BRANCH   1  22
ATOM     18  C   UNL     1      49.322   7.893  12.160  0.00  0.00    +0.000 A 
ATOM     19  C   UNL     1      49.503   7.092  13.291  0.00  0.00    +0.000 A 
ATOM     20  C   UNL     1      48.397   6.694  14.019  0.00  0.00    +0.000 A 
ATOM     21  N   UNL     1      47.132   7.030  13.702  0.00  0.00    +0.000 NA
ATOM     22  C   UNL     1      46.921   7.789  12.595  0.00  0.00    +0.000 A 
ATOM     23  C   UNL     1      48.000   8.229  11.823  0.00  0.00    +0.000 A 
BRANCH  18  27
ATOM     24  C   UNL     1      52.584   9.297   9.834  0.00  0.00    +0.000 A 
ATOM     25  C   UNL     1      52.384   7.930   9.914  0.00  0.00    +0.000 A 
ATOM     26  C   UNL     1      51.307   7.460  10.668  0.00  0.00    +0.000 A 
ATOM     27  C   UNL     1      50.458   8.355  11.342  0.00  0.00    +0.000 A 
ATOM     28  C   UNL     1      50.768   9.712  11.191  0.00  0.00    +0.000 A 
ATOM     29  N   UNL     1      51.799  10.200  10.455  0.00  0.00    +0.000 NA
BRANCH  24  31
ATOM     30  N   UNL     1      54.528  10.278   8.421  0.00  0.00    +0.000 NA
ATOM     31  C   UNL     1      53.671   9.830   9.069  0.00  0.00    +0.000 C 
ENDBRANCH  24  31
ENDBRANCH  18  27
ENDBRANCH   1  22
TORSDOF 5
ENDMDL
MODEL 8
REMARK VINA RESULT:    -5.812      3.922      6.061
REMARK INTER + INTRA:          -8.550
REMARK INTER:                  -8.581
REMARK INTRA:                   0.032
REMARK UNBOUND:                -1.039
REMARK  Name = 
REMARK  5 active torsions:
REMARK  status: ('A' for Active; 'I' for Inactive)
REMARK    1  A    between atoms: C_2  and  C_3
REMARK    2  A    between atoms: C_6  and  C_7
REMARK    3  A    between atoms: C_11  and  C_12
REMARK    4  A    between atoms: C_12  and  N_13
REMARK    5  A    between atoms: C_17  and  C_18
REMARK                            x       y       z     vdW  Elec       q    Type
REMARK                         _______ _______ _______ _____ _____    ______ ____
ROOT
ATOM      1  C   UNL     1      45.841   4.786  12.722  0.00  0.00    +0.000 C 
ATOM      2  C   UNL     1      44.438   4.459  13.237  0.00  0.00    +0.000 C 
ATOM      3  C   UNL     1      44.751   4.277  11.795  0.00  0.00    +0.000 C 
ATOM      4  F   UNL     1      44.841   2.983  11.315  0.00  0.00    +0.000 F 
ENDROOT
BRANCH   1   5
ATOM      5  N   UNL     1      46.895   3.920  13.300  0.00  0.00    +0.000 N 
ATOM      6  C   UNL     1      47.330   3.985  14.623  0.00  0.00    +0.000 A 
ATOM      7  C   UNL     1      47.401   5.172  15.339  0.00  0.00    +0.000 A 
ATOM      8  C   UNL     1      47.919   5.158  16.637  0.00  0.00    +0.000 A 
ATOM      9  C   UNL     1      48.356   3.956  17.188  0.00  0.00    +0.000 A 
ATOM     10  C   UNL     1      48.264   2.819  16.403  0.00  0.00    +0.000 A 
ATOM     11  N   UNL     1      47.752   2.811  15.144  0.00  0.00    +0.000 NA
ATOM     12  H   UNL     1      46.909   2.940  13.034  0.00  0.00    +0.000 HD
BRANCH   9  13
ATOM     13  C   UNL     1      48.943   3.853  18.542  0.00  0.00    +0.000 C 
ATOM     14  N   UNL     1      48.201   3.210  19.494  0.00  0.00    +0.000 N 
ATOM     15  O   UNL     1      50.053   4.296  18.795  0.00  0.00    +0.000 OA
ATOM     16  H   UNL     1      47.385   2.654  19.279  0.00  0.00    +0.000 HD
ATOM     17  H   UNL     1      48.631   3.084  20.403  0.00  0.00    +0.000 HD
ENDBRANCH   9  13
ENDBRANCH   1   5
BRANCH   1  22
ATOM     18  C   UNL     1      47.823   8.027  12.091  0.00  0.00    +0.000 A 
ATOM     19  C   UNL     1      46.857   8.957  12.487  0.00  0.00    +0.000 A 
ATOM     20  C   UNL     1      45.614   8.506  12.891  0.00  0.00    +0.000 A 
ATOM     21  N   UNL     1      45.267   7.205  12.934  0.00  0.00    +0.000 NA
ATOM     22  C   UNL     1      46.192   6.276  12.576  0.00  0.00    +0.000 A 
ATOM     23  C   UNL     1      47.463   6.671  12.151  0.00  0.00    +0.000 A 
BRANCH  18  27
ATOM     24  C   UNL     1      51.706   9.142  10.788  0.00  0.00    +0.000 A 
ATOM     25  C   UNL     1      50.785  10.149  11.020  0.00  0.00    +0.000 A 
ATOM     26  C   UNL     1      49.509   9.791  11.459  0.00  0.00    +0.000 A 
ATOM     27  C   UNL     1      49.166   8.440  11.644  0.00  0.00    +0.000 A 
ATOM     28  C   UNL     1      50.180   7.516  11.368  0.00  0.00    +0.000 A 
ATOM     29  N   UNL     1      51.433   7.832  10.953  0.00  0.00    +0.000 NA
BRANCH  24  31
ATOM     30  N   UNL     1      54.095   9.750   9.974  0.00  0.00    +0.000 NA
ATOM     31  C   UNL     1      53.030   9.457  10.342  0.00  0.00    +0.000 C 
ENDBRANCH  24  31
ENDBRANCH  18  27
ENDBRANCH   1  22
TORSDOF 5
ENDMDL
MODEL 9
REMARK VINA RESULT:    -5.727      3.328      5.216
REMARK INTER + INTRA:          -8.440
REMARK INTER:                  -7.496
REMARK INTRA:                  -0.945
REMARK UNBOUND:                -1.039
REMARK  Name = 
REMARK  5 active torsions:
REMARK  status: ('A' for Active; 'I' for Inactive)
REMARK    1  A    between atoms: C_2  and  C_3
REMARK    2  A    between atoms: C_6  and  C_7
REMARK    3  A    between atoms: C_11  and  C_12
REMARK    4  A    between atoms: C_12  and  N_13
REMARK    5  A    between atoms: C_17  and  C_18
REMARK                            x       y       z     vdW  Elec       q    Type
REMARK                         _______ _______ _______ _____ _____    ______ ____
ROOT
ATOM      1  C   UNL     1      45.918   8.911  12.285  0.00  0.00    +0.000 C 
ATOM      2  C   UNL     1      45.565  10.382  12.517  0.00  0.00    +0.000 C 
ATOM      3  C   UNL     1      45.684   9.865  11.128  0.00  0.00    +0.000 C 
ATOM      4  F   UNL     1      44.523   9.738  10.387  0.00  0.00    +0.000 F 
ENDROOT
BRANCH   1   5
ATOM      5  N   UNL     1      44.889   7.973  12.793  0.00  0.00    +0.000 N 
ATOM      6  C   UNL     1      44.694   6.681  12.309  0.00  0.00    +0.000 A 
ATOM      7  C   UNL     1      44.875   6.336  10.977  0.00  0.00    +0.000 A 
ATOM      8  C   UNL     1      44.585   5.034  10.562  0.00  0.00    +0.000 A 
ATOM      9  C   UNL     1      44.119   4.105  11.490  0.00  0.00    +0.000 A 
ATOM     10  C   UNL     1      43.953   4.533  12.797  0.00  0.00    +0.000 A 
ATOM     11  N   UNL     1      44.241   5.792  13.221  0.00  0.00    +0.000 NA
ATOM     12  H   UNL     1      44.724   7.940  13.794  0.00  0.00    +0.000 HD
BRANCH   9  13
ATOM     13  C   UNL     1      43.762   2.714  11.133  0.00  0.00    +0.000 C 
ATOM     14  N   UNL     1      44.431   2.151  10.081  0.00  0.00    +0.000 N 
ATOM     15  O   UNL     1      42.930   2.085  11.767  0.00  0.00    +0.000 OA
ATOM     16  H   UNL     1      45.260   2.556   9.671  0.00  0.00    +0.000 HD
ATOM     17  H   UNL     1      44.231   1.179   9.879  0.00  0.00    +0.000 HD
ENDBRANCH   9  13
ENDBRANCH   1   5
BRANCH   1  22
ATOM     18  C   UNL     1      49.119   7.628  14.000  0.00  0.00    +0.000 A 
ATOM     19  C   UNL     1      50.046   7.949  13.004  0.00  0.00    +0.000 A 
ATOM     20  C   UNL     1      49.600   8.516  11.825  0.00  0.00    +0.000 A 
ATOM     21  N   UNL     1      48.305   8.788  11.568  0.00  0.00    +0.000 NA
ATOM     22  C   UNL     1      47.382   8.507  12.526  0.00  0.00    +0.000 A 
ATOM     23  C   UNL     1      47.772   7.927  13.735  0.00  0.00    +0.000 A 
BRANCH  18  27
ATOM     24  C   UNL     1      50.229   5.828  17.681  0.00  0.00    +0.000 A 
ATOM     25  C   UNL     1      51.186   6.564  17.003  0.00  0.00    +0.000 A 
ATOM     26  C   UNL     1      50.826   7.168  15.796  0.00  0.00    +0.000 A 
ATOM     27  C   UNL     1      49.528   7.017  15.278  0.00  0.00    +0.000 A 
ATOM     28  C   UNL     1      48.654   6.244  16.051  0.00  0.00    +0.000 A 
ATOM     29  N   UNL     1      48.970   5.656  17.233  0.00  0.00    +0.000 NA
BRANCH  24  31
ATOM     30  N   UNL     1      50.839   4.698  19.936  0.00  0.00    +0.000 NA
ATOM     31  C   UNL     1      50.547   5.194  18.925  0.00  0.00    +0.000 C 
ENDBRANCH  24  31
ENDBRANCH  18  27
ENDBRANCH   1  22
TORSDOF 5
ENDMDL
