MODEL 1
REMARK VINA RESULT:    -8.184      0.000      0.000
REMARK INTER + INTRA:          -9.966
REMARK INTER:                 -10.098
REMARK INTRA:                   0.132
REMARK UNBOUND:                 0.132
REMARK  Name = 
REMARK  4 active torsions:
REMARK  status: ('A' for Active; 'I' for Inactive)
REMARK    1  A    between atoms: C_2  and  C_4
REMARK    2  A    between atoms: C_7  and  C_8
REMARK    3  A    between atoms: C_8  and  C_9
REMARK    4  A    between atoms: C_9  and  C_10
REMARK                            x       y       z     vdW  Elec       q    Type
REMARK                         _______ _______ _______ _____ _____    ______ ____
ROOT
ATOM      1  C   UNL     1      46.363   2.456   7.731  0.00  0.00    +0.000 A 
ATOM      2  C   UNL     1      45.630   1.769   8.700  0.00  0.00    +0.000 A 
ATOM      3  C   UNL     1      44.766   2.486   9.531  0.00  0.00    +0.000 A 
ATOM      4  C   UNL     1      44.648   3.869   9.369  0.00  0.00    +0.000 A 
ATOM      5  N   UNL     1      45.359   4.546   8.432  0.00  0.00    +0.000 NA
ATOM      6  C   UNL     1      46.203   3.830   7.647  0.00  0.00    +0.000 A 
ENDROOT
BRANCH   1   8
ATOM      7  N   UNL     1      48.409   2.507   6.414  0.00  0.00    +0.000 N 
ATOM      8  C   UNL     1      47.322   1.789   6.826  0.00  0.00    +0.000 C 
ATOM      9  O   UNL     1      47.163   0.625   6.476  0.00  0.00    +0.000 OA
ATOM     10  H   UNL     1      49.097   2.004   5.866  0.00  0.00    +0.000 HD
ATOM     11  H   UNL     1      48.708   3.356   6.872  0.00  0.00    +0.000 HD
ENDBRANCH   1   8
BRANCH   4  12
ATOM     12  C   UNL     1      43.725   4.671  10.253  0.00  0.00    +0.000 C 
BRANCH  12  13
ATOM     13  C   UNL     1      44.189   4.754  11.696  0.00  0.00    +0.000 C 
ATOM     14  C   UNL     1      43.383   4.050  12.774  0.00  0.00    +0.000 C 
ATOM     15  O   UNL     1      43.220   5.448  12.516  0.00  0.00    +0.000 OA
BRANCH  13  16
ATOM     16  C   UNL     1      45.612   5.188  12.025  0.00  0.00    +0.000 C 
ATOM     17  C   UNL     1      45.907   5.099  13.531  0.00  0.00    +0.000 C 
ATOM     18  C   UNL     1      47.325   5.551  13.862  0.00  0.00    +0.000 C 
ATOM     19  C   UNL     1      47.598   6.950  13.321  0.00  0.00    +0.000 C 
ATOM     20  C   UNL     1      47.367   7.016  11.814  0.00  0.00    +0.000 C 
ATOM     21  C   UNL     1      45.952   6.574  11.456  0.00  0.00    +0.000 C 
ENDBRANCH  13  16
ENDBRANCH  12  13
ENDBRANCH   4  12
TORSDOF 4
ENDMDL
MODEL 2
REMARK VINA RESULT:    -6.559      2.857      6.169
REMARK INTER + INTRA:          -7.961
REMARK INTER:                  -8.504
REMARK INTRA:                   0.543
REMARK UNBOUND:                 0.132
REMARK  Name = 
REMARK  4 active torsions:
REMARK  status: ('A' for Active; 'I' for Inactive)
REMARK    1  A    between atoms: C_2  and  C_4
REMARK    2  A    between atoms: C_7  and  C_8
REMARK    3  A    between atoms: C_8  and  C_9
REMARK    4  A    between atoms: C_9  and  C_10
REMARK                            x       y       z     vdW  Elec       q    Type
REMARK                         _______ _______ _______ _____ _____    ______ ____
ROOT
ATOM      1  C   UNL     1      47.270   4.860  14.666  0.00  0.00    +0.000 A 
ATOM      2  C   UNL     1      47.459   6.164  14.206  0.00  0.00    +0.000 A 
ATOM      3  C   UNL     1      46.925   6.531  12.969  0.00  0.00    +0.000 A 
ATOM      4  C   UNL     1      46.207   5.589  12.225  0.00  0.00    +0.000 A 
ATOM      5  N   UNL     1      46.020   4.319  12.662  0.00  0.00    +0.000 NA
ATOM      6  C   UNL     1      46.561   3.983  13.860  0.00  0.00    +0.000 A 
ENDROOT
BRANCH   1   8
ATOM      7  N   UNL     1      47.101   3.431  16.628  0.00  0.00    +0.000 N 
ATOM      8  C   UNL     1      47.820   4.373  15.947  0.00  0.00    +0.000 C 
ATOM      9  O   UNL     1      48.895   4.777  16.374  0.00  0.00    +0.000 OA
ATOM     10  H   UNL     1      47.538   3.047  17.458  0.00  0.00    +0.000 HD
ATOM     11  H   UNL     1      46.361   2.893  16.199  0.00  0.00    +0.000 HD
ENDBRANCH   1   8
BRANCH   4  12
ATOM     12  C   UNL     1      45.620   5.956  10.883  0.00  0.00    +0.000 C 
BRANCH  12  13
ATOM     13  C   UNL     1      44.506   5.027  10.435  0.00  0.00    +0.000 C 
ATOM     14  C   UNL     1      43.074   5.349  10.826  0.00  0.00    +0.000 C 
ATOM     15  O   UNL     1      43.855   4.409  11.569  0.00  0.00    +0.000 OA
BRANCH  13  16
ATOM     16  C   UNL     1      44.741   4.025   9.312  0.00  0.00    +0.000 C 
ATOM     17  C   UNL     1      44.980   2.605   9.848  0.00  0.00    +0.000 C 
ATOM     18  C   UNL     1      45.234   1.606   8.724  0.00  0.00    +0.000 C 
ATOM     19  C   UNL     1      46.379   2.065   7.828  0.00  0.00    +0.000 C 
ATOM     20  C   UNL     1      46.106   3.449   7.245  0.00  0.00    +0.000 C 
ATOM     21  C   UNL     1      45.854   4.469   8.350  0.00  0.00    +0.000 C 
ENDBRANCH  13  16
ENDBRANCH  12  13
ENDBRANCH   4  12
TORSDOF 4
ENDMDL
MODEL 3
REMARK VINA RESULT:    -6.524      2.672      6.077
REMARK INTER + INTRA:          -7.918
REMARK INTER:                  -8.308
REMARK INTRA:                   0.390
REMARK UNBOUND:                 0.132
REMARK  Name = 
REMARK  4 active torsions:
REMARK  status: ('A' for Active; 'I' for Inactive)
REMARK    1  A    between atoms: C_2  and  C_4
REMARK    2  A    between atoms: C_7  and  C_8
REMARK    3  A    between atoms: C_8  and  C_9
REMARK    4  A    between atoms: C_9  and  C_10
REMARK                            x       y       z     vdW  Elec       q    Type
REMARK                         _______ _______ _______ _____ _____    ______ ____
ROOT
ATOM      1  C   UNL     1      47.070   6.477  13.080  0.00  0.00    +0.000 A 
ATOM      2  C   UNL     1      47.306   6.779  11.738  0.00  0.00    +0.000 A 
ATOM      3  C   UNL     1      46.425   6.296  10.769  0.00  0.00    +0.000 A 
ATOM      4  C   UNL     1      45.323   5.531  11.163  0.00  0.00    +0.000 A 
ATOM      5  N   UNL     1      45.086   5.230  12.464  0.00  0.00    +0.000 NA
ATOM      6  C   UNL     1      45.965   5.698  13.386  0.00  0.00    +0.000 A 
ENDROOT
BRANCH   1   8
ATOM      7  N   UNL     1      47.736   8.154  14.713  0.00  0.00    +0.000 N 
ATOM      8  C   UNL     1      47.960   6.919  14.173  0.00  0.00    +0.000 C 
ATOM      9  O   UNL     1      48.853   6.195  14.599  0.00  0.00    +0.000 OA
ATOM     10  H   UNL     1      48.301   8.400  15.518  0.00  0.00    +0.000 HD
ATOM     11  H   UNL     1      46.874   8.662  14.575  0.00  0.00    +0.000 HD
ENDBRANCH   1   8
BRANCH   4  12
ATOM     12  C   UNL     1      44.354   4.994  10.138  0.00  0.00    +0.000 C 
BRANCH  12  13
ATOM     13  C   UNL     1      44.520   3.510   9.867  0.00  0.00    +0.000 C 
ATOM     14  C   UNL     1      43.737   2.514  10.705  0.00  0.00    +0.000 C 
ATOM     15  O   UNL     1      45.098   2.833  11.007  0.00  0.00    +0.000 OA
BRANCH  13  16
ATOM     16  C   UNL     1      45.136   3.028   8.560  0.00  0.00    +0.000 C 
ATOM     17  C   UNL     1      45.900   1.706   8.737  0.00  0.00    +0.000 C 
ATOM     18  C   UNL     1      46.533   1.233   7.432  0.00  0.00    +0.000 C 
ATOM     19  C   UNL     1      47.421   2.315   6.827  0.00  0.00    +0.000 C 
ATOM     20  C   UNL     1      46.640   3.605   6.592  0.00  0.00    +0.000 C 
ATOM     21  C   UNL     1      46.001   4.103   7.885  0.00  0.00    +0.000 C 
ENDBRANCH  13  16
ENDBRANCH  12  13
ENDBRANCH   4  12
TORSDOF 4
ENDMDL
MODEL 4
REMARK VINA RESULT:    -6.447      3.188      5.915
REMARK INTER + INTRA:          -7.822
REMARK INTER:                  -8.008
REMARK INTRA:                   0.186
REMARK UNBOUND:                 0.132
REMARK  Name = 
REMARK  4 active torsions:
REMARK  status: ('A' for Active; 'I' for Inactive)
REMARK    1  A    between atoms: C_2  and  C_4
REMARK    2  A    between atoms: C_7  and  C_8
REMARK    3  A    between atoms: C_8  and  C_9
REMARK    4  A    between atoms: C_9  and  C_10
REMARK                            x       y       z     vdW  Elec       q    Type
REMARK                         _______ _______ _______ _____ _____    ______ ____
ROOT
ATOM      1  C   UNL     1      47.879   6.263  13.865  0.00  0.00    +0.000 A 
ATOM      2  C   UNL     1      47.103   6.931  12.917  0.00  0.00    +0.000 A 
ATOM      3  C   UNL     1      45.858   6.405  12.567  0.00  0.00    +0.000 A 
ATOM      4  C   UNL     1      45.413   5.228  13.177  0.00  0.00    +0.000 A 
ATOM      5  N   UNL     1      46.161   4.569  14.098  0.00  0.00    +0.000 NA
ATOM      6  C   UNL     1      47.374   5.093  14.411  0.00  0.00    +0.000 A 
ENDROOT
BRANCH   1   8
ATOM      7  N   UNL     1      49.975   7.387  13.353  0.00  0.00    +0.000 N 
ATOM      8  C   UNL     1      49.219   6.727  14.280  0.00  0.00    +0.000 C 
ATOM      9  O   UNL     1      49.630   6.550  15.421  0.00  0.00    +0.000 OA
ATOM     10  H   UNL     1      50.852   7.773  13.682  0.00  0.00    +0.000 HD
ATOM     11  H   UNL     1      49.585   7.773  12.505  0.00  0.00    +0.000 HD
ENDBRANCH   1   8
BRANCH   4  12
ATOM     12  C   UNL     1      44.073   4.635  12.817  0.00  0.00    +0.000 C 
BRANCH  12  13
ATOM     13  C   UNL     1      43.568   5.064  11.452  0.00  0.00    +0.000 C 
ATOM     14  C   UNL     1      43.003   6.463  11.279  0.00  0.00    +0.000 C 
ATOM     15  O   UNL     1      42.148   5.335  11.483  0.00  0.00    +0.000 OA
BRANCH  13  16
ATOM     16  C   UNL     1      43.960   4.284  10.203  0.00  0.00    +0.000 C 
ATOM     17  C   UNL     1      44.100   2.780  10.485  0.00  0.00    +0.000 C 
ATOM     18  C   UNL     1      44.512   2.001   9.240  0.00  0.00    +0.000 C 
ATOM     19  C   UNL     1      45.784   2.576   8.626  0.00  0.00    +0.000 C 
ATOM     20  C   UNL     1      45.616   4.055   8.286  0.00  0.00    +0.000 C 
ATOM     21  C   UNL     1      45.210   4.857   9.519  0.00  0.00    +0.000 C 
ENDBRANCH  13  16
ENDBRANCH  12  13
ENDBRANCH   4  12
TORSDOF 4
ENDMDL
MODEL 5
REMARK VINA RESULT:    -6.411      3.185      6.298
REMARK INTER + INTRA:          -7.778
REMARK INTER:                  -7.799
REMARK INTRA:                   0.021
REMARK UNBOUND:                 0.132
REMARK  Name = 
REMARK  4 active torsions:
REMARK  status: ('A' for Active; 'I' for Inactive)
REMARK    1  A    between atoms: C_2  and  C_4
REMARK    2  A    between atoms: C_7  and  C_8
REMARK    3  A    between atoms: C_8  and  C_9
REMARK    4  A    between atoms: C_9  and  C_10
REMARK                            x       y       z     vdW  Elec       q    Type
REMARK                         _______ _______ _______ _____ _____    ______ ____
ROOT
ATOM      1  C   UNL     1      47.003   8.732  12.503  0.00  0.00    +0.000 A 
ATOM      2  C   UNL     1      47.699   7.616  12.036  0.00  0.00    +0.000 A 
ATOM      3  C   UNL     1      47.052   6.380  11.998  0.00  0.00    +0.000 A 
ATOM      4  C   UNL     1      45.722   6.288  12.420  0.00  0.00    +0.000 A 
ATOM      5  N   UNL     1      45.038   7.366  12.879  0.00  0.00    +0.000 NA
ATOM      6  C   UNL     1      45.693   8.554  12.920  0.00  0.00    +0.000 A 
ENDROOT
BRANCH   1   8
ATOM      7  N   UNL     1      46.820  11.152  12.327  0.00  0.00    +0.000 N 
ATOM      8  C   UNL     1      47.612  10.074  12.606  0.00  0.00    +0.000 C 
ATOM      9  O   UNL     1      48.778  10.220  12.954  0.00  0.00    +0.000 OA
ATOM     10  H   UNL     1      47.231  12.064  12.488  0.00  0.00    +0.000 HD
ATOM     11  H   UNL     1      45.812  11.094  12.292  0.00  0.00    +0.000 HD
ENDBRANCH   1   8
BRANCH   4  12
ATOM     12  C   UNL     1      44.996   4.965  12.393  0.00  0.00    +0.000 C 
BRANCH  12  13
ATOM     13  C   UNL     1      43.939   4.876  11.308  0.00  0.00    +0.000 C 
ATOM     14  C   UNL     1      42.770   5.845  11.333  0.00  0.00    +0.000 C 
ATOM     15  O   UNL     1      42.651   4.521  11.863  0.00  0.00    +0.000 OA
BRANCH  13  16
ATOM     16  C   UNL     1      44.220   4.116  10.017  0.00  0.00    +0.000 C 
ATOM     17  C   UNL     1      44.392   2.609  10.263  0.00  0.00    +0.000 C 
ATOM     18  C   UNL     1      44.692   1.851   8.974  0.00  0.00    +0.000 C 
ATOM     19  C   UNL     1      45.901   2.442   8.256  0.00  0.00    +0.000 C 
ATOM     20  C   UNL     1      45.696   3.924   7.955  0.00  0.00    +0.000 C 
ATOM     21  C   UNL     1      45.400   4.707   9.231  0.00  0.00    +0.000 C 
ENDBRANCH  13  16
ENDBRANCH  12  13
ENDBRANCH   4  12
TORSDOF 4
ENDMDL
MODEL 6
REMARK VINA RESULT:    -6.405      4.107      6.600
REMARK INTER + INTRA:          -7.770
REMARK INTER:                  -7.186
REMARK INTRA:                  -0.584
REMARK UNBOUND:                 0.132
REMARK  Name = 
REMARK  4 active torsions:
REMARK  status: ('A' for Active; 'I' for Inactive)
REMARK    1  A    between atoms: C_2  and  C_4
REMARK    2  A    between atoms: C_7  and  C_8
REMARK    3  A    between atoms: C_8  and  C_9
REMARK    4  A    between atoms: C_9  and  C_10
REMARK                            x       y       z     vdW  Elec       q    Type
REMARK                         _______ _______ _______ _____ _____    ______ ____
ROOT
ATOM      1  C   UNL     1      47.544   4.320  15.893  0.00  0.00    +0.000 A 
ATOM      2  C   UNL     1      46.865   3.814  14.783  0.00  0.00    +0.000 A 
ATOM      3  C   UNL     1      46.845   4.559  13.602  0.00  0.00    +0.000 A 
ATOM      4  C   UNL     1      47.511   5.787  13.555  0.00  0.00    +0.000 A 
ATOM      5  N   UNL     1      48.171   6.289  14.628  0.00  0.00    +0.000 NA
ATOM      6  C   UNL     1      48.164   5.553  15.769  0.00  0.00    +0.000 A 
ENDROOT
BRANCH   1   8
ATOM      7  N   UNL     1      48.661   3.877  18.009  0.00  0.00    +0.000 N 
ATOM      8  C   UNL     1      47.597   3.618  17.192  0.00  0.00    +0.000 C 
ATOM      9  O   UNL     1      46.706   2.850  17.538  0.00  0.00    +0.000 OA
ATOM     10  H   UNL     1      48.633   3.454  18.929  0.00  0.00    +0.000 HD
ATOM     11  H   UNL     1      49.266   4.676  17.881  0.00  0.00    +0.000 HD
ENDBRANCH   1   8
BRANCH   4  12
ATOM     12  C   UNL     1      47.505   6.615  12.293  0.00  0.00    +0.000 C 
BRANCH  12  13
ATOM     13  C   UNL     1      46.175   7.294  12.020  0.00  0.00    +0.000 C 
ATOM     14  C   UNL     1      46.098   8.811  12.056  0.00  0.00    +0.000 C 
ATOM     15  O   UNL     1      45.711   8.019  13.183  0.00  0.00    +0.000 OA
BRANCH  13  16
ATOM     16  C   UNL     1      45.041   6.528  11.349  0.00  0.00    +0.000 C 
ATOM     17  C   UNL     1      44.028   5.990  12.371  0.00  0.00    +0.000 C 
ATOM     18  C   UNL     1      42.903   5.208  11.701  0.00  0.00    +0.000 C 
ATOM     19  C   UNL     1      43.456   4.092  10.821  0.00  0.00    +0.000 C 
ATOM     20  C   UNL     1      44.412   4.641   9.766  0.00  0.00    +0.000 C 
ATOM     21  C   UNL     1      45.551   5.424  10.411  0.00  0.00    +0.000 C 
ENDBRANCH  13  16
ENDBRANCH  12  13
ENDBRANCH   4  12
TORSDOF 4
ENDMDL
MODEL 7
REMARK VINA RESULT:    -5.946      3.056      5.069
REMARK INTER + INTRA:          -7.205
REMARK INTER:                  -6.920
REMARK INTRA:                  -0.285
REMARK UNBOUND:                 0.132
REMARK  Name = 
REMARK  4 active torsions:
REMARK  status: ('A' for Active; 'I' for Inactive)
REMARK    1  A    between atoms: C_2  and  C_4
REMARK    2  A    between atoms: C_7  and  C_8
REMARK    3  A    between atoms: C_8  and  C_9
REMARK    4  A    between atoms: C_9  and  C_10
REMARK                            x       y       z     vdW  Elec       q    Type
REMARK                         _______ _______ _______ _____ _____    ______ ____
ROOT
ATOM      1  C   UNL     1      44.836   4.146  11.453  0.00  0.00    +0.000 A 
ATOM      2  C   UNL     1      45.283   5.179  10.628  0.00  0.00    +0.000 A 
ATOM      3  C   UNL     1      45.951   6.263  11.201  0.00  0.00    +0.000 A 
ATOM      4  C   UNL     1      46.164   6.286  12.583  0.00  0.00    +0.000 A 
ATOM      5  N   UNL     1      45.731   5.289  13.393  0.00  0.00    +0.000 NA
ATOM      6  C   UNL     1      45.071   4.253  12.815  0.00  0.00    +0.000 A 
ENDROOT
BRANCH   1   8
ATOM      7  N   UNL     1      44.664   2.260   9.926  0.00  0.00    +0.000 N 
ATOM      8  C   UNL     1      44.096   2.973  10.944  0.00  0.00    +0.000 C 
ATOM      9  O   UNL     1      43.024   2.634  11.432  0.00  0.00    +0.000 OA
ATOM     10  H   UNL     1      44.183   1.411   9.651  0.00  0.00    +0.000 HD
ATOM     11  H   UNL     1      45.638   2.346   9.676  0.00  0.00    +0.000 HD
ENDBRANCH   1   8
BRANCH   4  12
ATOM     12  C   UNL     1      46.881   7.446  13.230  0.00  0.00    +0.000 C 
BRANCH  12  13
ATOM     13  C   UNL     1      48.338   7.158  13.545  0.00  0.00    +0.000 C 
ATOM     14  C   UNL     1      49.367   7.249  12.432  0.00  0.00    +0.000 C 
ATOM     15  O   UNL     1      48.807   5.994  12.827  0.00  0.00    +0.000 OA
BRANCH  13  16
ATOM     16  C   UNL     1      48.831   7.161  14.987  0.00  0.00    +0.000 C 
ATOM     17  C   UNL     1      48.382   5.906  15.751  0.00  0.00    +0.000 C 
ATOM     18  C   UNL     1      48.860   5.918  17.199  0.00  0.00    +0.000 C 
ATOM     19  C   UNL     1      48.423   7.193  17.913  0.00  0.00    +0.000 C 
ATOM     20  C   UNL     1      48.928   8.435  17.185  0.00  0.00    +0.000 C 
ATOM     21  C   UNL     1      48.459   8.450  15.734  0.00  0.00    +0.000 C 
ENDBRANCH  13  16
ENDBRANCH  12  13
ENDBRANCH   4  12
TORSDOF 4
ENDMDL
MODEL 8
REMARK VINA RESULT:    -5.400      3.995      6.002
REMARK INTER + INTRA:          -6.531
REMARK INTER:                  -6.556
REMARK INTRA:                   0.025
REMARK UNBOUND:                 0.132
REMARK  Name = 
REMARK  4 active torsions:
REMARK  status: ('A' for Active; 'I' for Inactive)
REMARK    1  A    between atoms: C_2  and  C_4
REMARK    2  A    between atoms: C_7  and  C_8
REMARK    3  A    between atoms: C_8  and  C_9
REMARK    4  A    between atoms: C_9  and  C_10
REMARK                            x       y       z     vdW  Elec       q    Type
REMARK                         _______ _______ _______ _____ _____    ______ ____
ROOT
ATOM      1  C   UNL     1      44.413   5.500  11.968  0.00  0.00    +0.000 A 
ATOM      2  C   UNL     1      45.084   6.493  11.254  0.00  0.00    +0.000 A 
ATOM      3  C   UNL     1      46.393   6.819  11.613  0.00  0.00    +0.000 A 
ATOM      4  C   UNL     1      47.004   6.141  12.671  0.00  0.00    +0.000 A 
ATOM      5  N   UNL     1      46.359   5.176  13.374  0.00  0.00    +0.000 NA
ATOM      6  C   UNL     1      45.083   4.887  13.016  0.00  0.00    +0.000 A 
ENDROOT
BRANCH   1   8
ATOM      7  N   UNL     1      42.063   6.081  11.717  0.00  0.00    +0.000 N 
ATOM      8  C   UNL     1      43.018   5.105  11.681  0.00  0.00    +0.000 C 
ATOM      9  O   UNL     1      42.730   3.949  11.393  0.00  0.00    +0.000 OA
ATOM     10  H   UNL     1      41.130   5.807  11.432  0.00  0.00    +0.000 HD
ATOM     11  H   UNL     1      42.287   7.066  11.693  0.00  0.00    +0.000 HD
ENDBRANCH   1   8
BRANCH   4  12
ATOM     12  C   UNL     1      48.417   6.473  13.084  0.00  0.00    +0.000 C 
BRANCH  12  13
ATOM     13  C   UNL     1      48.496   7.432  14.258  0.00  0.00    +0.000 C 
ATOM     14  C   UNL     1      47.683   8.714  14.222  0.00  0.00    +0.000 C 
ATOM     15  O   UNL     1      49.067   8.699  13.860  0.00  0.00    +0.000 OA
BRANCH  13  16
ATOM     16  C   UNL     1      49.050   6.965  15.599  0.00  0.00    +0.000 C 
ATOM     17  C   UNL     1      50.587   6.973  15.620  0.00  0.00    +0.000 C 
ATOM     18  C   UNL     1      51.142   6.488  16.955  0.00  0.00    +0.000 C 
ATOM     19  C   UNL     1      50.584   5.116  17.318  0.00  0.00    +0.000 C 
ATOM     20  C   UNL     1      49.059   5.131  17.360  0.00  0.00    +0.000 C 
ATOM     21  C   UNL     1      48.478   5.608  16.033  0.00  0.00    +0.000 C 
ENDBRANCH  13  16
ENDBRANCH  12  13
ENDBRANCH   4  12
TORSDOF 4
ENDMDL
MODEL 9
REMARK VINA RESULT:    -5.236      5.836      8.214
REMARK INTER + INTRA:          -6.329
REMARK INTER:                  -6.473
REMARK INTRA:                   0.144
REMARK UNBOUND:                 0.132
REMARK  Name = 
REMARK  4 active torsions:
REMARK  status: ('A' for Active; 'I' for Inactive)
REMARK    1  A    between atoms: C_2  and  C_4
REMARK    2  A    between atoms: C_7  and  C_8
REMARK    3  A    between atoms: C_8  and  C_9
REMARK    4  A    between atoms: C_9  and  C_10
REMARK                            x       y       z     vdW  Elec       q    Type
REMARK                         _______ _______ _______ _____ _____    ______ ____
ROOT
ATOM      1  C   UNL     1      51.047   2.422  17.393  0.00  0.00    +0.000 A 
ATOM      2  C   UNL     1      49.724   2.127  17.063  0.00  0.00    +0.000 A 
ATOM      3  C   UNL     1      48.832   3.177  16.834  0.00  0.00    +0.000 A 
ATOM      4  C   UNL     1      49.285   4.496  16.933  0.00  0.00    +0.000 A 
ATOM      5  N   UNL     1      50.569   4.793  17.257  0.00  0.00    +0.000 NA
ATOM      6  C   UNL     1      51.413   3.755  17.489  0.00  0.00    +0.000 A 
ENDROOT
BRANCH   1   8
ATOM      7  N   UNL     1      51.610   0.184  18.166  0.00  0.00    +0.000 N 
ATOM      8  C   UNL     1      52.055   1.380  17.680  0.00  0.00    +0.000 C 
ATOM      9  O   UNL     1      53.247   1.570  17.464  0.00  0.00    +0.000 OA
ATOM     10  H   UNL     1      52.306  -0.545  18.272  0.00  0.00    +0.000 HD
ATOM     11  H   UNL     1      50.642  -0.101  18.114  0.00  0.00    +0.000 HD
ENDBRANCH   1   8
BRANCH   4  12
ATOM     12  C   UNL     1      48.344   5.651  16.694  0.00  0.00    +0.000 C 
BRANCH  12  13
ATOM     13  C   UNL     1      48.547   6.330  15.352  0.00  0.00    +0.000 C 
ATOM     14  C   UNL     1      49.751   7.235  15.155  0.00  0.00    +0.000 C 
ATOM     15  O   UNL     1      48.463   7.769  15.477  0.00  0.00    +0.000 OA
BRANCH  13  16
ATOM     16  C   UNL     1      47.807   5.833  14.116  0.00  0.00    +0.000 C 
ATOM     17  C   UNL     1      47.211   6.990  13.298  0.00  0.00    +0.000 C 
ATOM     18  C   UNL     1      46.454   6.491  12.072  0.00  0.00    +0.000 C 
ATOM     19  C   UNL     1      45.388   5.472  12.459  0.00  0.00    +0.000 C 
ATOM     20  C   UNL     1      45.996   4.293  13.213  0.00  0.00    +0.000 C 
ATOM     21  C   UNL     1      46.755   4.765  14.449  0.00  0.00    +0.000 C 
ENDBRANCH  13  16
ENDBRANCH  12  13
ENDBRANCH   4  12
TORSDOF 4
ENDMDL
