MODEL 1
REMARK VINA RESULT:    -8.721      0.000      0.000
REMARK INTER + INTRA:         -13.406
REMARK INTER:                 -12.290
REMARK INTRA:                  -1.117
REMARK UNBOUND:                -1.117
REMARK  Name = 
REMARK  8 active torsions:
REMARK  status: ('A' for Active; 'I' for Inactive)
REMARK    1  A    between atoms: C_1  and  C_2
REMARK    2  A    between atoms: C_2  and  N_3
REMARK    3  A    between atoms: C_2  and  C_11
REMARK    4  A    between atoms: N_3  and  C_4
REMARK    5  A    between atoms: C_4  and  C_5
REMARK    6  A    between atoms: C_14  and  C_15
REMARK    7  A    between atoms: C_15  and  N_16
REMARK    8  A    between atoms: C_17  and  C_19
REMARK                            x       y       z     vdW  Elec       q    Type
REMARK                         _______ _______ _______ _____ _____    ______ ____
ROOT
ATOM      1  C   UNL     1      44.923   4.482  11.683  0.00  0.00    +0.000 A 
ATOM      2  C   UNL     1      45.408   5.594  10.991  0.00  0.00    +0.000 A 
ATOM      3  C   UNL     1      46.471   6.326  11.527  0.00  0.00    +0.000 A 
ATOM      4  C   UNL     1      47.021   5.956  12.755  0.00  0.00    +0.000 A 
ATOM      5  C   UNL     1      46.511   4.815  13.355  0.00  0.00    +0.000 A 
ATOM      6  N   UNL     1      45.488   4.088  12.854  0.00  0.00    +0.000 NA
ENDROOT
BRANCH   1   8
ATOM      7  C   UNL     1      43.435   2.466  12.038  0.00  0.00    +0.000 C 
ATOM      8  C   UNL     1      43.688   3.714  11.172  0.00  0.00    +0.000 C 
BRANCH   8   9
ATOM      9  N   UNL     1      43.814   3.359   9.743  0.00  0.00    +0.000 NA
ATOM     10  H   UNL     1      42.886   3.245   9.341  0.00  0.00    +0.000 HD
BRANCH   9  11
ATOM     11  C   UNL     1      44.594   2.148   9.477  0.00  0.00    +0.000 C 
BRANCH  11  12
ATOM     12  C   UNL     1      45.837   2.497   8.643  0.00  0.00    +0.000 C 
ATOM     13  C   UNL     1      46.391   1.248   7.926  0.00  0.00    +0.000 C 
ATOM     14  C   UNL     1      47.561   1.621   7.025  0.00  0.00    +0.000 C 
ATOM     15  C   UNL     1      47.183   2.747   6.067  0.00  0.00    +0.000 C 
ATOM     16  N   UNL     1      46.675   3.918   6.784  0.00  0.00    +0.000 NA
ATOM     17  C   UNL     1      45.504   3.579   7.599  0.00  0.00    +0.000 C 
ATOM     18  H   UNL     1      46.419   4.637   6.109  0.00  0.00    +0.000 HD
ENDBRANCH  11  12
ENDBRANCH   9  11
ENDBRANCH   8   9
ENDBRANCH   1   8
BRANCH   4  19
ATOM     19  C   UNL     1      48.123   6.737  13.406  0.00  0.00    +0.000 C 
BRANCH  19  20
ATOM     20  N   UNL     1      47.956   6.805  14.833  0.00  0.00    +0.000 N 
ATOM     21  C   UNL     1      49.037   6.722  15.675  0.00  0.00    +0.000 C 
ATOM     22  O   UNL     1      50.186   6.651  15.247  0.00  0.00    +0.000 OA
ATOM     23  H   UNL     1      47.026   6.632  15.200  0.00  0.00    +0.000 HD
BRANCH  21  24
ATOM     24  C   UNL     1      48.759   6.784  17.114  0.00  0.00    +0.000 A 
ATOM     25  C   UNL     1      48.408   7.996  17.695  0.00  0.00    +0.000 A 
ATOM     26  S   UNL     1      48.068   7.886  19.362  0.00  0.00    +0.000 S 
ATOM     27  C   UNL     1      48.425   6.221  19.380  0.00  0.00    +0.000 A 
ATOM     28  N   UNL     1      48.354   5.503  20.533  0.00  0.00    +0.000 NA
ATOM     29  C   UNL     1      48.678   4.260  20.407  0.00  0.00    +0.000 A 
ATOM     30  N   UNL     1      49.065   3.669  19.235  0.00  0.00    +0.000 N 
ATOM     31  C   UNL     1      49.131   4.350  18.040  0.00  0.00    +0.000 A 
ATOM     32  O   UNL     1      49.455   3.782  17.001  0.00  0.00    +0.000 OA
ATOM     33  C   UNL     1      48.782   5.752  18.128  0.00  0.00    +0.000 A 
ATOM     34  H   UNL     1      49.301   2.688  19.202  0.00  0.00    +0.000 HD
ENDBRANCH  21  24
ENDBRANCH  19  20
ENDBRANCH   4  19
TORSDOF 7
ENDMDL
MODEL 2
REMARK VINA RESULT:    -8.025      1.593      2.357
REMARK INTER + INTRA:         -12.426
REMARK INTER:                 -11.206
REMARK INTRA:                  -1.220
REMARK UNBOUND:                -1.117
REMARK  Name = 
REMARK  8 active torsions:
REMARK  status: ('A' for Active; 'I' for Inactive)
REMARK    1  A    between atoms: C_1  and  C_2
REMARK    2  A    between atoms: C_2  and  N_3
REMARK    3  A    between atoms: C_2  and  C_11
REMARK    4  A    between atoms: N_3  and  C_4
REMARK    5  A    between atoms: C_4  and  C_5
REMARK    6  A    between atoms: C_14  and  C_15
REMARK    7  A    between atoms: C_15  and  N_16
REMARK    8  A    between atoms: C_17  and  C_19
REMARK                            x       y       z     vdW  Elec       q    Type
REMARK                         _______ _______ _______ _____ _____    ______ ____
ROOT
ATOM      1  C   UNL     1      44.464   4.667  11.676  0.00  0.00    +0.000 A 
ATOM      2  C   UNL     1      45.374   4.162  12.607  0.00  0.00    +0.000 A 
ATOM      3  C   UNL     1      46.332   5.015  13.162  0.00  0.00    +0.000 A 
ATOM      4  C   UNL     1      46.387   6.351  12.766  0.00  0.00    +0.000 A 
ATOM      5  C   UNL     1      45.420   6.782  11.871  0.00  0.00    +0.000 A 
ATOM      6  N   UNL     1      44.481   5.979  11.324  0.00  0.00    +0.000 NA
ENDROOT
BRANCH   1   8
ATOM      7  C   UNL     1      43.285   2.429  11.769  0.00  0.00    +0.000 C 
ATOM      8  C   UNL     1      43.461   3.734  10.969  0.00  0.00    +0.000 C 
BRANCH   8   9
ATOM      9  N   UNL     1      43.857   3.457   9.573  0.00  0.00    +0.000 NA
ATOM     10  H   UNL     1      43.024   3.397   8.992  0.00  0.00    +0.000 HD
BRANCH   9  11
ATOM     11  C   UNL     1      44.649   2.239   9.388  0.00  0.00    +0.000 C 
BRANCH  11  12
ATOM     12  C   UNL     1      45.892   2.543   8.537  0.00  0.00    +0.000 C 
ATOM     13  C   UNL     1      46.434   1.261   7.872  0.00  0.00    +0.000 C 
ATOM     14  C   UNL     1      47.604   1.587   6.953  0.00  0.00    +0.000 C 
ATOM     15  C   UNL     1      47.231   2.675   5.949  0.00  0.00    +0.000 C 
ATOM     16  N   UNL     1      46.734   3.878   6.619  0.00  0.00    +0.000 NA
ATOM     17  C   UNL     1      45.563   3.583   7.450  0.00  0.00    +0.000 C 
ATOM     18  H   UNL     1      46.482   4.570   5.915  0.00  0.00    +0.000 HD
ENDBRANCH  11  12
ENDBRANCH   9  11
ENDBRANCH   8   9
ENDBRANCH   1   8
BRANCH   4  19
ATOM     19  C   UNL     1      47.429   7.297  13.283  0.00  0.00    +0.000 C 
BRANCH  19  20
ATOM     20  N   UNL     1      47.652   7.124  14.694  0.00  0.00    +0.000 N 
ATOM     21  C   UNL     1      48.913   6.902  15.187  0.00  0.00    +0.000 C 
ATOM     22  O   UNL     1      49.903   6.904  14.459  0.00  0.00    +0.000 OA
ATOM     23  H   UNL     1      46.847   6.893  15.266  0.00  0.00    +0.000 HD
BRANCH  21  24
ATOM     24  C   UNL     1      49.032   6.722  16.639  0.00  0.00    +0.000 A 
ATOM     25  C   UNL     1      49.542   5.534  17.144  0.00  0.00    +0.000 A 
ATOM     26  S   UNL     1      49.661   5.506  18.845  0.00  0.00    +0.000 S 
ATOM     27  C   UNL     1      48.988   7.065  18.971  0.00  0.00    +0.000 A 
ATOM     28  N   UNL     1      48.787   7.643  20.186  0.00  0.00    +0.000 NA
ATOM     29  C   UNL     1      48.243   8.813  20.135  0.00  0.00    +0.000 A 
ATOM     30  N   UNL     1      47.885   9.459  18.982  0.00  0.00    +0.000 N 
ATOM     31  C   UNL     1      48.091   8.923  17.731  0.00  0.00    +0.000 A 
ATOM     32  O   UNL     1      47.783   9.541  16.716  0.00  0.00    +0.000 OA
ATOM     33  C   UNL     1      48.692   7.606  17.733  0.00  0.00    +0.000 A 
ATOM     34  H   UNL     1      47.469  10.378  19.010  0.00  0.00    +0.000 HD
ENDBRANCH  21  24
ENDBRANCH  19  20
ENDBRANCH   4  19
TORSDOF 7
ENDMDL
MODEL 3
REMARK VINA RESULT:    -7.928      1.427      1.781
REMARK INTER + INTRA:         -12.289
REMARK INTER:                 -11.163
REMARK INTRA:                  -1.126
REMARK UNBOUND:                -1.117
REMARK  Name = 
REMARK  8 active torsions:
REMARK  status: ('A' for Active; 'I' for Inactive)
REMARK    1  A    between atoms: C_1  and  C_2
REMARK    2  A    between atoms: C_2  and  N_3
REMARK    3  A    between atoms: C_2  and  C_11
REMARK    4  A    between atoms: N_3  and  C_4
REMARK    5  A    between atoms: C_4  and  C_5
REMARK    6  A    between atoms: C_14  and  C_15
REMARK    7  A    between atoms: C_15  and  N_16
REMARK    8  A    between atoms: C_17  and  C_19
REMARK                            x       y       z     vdW  Elec       q    Type
REMARK                         _______ _______ _______ _____ _____    ______ ____
ROOT
ATOM      1  C   UNL     1      44.812   4.739  11.532  0.00  0.00    +0.000 A 
ATOM      2  C   UNL     1      45.514   4.262  12.641  0.00  0.00    +0.000 A 
ATOM      3  C   UNL     1      46.625   4.972  13.108  0.00  0.00    +0.000 A 
ATOM      4  C   UNL     1      47.036   6.131  12.450  0.00  0.00    +0.000 A 
ATOM      5  C   UNL     1      46.259   6.559  11.384  0.00  0.00    +0.000 A 
ATOM      6  N   UNL     1      45.179   5.894  10.918  0.00  0.00    +0.000 NA
ENDROOT
BRANCH   1   8
ATOM      7  C   UNL     1      43.344   2.696  11.802  0.00  0.00    +0.000 C 
ATOM      8  C   UNL     1      43.647   3.929  10.931  0.00  0.00    +0.000 C 
BRANCH   8   9
ATOM      9  N   UNL     1      43.911   3.544   9.529  0.00  0.00    +0.000 NA
ATOM     10  H   UNL     1      43.034   3.534   9.012  0.00  0.00    +0.000 HD
BRANCH   9  11
ATOM     11  C   UNL     1      44.571   2.248   9.361  0.00  0.00    +0.000 C 
BRANCH  11  12
ATOM     12  C   UNL     1      45.357   2.225   8.040  0.00  0.00    +0.000 C 
ATOM     13  C   UNL     1      46.011   3.594   7.762  0.00  0.00    +0.000 C 
ATOM     14  C   UNL     1      46.867   3.534   6.504  0.00  0.00    +0.000 C 
ATOM     15  C   UNL     1      47.874   2.389   6.576  0.00  0.00    +0.000 C 
ATOM     16  N   UNL     1      47.215   1.107   6.829  0.00  0.00    +0.000 NA
ATOM     17  C   UNL     1      46.446   1.137   8.076  0.00  0.00    +0.000 C 
ATOM     18  H   UNL     1      47.922   0.375   6.885  0.00  0.00    +0.000 HD
ENDBRANCH  11  12
ENDBRANCH   9  11
ENDBRANCH   8   9
ENDBRANCH   1   8
BRANCH   4  19
ATOM     19  C   UNL     1      48.253   6.901  12.869  0.00  0.00    +0.000 C 
BRANCH  19  20
ATOM     20  N   UNL     1      48.728   6.482  14.160  0.00  0.00    +0.000 N 
ATOM     21  C   UNL     1      48.695   7.335  15.235  0.00  0.00    +0.000 C 
ATOM     22  O   UNL     1      48.204   8.458  15.155  0.00  0.00    +0.000 OA
ATOM     23  H   UNL     1      49.333   5.668  14.190  0.00  0.00    +0.000 HD
BRANCH  21  24
ATOM     24  C   UNL     1      49.219   6.818  16.504  0.00  0.00    +0.000 A 
ATOM     25  C   UNL     1      50.272   7.472  17.130  0.00  0.00    +0.000 A 
ATOM     26  S   UNL     1      50.727   6.774  18.618  0.00  0.00    +0.000 S 
ATOM     27  C   UNL     1      49.564   5.541  18.456  0.00  0.00    +0.000 A 
ATOM     28  N   UNL     1      49.439   4.571  19.401  0.00  0.00    +0.000 NA
ATOM     29  C   UNL     1      48.538   3.684  19.137  0.00  0.00    +0.000 A 
ATOM     30  N   UNL     1      47.750   3.680  18.018  0.00  0.00    +0.000 N 
ATOM     31  C   UNL     1      47.826   4.653  17.047  0.00  0.00    +0.000 A 
ATOM     32  O   UNL     1      47.085   4.635  16.069  0.00  0.00    +0.000 OA
ATOM     33  C   UNL     1      48.828   5.670  17.292  0.00  0.00    +0.000 A 
ATOM     34  H   UNL     1      47.059   2.959  17.873  0.00  0.00    +0.000 HD
ENDBRANCH  21  24
ENDBRANCH  19  20
ENDBRANCH   4  19
TORSDOF 7
ENDMDL
MODEL 4
REMARK VINA RESULT:    -7.309      1.821      2.976
REMARK INTER + INTRA:         -11.416
REMARK INTER:                 -10.355
REMARK INTRA:                  -1.061
REMARK UNBOUND:                -1.117
REMARK  Name = 
REMARK  8 active torsions:
REMARK  status: ('A' for Active; 'I' for Inactive)
REMARK    1  A    between atoms: C_1  and  C_2
REMARK    2  A    between atoms: C_2  and  N_3
REMARK    3  A    between atoms: C_2  and  C_11
REMARK    4  A    between atoms: N_3  and  C_4
REMARK    5  A    between atoms: C_4  and  C_5
REMARK    6  A    between atoms: C_14  and  C_15
REMARK    7  A    between atoms: C_15  and  N_16
REMARK    8  A    between atoms: C_17  and  C_19
REMARK                            x       y       z     vdW  Elec       q    Type
REMARK                         _______ _______ _______ _____ _____    ______ ____
ROOT
ATOM      1  C   UNL     1      45.407   5.053  11.996  0.00  0.00    +0.000 A 
ATOM      2  C   UNL     1      45.634   3.698  12.244  0.00  0.00    +0.000 A 
ATOM      3  C   UNL     1      46.321   3.318  13.401  0.00  0.00    +0.000 A 
ATOM      4  C   UNL     1      46.794   4.292  14.281  0.00  0.00    +0.000 A 
ATOM      5  C   UNL     1      46.488   5.611  13.982  0.00  0.00    +0.000 A 
ATOM      6  N   UNL     1      45.821   6.003  12.874  0.00  0.00    +0.000 NA
ENDROOT
BRANCH   1   8
ATOM      7  C   UNL     1      43.217   5.319  10.755  0.00  0.00    +0.000 C 
ATOM      8  C   UNL     1      44.743   5.511  10.682  0.00  0.00    +0.000 C 
BRANCH   8   9
ATOM      9  N   UNL     1      45.314   4.821   9.507  0.00  0.00    +0.000 NA
ATOM     10  H   UNL     1      45.741   5.507   8.888  0.00  0.00    +0.000 HD
BRANCH   9  11
ATOM     11  C   UNL     1      44.358   4.023   8.737  0.00  0.00    +0.000 C 
BRANCH  11  12
ATOM     12  C   UNL     1      45.105   2.980   7.890  0.00  0.00    +0.000 C 
ATOM     13  C   UNL     1      46.279   3.626   7.127  0.00  0.00    +0.000 C 
ATOM     14  C   UNL     1      47.073   2.570   6.369  0.00  0.00    +0.000 C 
ATOM     15  C   UNL     1      47.506   1.436   7.294  0.00  0.00    +0.000 C 
ATOM     16  N   UNL     1      46.364   0.841   7.990  0.00  0.00    +0.000 NA
ATOM     17  C   UNL     1      45.638   1.841   8.778  0.00  0.00    +0.000 C 
ATOM     18  H   UNL     1      46.698   0.102   8.607  0.00  0.00    +0.000 HD
ENDBRANCH  11  12
ENDBRANCH   9  11
ENDBRANCH   8   9
ENDBRANCH   1   8
BRANCH   4  19
ATOM     19  C   UNL     1      47.587   3.948  15.505  0.00  0.00    +0.000 C 
BRANCH  19  20
ATOM     20  N   UNL     1      47.651   5.052  16.426  0.00  0.00    +0.000 N 
ATOM     21  C   UNL     1      48.012   4.858  17.736  0.00  0.00    +0.000 C 
ATOM     22  O   UNL     1      48.352   3.755  18.157  0.00  0.00    +0.000 OA
ATOM     23  H   UNL     1      47.164   5.902  16.165  0.00  0.00    +0.000 HD
BRANCH  21  24
ATOM     24  C   UNL     1      48.031   6.046  18.598  0.00  0.00    +0.000 A 
ATOM     25  C   UNL     1      47.490   5.977  19.874  0.00  0.00    +0.000 A 
ATOM     26  S   UNL     1      47.638   7.425  20.762  0.00  0.00    +0.000 S 
ATOM     27  C   UNL     1      48.388   8.213  19.453  0.00  0.00    +0.000 A 
ATOM     28  N   UNL     1      48.759   9.519  19.544  0.00  0.00    +0.000 NA
ATOM     29  C   UNL     1      49.290   9.997  18.468  0.00  0.00    +0.000 A 
ATOM     30  N   UNL     1      49.484   9.291  17.312  0.00  0.00    +0.000 N 
ATOM     31  C   UNL     1      49.144   7.963  17.181  0.00  0.00    +0.000 A 
ATOM     32  O   UNL     1      49.358   7.351  16.139  0.00  0.00    +0.000 OA
ATOM     33  C   UNL     1      48.538   7.379  18.360  0.00  0.00    +0.000 A 
ATOM     34  H   UNL     1      49.911   9.723  16.505  0.00  0.00    +0.000 HD
ENDBRANCH  21  24
ENDBRANCH  19  20
ENDBRANCH   4  19
TORSDOF 7
ENDMDL
MODEL 5
REMARK VINA RESULT:    -7.200      2.476      3.094
REMARK INTER + INTRA:         -11.263
REMARK INTER:                 -10.365
REMARK INTRA:                  -0.898
REMARK UNBOUND:                -1.117
REMARK  Name = 
REMARK  8 active torsions:
REMARK  status: ('A' for Active; 'I' for Inactive)
REMARK    1  A    between atoms: C_1  and  C_2
REMARK    2  A    between atoms: C_2  and  N_3
REMARK    3  A    between atoms: C_2  and  C_11
REMARK    4  A    between atoms: N_3  and  C_4
REMARK    5  A    between atoms: C_4  and  C_5
REMARK    6  A    between atoms: C_14  and  C_15
REMARK    7  A    between atoms: C_15  and  N_16
REMARK    8  A    between atoms: C_17  and  C_19
REMARK                            x       y       z     vdW  Elec       q    Type
REMARK                         _______ _______ _______ _____ _____    ______ ____
ROOT
ATOM      1  C   UNL     1      45.284   5.175  11.776  0.00  0.00    +0.000 A 
ATOM      2  C   UNL     1      46.012   4.585  12.812  0.00  0.00    +0.000 A 
ATOM      3  C   UNL     1      46.941   5.352  13.521  0.00  0.00    +0.000 A 
ATOM      4  C   UNL     1      47.151   6.687  13.174  0.00  0.00    +0.000 A 
ATOM      5  C   UNL     1      46.357   7.206  12.163  0.00  0.00    +0.000 A 
ATOM      6  N   UNL     1      45.449   6.488  11.467  0.00  0.00    +0.000 NA
ENDROOT
BRANCH   1   8
ATOM      7  C   UNL     1      42.885   4.444  11.438  0.00  0.00    +0.000 C 
ATOM      8  C   UNL     1      44.327   4.334  10.909  0.00  0.00    +0.000 C 
BRANCH   8   9
ATOM      9  N   UNL     1      44.760   2.924  10.821  0.00  0.00    +0.000 NA
ATOM     10  H   UNL     1      45.744   2.857  11.073  0.00  0.00    +0.000 HD
BRANCH   9  11
ATOM     11  C   UNL     1      44.567   2.302   9.509  0.00  0.00    +0.000 C 
BRANCH  11  12
ATOM     12  C   UNL     1      45.779   2.588   8.608  0.00  0.00    +0.000 C 
ATOM     13  C   UNL     1      46.339   1.284   8.004  0.00  0.00    +0.000 C 
ATOM     14  C   UNL     1      47.476   1.585   7.036  0.00  0.00    +0.000 C 
ATOM     15  C   UNL     1      47.048   2.603   5.982  0.00  0.00    +0.000 C 
ATOM     16  N   UNL     1      46.534   3.830   6.593  0.00  0.00    +0.000 NA
ATOM     17  C   UNL     1      45.394   3.553   7.472  0.00  0.00    +0.000 C 
ATOM     18  H   UNL     1      46.245   4.472   5.857  0.00  0.00    +0.000 HD
ENDBRANCH  11  12
ENDBRANCH   9  11
ENDBRANCH   8   9
ENDBRANCH   1   8
BRANCH   4  19
ATOM     19  C   UNL     1      48.175   7.540  13.860  0.00  0.00    +0.000 C 
BRANCH  19  20
ATOM     20  N   UNL     1      49.075   6.753  14.659  0.00  0.00    +0.000 N 
ATOM     21  C   UNL     1      49.382   7.120  15.946  0.00  0.00    +0.000 C 
ATOM     22  O   UNL     1      48.858   8.092  16.484  0.00  0.00    +0.000 OA
ATOM     23  H   UNL     1      49.680   6.101  14.171  0.00  0.00    +0.000 HD
BRANCH  21  24
ATOM     24  C   UNL     1      50.324   6.260  16.671  0.00  0.00    +0.000 A 
ATOM     25  C   UNL     1      49.844   5.347  17.600  0.00  0.00    +0.000 A 
ATOM     26  S   UNL     1      51.061   4.390  18.315  0.00  0.00    +0.000 S 
ATOM     27  C   UNL     1      52.281   5.196  17.443  0.00  0.00    +0.000 A 
ATOM     28  N   UNL     1      53.591   4.871  17.611  0.00  0.00    +0.000 NA
ATOM     29  C   UNL     1      54.411   5.581  16.910  0.00  0.00    +0.000 A 
ATOM     30  N   UNL     1      54.040   6.584  16.055  0.00  0.00    +0.000 N 
ATOM     31  C   UNL     1      52.727   6.933  15.837  0.00  0.00    +0.000 A 
ATOM     32  O   UNL     1      52.427   7.819  15.042  0.00  0.00    +0.000 OA
ATOM     33  C   UNL     1      51.766   6.170  16.606  0.00  0.00    +0.000 A 
ATOM     34  H   UNL     1      54.731   7.099  15.530  0.00  0.00    +0.000 HD
ENDBRANCH  21  24
ENDBRANCH  19  20
ENDBRANCH   4  19
TORSDOF 7
ENDMDL
MODEL 6
REMARK VINA RESULT:    -7.086      3.220      8.914
REMARK INTER + INTRA:         -11.102
REMARK INTER:                  -9.866
REMARK INTRA:                  -1.236
REMARK UNBOUND:                -1.117
REMARK  Name = 
REMARK  8 active torsions:
REMARK  status: ('A' for Active; 'I' for Inactive)
REMARK    1  A    between atoms: C_1  and  C_2
REMARK    2  A    between atoms: C_2  and  N_3
REMARK    3  A    between atoms: C_2  and  C_11
REMARK    4  A    between atoms: N_3  and  C_4
REMARK    5  A    between atoms: C_4  and  C_5
REMARK    6  A    between atoms: C_14  and  C_15
REMARK    7  A    between atoms: C_15  and  N_16
REMARK    8  A    between atoms: C_17  and  C_19
REMARK                            x       y       z     vdW  Elec       q    Type
REMARK                         _______ _______ _______ _____ _____    ______ ____
ROOT
ATOM      1  C   UNL     1      49.591   7.946  15.790  0.00  0.00    +0.000 A 
ATOM      2  C   UNL     1      48.539   8.853  15.642  0.00  0.00    +0.000 A 
ATOM      3  C   UNL     1      47.786   8.845  14.464  0.00  0.00    +0.000 A 
ATOM      4  C   UNL     1      48.106   7.953  13.441  0.00  0.00    +0.000 A 
ATOM      5  C   UNL     1      49.136   7.057  13.685  0.00  0.00    +0.000 A 
ATOM      6  N   UNL     1      49.875   7.042  14.816  0.00  0.00    +0.000 NA
ENDROOT
BRANCH   1   8
ATOM      7  C   UNL     1      51.946   7.609  16.653  0.00  0.00    +0.000 C 
ATOM      8  C   UNL     1      50.504   7.995  17.031  0.00  0.00    +0.000 C 
BRANCH   8   9
ATOM      9  N   UNL     1      49.990   7.146  18.125  0.00  0.00    +0.000 NA
ATOM     10  H   UNL     1      50.278   7.538  19.020  0.00  0.00    +0.000 HD
BRANCH   9  11
ATOM     11  C   UNL     1      50.413   5.745  18.067  0.00  0.00    +0.000 C 
BRANCH  11  12
ATOM     12  C   UNL     1      49.293   4.882  17.465  0.00  0.00    +0.000 C 
ATOM     13  C   UNL     1      49.694   3.393  17.440  0.00  0.00    +0.000 C 
ATOM     14  C   UNL     1      48.542   2.534  16.935  0.00  0.00    +0.000 C 
ATOM     15  C   UNL     1      47.266   2.801  17.729  0.00  0.00    +0.000 C 
ATOM     16  N   UNL     1      46.911   4.221  17.718  0.00  0.00    +0.000 NA
ATOM     17  C   UNL     1      47.990   5.046  18.270  0.00  0.00    +0.000 C 
ATOM     18  H   UNL     1      46.066   4.357  18.271  0.00  0.00    +0.000 HD
ENDBRANCH  11  12
ENDBRANCH   9  11
ENDBRANCH   8   9
ENDBRANCH   1   8
BRANCH   4  19
ATOM     19  C   UNL     1      47.372   7.938  12.133  0.00  0.00    +0.000 C 
BRANCH  19  20
ATOM     20  N   UNL     1      46.750   6.665  11.886  0.00  0.00    +0.000 N 
ATOM     21  C   UNL     1      45.384   6.549  11.820  0.00  0.00    +0.000 C 
ATOM     22  O   UNL     1      44.645   7.527  11.906  0.00  0.00    +0.000 OA
ATOM     23  H   UNL     1      47.312   5.836  12.041  0.00  0.00    +0.000 HD
BRANCH  21  24
ATOM     24  C   UNL     1      44.847   5.204  11.580  0.00  0.00    +0.000 A 
ATOM     25  C   UNL     1      44.168   4.544  12.595  0.00  0.00    +0.000 A 
ATOM     26  S   UNL     1      43.566   3.015  12.138  0.00  0.00    +0.000 S 
ATOM     27  C   UNL     1      44.234   3.159  10.579  0.00  0.00    +0.000 A 
ATOM     28  N   UNL     1      44.101   2.159   9.667  0.00  0.00    +0.000 NA
ATOM     29  C   UNL     1      44.681   2.389   8.536  0.00  0.00    +0.000 A 
ATOM     30  N   UNL     1      45.378   3.526   8.233  0.00  0.00    +0.000 N 
ATOM     31  C   UNL     1      45.520   4.574   9.116  0.00  0.00    +0.000 A 
ATOM     32  O   UNL     1      46.129   5.592   8.802  0.00  0.00    +0.000 OA
ATOM     33  C   UNL     1      44.893   4.363  10.404  0.00  0.00    +0.000 A 
ATOM     34  H   UNL     1      45.805   3.648   7.326  0.00  0.00    +0.000 HD
ENDBRANCH  21  24
ENDBRANCH  19  20
ENDBRANCH   4  19
TORSDOF 7
ENDMDL
MODEL 7
REMARK VINA RESULT:    -6.996      4.630      5.769
REMARK INTER + INTRA:         -10.976
REMARK INTER:                  -9.914
REMARK INTRA:                  -1.062
REMARK UNBOUND:                -1.117
REMARK  Name = 
REMARK  8 active torsions:
REMARK  status: ('A' for Active; 'I' for Inactive)
REMARK    1  A    between atoms: C_1  and  C_2
REMARK    2  A    between atoms: C_2  and  N_3
REMARK    3  A    between atoms: C_2  and  C_11
REMARK    4  A    between atoms: N_3  and  C_4
REMARK    5  A    between atoms: C_4  and  C_5
REMARK    6  A    between atoms: C_14  and  C_15
REMARK    7  A    between atoms: C_15  and  N_16
REMARK    8  A    between atoms: C_17  and  C_19
REMARK                            x       y       z     vdW  Elec       q    Type
REMARK                         _______ _______ _______ _____ _____    ______ ____
ROOT
ATOM      1  C   UNL     1      44.382   5.700  11.386  0.00  0.00    +0.000 A 
ATOM      2  C   UNL     1      45.622   5.404  11.956  0.00  0.00    +0.000 A 
ATOM      3  C   UNL     1      46.395   6.437  12.493  0.00  0.00    +0.000 A 
ATOM      4  C   UNL     1      45.935   7.753  12.434  0.00  0.00    +0.000 A 
ATOM      5  C   UNL     1      44.675   7.955  11.891  0.00  0.00    +0.000 A 
ATOM      6  N   UNL     1      43.907   6.973  11.370  0.00  0.00    +0.000 NA
ENDROOT
BRANCH   1   8
ATOM      7  C   UNL     1      43.374   3.391  11.633  0.00  0.00    +0.000 C 
ATOM      8  C   UNL     1      43.551   4.601  10.696  0.00  0.00    +0.000 C 
BRANCH   8   9
ATOM      9  N   UNL     1      44.141   4.195   9.403  0.00  0.00    +0.000 NA
ATOM     10  H   UNL     1      43.487   4.409   8.653  0.00  0.00    +0.000 HD
BRANCH   9  11
ATOM     11  C   UNL     1      44.515   2.782   9.314  0.00  0.00    +0.000 C 
BRANCH  11  12
ATOM     12  C   UNL     1      45.894   2.645   8.648  0.00  0.00    +0.000 C 
ATOM     13  C   UNL     1      46.086   1.231   8.063  0.00  0.00    +0.000 C 
ATOM     14  C   UNL     1      47.412   1.133   7.319  0.00  0.00    +0.000 C 
ATOM     15  C   UNL     1      47.543   2.240   6.277  0.00  0.00    +0.000 C 
ATOM     16  N   UNL     1      47.367   3.566   6.873  0.00  0.00    +0.000 NA
ATOM     17  C   UNL     1      46.062   3.688   7.528  0.00  0.00    +0.000 C 
ATOM     18  H   UNL     1      47.445   4.272   6.142  0.00  0.00    +0.000 HD
ENDBRANCH  11  12
ENDBRANCH   9  11
ENDBRANCH   8   9
ENDBRANCH   1   8
BRANCH   4  19
ATOM     19  C   UNL     1      46.746   8.908  12.940  0.00  0.00    +0.000 C 
BRANCH  19  20
ATOM     20  N   UNL     1      47.946   9.094  12.169  0.00  0.00    +0.000 N 
ATOM     21  C   UNL     1      48.528  10.332  12.058  0.00  0.00    +0.000 C 
ATOM     22  O   UNL     1      48.089  11.310  12.657  0.00  0.00    +0.000 OA
ATOM     23  H   UNL     1      48.183   8.371  11.499  0.00  0.00    +0.000 HD
BRANCH  21  24
ATOM     24  C   UNL     1      49.741  10.419  11.236  0.00  0.00    +0.000 A 
ATOM     25  C   UNL     1      49.887  11.467  10.337  0.00  0.00    +0.000 A 
ATOM     26  S   UNL     1      51.372  11.451   9.499  0.00  0.00    +0.000 S 
ATOM     27  C   UNL     1      51.853  10.012  10.271  0.00  0.00    +0.000 A 
ATOM     28  N   UNL     1      53.047   9.428   9.981  0.00  0.00    +0.000 NA
ATOM     29  C   UNL     1      53.271   8.328  10.618  0.00  0.00    +0.000 A 
ATOM     30  N   UNL     1      52.413   7.759  11.520  0.00  0.00    +0.000 N 
ATOM     31  C   UNL     1      51.205   8.325  11.862  0.00  0.00    +0.000 A 
ATOM     32  O   UNL     1      50.471   7.803  12.696  0.00  0.00    +0.000 OA
ATOM     33  C   UNL     1      50.902   9.560  11.169  0.00  0.00    +0.000 A 
ATOM     34  H   UNL     1      52.650   6.898  11.990  0.00  0.00    +0.000 HD
ENDBRANCH  21  24
ENDBRANCH  19  20
ENDBRANCH   4  19
TORSDOF 7
ENDMDL
MODEL 8
REMARK VINA RESULT:    -6.482      3.609      8.628
REMARK INTER + INTRA:         -10.252
REMARK INTER:                  -8.915
REMARK INTRA:                  -1.336
REMARK UNBOUND:                -1.117
REMARK  Name = 
REMARK  8 active torsions:
REMARK  status: ('A' for Active; 'I' for Inactive)
REMARK    1  A    between atoms: C_1  and  C_2
REMARK    2  A    between atoms: C_2  and  N_3
REMARK    3  A    between atoms: C_2  and  C_11
REMARK    4  A    between atoms: N_3  and  C_4
REMARK    5  A    between atoms: C_4  and  C_5
REMARK    6  A    between atoms: C_14  and  C_15
REMARK    7  A    between atoms: C_15  and  N_16
REMARK    8  A    between atoms: C_17  and  C_19
REMARK                            x       y       z     vdW  Elec       q    Type
REMARK                         _______ _______ _______ _____ _____    ______ ____
ROOT
ATOM      1  C   UNL     1      50.463   7.361  15.490  0.00  0.00    +0.000 A 
ATOM      2  C   UNL     1      49.110   7.018  15.457  0.00  0.00    +0.000 A 
ATOM      3  C   UNL     1      48.364   7.279  14.304  0.00  0.00    +0.000 A 
ATOM      4  C   UNL     1      48.968   7.900  13.210  0.00  0.00    +0.000 A 
ATOM      5  C   UNL     1      50.325   8.168  13.309  0.00  0.00    +0.000 A 
ATOM      6  N   UNL     1      51.068   7.921  14.410  0.00  0.00    +0.000 NA
ENDROOT
BRANCH   1   8
ATOM      7  C   UNL     1      52.708   7.750  16.593  0.00  0.00    +0.000 C 
ATOM      8  C   UNL     1      51.289   7.181  16.779  0.00  0.00    +0.000 C 
BRANCH   8   9
ATOM      9  N   UNL     1      51.330   5.769  17.213  0.00  0.00    +0.000 NA
ATOM     10  H   UNL     1      51.018   5.173  16.450  0.00  0.00    +0.000 HD
BRANCH   9  11
ATOM     11  C   UNL     1      50.531   5.468  18.403  0.00  0.00    +0.000 C 
BRANCH  11  12
ATOM     12  C   UNL     1      49.738   4.169  18.188  0.00  0.00    +0.000 C 
ATOM     13  C   UNL     1      48.268   4.470  17.830  0.00  0.00    +0.000 C 
ATOM     14  C   UNL     1      47.515   3.183  17.522  0.00  0.00    +0.000 C 
ATOM     15  C   UNL     1      48.239   2.361  16.459  0.00  0.00    +0.000 C 
ATOM     16  N   UNL     1      49.625   2.085  16.841  0.00  0.00    +0.000 NA
ATOM     17  C   UNL     1      50.374   3.324  17.069  0.00  0.00    +0.000 C 
ATOM     18  H   UNL     1      50.074   1.551  16.098  0.00  0.00    +0.000 HD
ENDBRANCH  11  12
ENDBRANCH   9  11
ENDBRANCH   8   9
ENDBRANCH   1   8
BRANCH   4  19
ATOM     19  C   UNL     1      48.204   8.257  11.971  0.00  0.00    +0.000 C 
BRANCH  19  20
ATOM     20  N   UNL     1      47.563   7.108  11.391  0.00  0.00    +0.000 N 
ATOM     21  C   UNL     1      46.194   7.011  11.347  0.00  0.00    +0.000 C 
ATOM     22  O   UNL     1      45.468   7.920  11.740  0.00  0.00    +0.000 OA
ATOM     23  H   UNL     1      48.124   6.271  11.278  0.00  0.00    +0.000 HD
BRANCH  21  24
ATOM     24  C   UNL     1      45.638   5.791  10.750  0.00  0.00    +0.000 A 
ATOM     25  C   UNL     1      45.847   5.528   9.403  0.00  0.00    +0.000 A 
ATOM     26  S   UNL     1      45.180   4.048   8.880  0.00  0.00    +0.000 S 
ATOM     27  C   UNL     1      44.544   3.727  10.426  0.00  0.00    +0.000 A 
ATOM     28  N   UNL     1      43.820   2.601  10.664  0.00  0.00    +0.000 NA
ATOM     29  C   UNL     1      43.374   2.499  11.872  0.00  0.00    +0.000 A 
ATOM     30  N   UNL     1      43.588   3.418  12.863  0.00  0.00    +0.000 N 
ATOM     31  C   UNL     1      44.332   4.561  12.675  0.00  0.00    +0.000 A 
ATOM     32  O   UNL     1      44.528   5.351  13.593  0.00  0.00    +0.000 OA
ATOM     33  C   UNL     1      44.850   4.727  11.333  0.00  0.00    +0.000 A 
ATOM     34  H   UNL     1      43.216   3.277  13.790  0.00  0.00    +0.000 HD
ENDBRANCH  21  24
ENDBRANCH  19  20
ENDBRANCH   4  19
TORSDOF 7
ENDMDL
MODEL 9
REMARK VINA RESULT:    -6.301      5.023      8.466
REMARK INTER + INTRA:          -9.997
REMARK INTER:                  -8.944
REMARK INTRA:                  -1.053
REMARK UNBOUND:                -1.117
REMARK  Name = 
REMARK  8 active torsions:
REMARK  status: ('A' for Active; 'I' for Inactive)
REMARK    1  A    between atoms: C_1  and  C_2
REMARK    2  A    between atoms: C_2  and  N_3
REMARK    3  A    between atoms: C_2  and  C_11
REMARK    4  A    between atoms: N_3  and  C_4
REMARK    5  A    between atoms: C_4  and  C_5
REMARK    6  A    between atoms: C_14  and  C_15
REMARK    7  A    between atoms: C_15  and  N_16
REMARK    8  A    between atoms: C_17  and  C_19
REMARK                            x       y       z     vdW  Elec       q    Type
REMARK                         _______ _______ _______ _____ _____    ______ ____
ROOT
ATOM      1  C   UNL     1      50.318   8.771  12.067  0.00  0.00    +0.000 A 
ATOM      2  C   UNL     1      49.485   9.887  12.176  0.00  0.00    +0.000 A 
ATOM      3  C   UNL     1      48.100   9.707  12.230  0.00  0.00    +0.000 A 
ATOM      4  C   UNL     1      47.562   8.423  12.150  0.00  0.00    +0.000 A 
ATOM      5  C   UNL     1      48.459   7.367  12.087  0.00  0.00    +0.000 A 
ATOM      6  N   UNL     1      49.802   7.515  12.039  0.00  0.00    +0.000 NA
ENDROOT
BRANCH   1   8
ATOM      7  C   UNL     1      52.240  10.418  12.068  0.00  0.00    +0.000 C 
ATOM      8  C   UNL     1      51.842   8.939  11.903  0.00  0.00    +0.000 C 
BRANCH   8   9
ATOM      9  N   UNL     1      52.319   8.396  10.615  0.00  0.00    +0.000 NA
ATOM     10  H   UNL     1      51.528   8.034  10.087  0.00  0.00    +0.000 HD
BRANCH   9  11
ATOM     11  C   UNL     1      53.330   7.342  10.729  0.00  0.00    +0.000 C 
BRANCH  11  12
ATOM     12  C   UNL     1      53.158   6.323   9.591  0.00  0.00    +0.000 C 
ATOM     13  C   UNL     1      52.787   7.026   8.269  0.00  0.00    +0.000 C 
ATOM     14  C   UNL     1      52.715   6.021   7.127  0.00  0.00    +0.000 C 
ATOM     15  C   UNL     1      53.999   5.200   7.034  0.00  0.00    +0.000 C 
ATOM     16  N   UNL     1      54.309   4.538   8.302  0.00  0.00    +0.000 NA
ATOM     17  C   UNL     1      54.450   5.509   9.392  0.00  0.00    +0.000 C 
ATOM     18  H   UNL     1      55.178   4.017   8.201  0.00  0.00    +0.000 HD
ENDBRANCH  11  12
ENDBRANCH   9  11
ENDBRANCH   8   9
ENDBRANCH   1   8
BRANCH   4  19
ATOM     19  C   UNL     1      46.084   8.173  12.144  0.00  0.00    +0.000 C 
BRANCH  19  20
ATOM     20  N   UNL     1      45.777   6.800  11.844  0.00  0.00    +0.000 N 
ATOM     21  C   UNL     1      44.507   6.424  11.485  0.00  0.00    +0.000 C 
ATOM     22  O   UNL     1      43.603   7.244  11.345  0.00  0.00    +0.000 OA
ATOM     23  H   UNL     1      46.430   6.097  12.170  0.00  0.00    +0.000 HD
BRANCH  21  24
ATOM     24  C   UNL     1      44.293   4.997  11.215  0.00  0.00    +0.000 A 
ATOM     25  C   UNL     1      43.535   4.237  12.096  0.00  0.00    +0.000 A 
ATOM     26  S   UNL     1      43.341   2.614  11.612  0.00  0.00    +0.000 S 
ATOM     27  C   UNL     1      44.305   2.855  10.230  0.00  0.00    +0.000 A 
ATOM     28  N   UNL     1      44.567   1.831   9.373  0.00  0.00    +0.000 NA
ATOM     29  C   UNL     1      45.335   2.147   8.384  0.00  0.00    +0.000 A 
ATOM     30  N   UNL     1      45.863   3.392   8.173  0.00  0.00    +0.000 N 
ATOM     31  C   UNL     1      45.608   4.463   9.000  0.00  0.00    +0.000 A 
ATOM     32  O   UNL     1      46.075   5.574   8.765  0.00  0.00    +0.000 OA
ATOM     33  C   UNL     1      44.756   4.159  10.130  0.00  0.00    +0.000 A 
ATOM     34  H   UNL     1      46.453   3.576   7.375  0.00  0.00    +0.000 HD
ENDBRANCH  21  24
ENDBRANCH  19  20
ENDBRANCH   4  19
TORSDOF 7
ENDMDL
