MODEL 1
REMARK VINA RESULT:    -8.653      0.000      0.000
REMARK INTER + INTRA:         -13.817
REMARK INTER:                 -12.194
REMARK INTRA:                  -1.623
REMARK UNBOUND:                -1.623
REMARK  Name = 
REMARK  8 active torsions:
REMARK  status: ('A' for Active; 'I' for Inactive)
REMARK    1  A    between atoms: C_1  and  O_2
REMARK    2  A    between atoms: O_2  and  C_3
REMARK    3  A    between atoms: C_10  and  C_11
REMARK    4  A    between atoms: N_13  and  C_14
REMARK    5  A    between atoms: C_14  and  C_15
REMARK    6  A    between atoms: C_18  and  C_19
REMARK    7  A    between atoms: C_20  and  C_21
REMARK    8  A    between atoms: C_21  and  C_22
REMARK                            x       y       z     vdW  Elec       q    Type
REMARK                         _______ _______ _______ _____ _____    ______ ____
ROOT
ATOM      1  C   UNL     1      47.208   7.814  13.207  0.00  0.00    +0.000 C 
ENDROOT
BRANCH   1   2
ATOM      2  C   UNL     1      46.231   7.039  12.361  0.00  0.00    +0.000 A 
ATOM      3  C   UNL     1      44.985   6.661  12.879  0.00  0.00    +0.000 A 
ATOM      4  C   UNL     1      44.113   5.865  12.128  0.00  0.00    +0.000 A 
ATOM      5  C   UNL     1      44.477   5.431  10.850  0.00  0.00    +0.000 A 
ATOM      6  C   UNL     1      45.706   5.830  10.317  0.00  0.00    +0.000 A 
ATOM      7  C   UNL     1      46.579   6.624  11.068  0.00  0.00    +0.000 A 
BRANCH   5   8
ATOM      8  C   UNL     1      43.632   4.493  10.108  0.00  0.00    +0.000 C 
ATOM      9  C   UNL     1      43.975   3.275   9.659  0.00  0.00    +0.000 C 
BRANCH   9  10
ATOM     10  C   UNL     1      45.312   2.597   9.759  0.00  0.00    +0.000 C 
BRANCH  10  11
ATOM     11  C   UNL     1      46.052   2.533   8.441  0.00  0.00    +0.000 A 
ATOM     12  C   UNL     1      46.595   1.323   7.973  0.00  0.00    +0.000 A 
ATOM     13  C   UNL     1      47.222   1.265   6.726  0.00  0.00    +0.000 A 
ATOM     14  C   UNL     1      47.317   2.415   5.951  0.00  0.00    +0.000 A 
ATOM     15  F   UNL     1      47.899   2.353   4.746  0.00  0.00    +0.000 F 
ATOM     16  C   UNL     1      46.813   3.625   6.407  0.00  0.00    +0.000 A 
ATOM     17  C   UNL     1      46.185   3.687   7.652  0.00  0.00    +0.000 A 
ENDBRANCH  10  11
ENDBRANCH   9  10
ENDBRANCH   5   8
ENDBRANCH   1   2
BRANCH   1  20
ATOM     18  C   UNL     1      48.823   6.876  14.796  0.00  0.00    +0.000 C 
ATOM     19  O   UNL     1      49.756   7.275  14.099  0.00  0.00    +0.000 OA
ATOM     20  N   UNL     1      47.526   7.098  14.422  0.00  0.00    +0.000 N 
ATOM     21  H   UNL     1      46.762   6.764  14.995  0.00  0.00    +0.000 HD
BRANCH  18  29
ATOM     22  C   UNL     1      47.311   4.167  16.322  0.00  0.00    +0.000 A 
ATOM     23  N   UNL     1      46.934   3.154  17.133  0.00  0.00    +0.000 NA
ATOM     24  C   UNL     1      47.620   2.953  18.262  0.00  0.00    +0.000 A 
ATOM     25  N   UNL     1      48.659   3.656  18.697  0.00  0.00    +0.000 NA
ATOM     26  C   UNL     1      49.004   4.653  17.868  0.00  0.00    +0.000 A 
ATOM     27  S   UNL     1      50.313   5.653  18.275  0.00  0.00    +0.000 S 
ATOM     28  C   UNL     1      50.115   6.567  16.859  0.00  0.00    +0.000 A 
ATOM     29  C   UNL     1      49.068   6.141  16.049  0.00  0.00    +0.000 A 
ATOM     30  C   UNL     1      48.398   4.992  16.658  0.00  0.00    +0.000 A 
BRANCH  22  32
ATOM     31  C   UNL     1      47.096   3.618  14.050  0.00  0.00    +0.000 C 
ATOM     32  O   UNL     1      46.601   4.372  15.155  0.00  0.00    +0.000 OA
ENDBRANCH  22  32
ENDBRANCH  18  29
ENDBRANCH   1  20
TORSDOF 7
ENDMDL
MODEL 2
REMARK VINA RESULT:    -8.395      1.738      2.210
REMARK INTER + INTRA:         -13.453
REMARK INTER:                 -12.028
REMARK INTRA:                  -1.425
REMARK UNBOUND:                -1.623
REMARK  Name = 
REMARK  8 active torsions:
REMARK  status: ('A' for Active; 'I' for Inactive)
REMARK    1  A    between atoms: C_1  and  O_2
REMARK    2  A    between atoms: O_2  and  C_3
REMARK    3  A    between atoms: C_10  and  C_11
REMARK    4  A    between atoms: N_13  and  C_14
REMARK    5  A    between atoms: C_14  and  C_15
REMARK    6  A    between atoms: C_18  and  C_19
REMARK    7  A    between atoms: C_20  and  C_21
REMARK    8  A    between atoms: C_21  and  C_22
REMARK                            x       y       z     vdW  Elec       q    Type
REMARK                         _______ _______ _______ _____ _____    ______ ____
ROOT
ATOM      1  C   UNL     1      48.355   6.629  13.602  0.00  0.00    +0.000 C 
ENDROOT
BRANCH   1   2
ATOM      2  C   UNL     1      47.134   6.168  12.850  0.00  0.00    +0.000 A 
ATOM      3  C   UNL     1      46.302   5.176  13.386  0.00  0.00    +0.000 A 
ATOM      4  C   UNL     1      45.218   4.681  12.651  0.00  0.00    +0.000 A 
ATOM      5  C   UNL     1      44.956   5.167  11.367  0.00  0.00    +0.000 A 
ATOM      6  C   UNL     1      45.765   6.177  10.840  0.00  0.00    +0.000 A 
ATOM      7  C   UNL     1      46.849   6.671  11.573  0.00  0.00    +0.000 A 
BRANCH   5   8
ATOM      8  C   UNL     1      43.907   4.567  10.539  0.00  0.00    +0.000 C 
ATOM      9  C   UNL     1      43.960   3.389   9.894  0.00  0.00    +0.000 C 
BRANCH   9  10
ATOM     10  C   UNL     1      45.112   2.428   9.820  0.00  0.00    +0.000 C 
BRANCH  10  11
ATOM     11  C   UNL     1      45.819   2.442   8.481  0.00  0.00    +0.000 A 
ATOM     12  C   UNL     1      45.876   3.613   7.705  0.00  0.00    +0.000 A 
ATOM     13  C   UNL     1      46.583   3.630   6.501  0.00  0.00    +0.000 A 
ATOM     14  C   UNL     1      47.225   2.476   6.066  0.00  0.00    +0.000 A 
ATOM     15  F   UNL     1      47.922   2.499   4.922  0.00  0.00    +0.000 F 
ATOM     16  C   UNL     1      47.158   1.302   6.804  0.00  0.00    +0.000 A 
ATOM     17  C   UNL     1      46.452   1.282   8.008  0.00  0.00    +0.000 A 
ENDBRANCH  10  11
ENDBRANCH   9  10
ENDBRANCH   5   8
ENDBRANCH   1   2
BRANCH   1  20
ATOM     18  C   UNL     1      49.022   6.713  15.959  0.00  0.00    +0.000 C 
ATOM     19  O   UNL     1      50.174   6.401  15.656  0.00  0.00    +0.000 OA
ATOM     20  N   UNL     1      48.057   6.843  14.999  0.00  0.00    +0.000 N 
ATOM     21  H   UNL     1      47.110   7.095  15.254  0.00  0.00    +0.000 HD
BRANCH  18  29
ATOM     22  C   UNL     1      48.897   4.716  18.778  0.00  0.00    +0.000 A 
ATOM     23  N   UNL     1      48.751   4.193  20.015  0.00  0.00    +0.000 NA
ATOM     24  C   UNL     1      48.325   4.991  20.999  0.00  0.00    +0.000 A 
ATOM     25  N   UNL     1      48.014   6.278  20.900  0.00  0.00    +0.000 NA
ATOM     26  C   UNL     1      48.170   6.763  19.658  0.00  0.00    +0.000 A 
ATOM     27  S   UNL     1      47.814   8.394  19.355  0.00  0.00    +0.000 S 
ATOM     28  C   UNL     1      48.225   8.229  17.717  0.00  0.00    +0.000 A 
ATOM     29  C   UNL     1      48.642   6.950  17.363  0.00  0.00    +0.000 A 
ATOM     30  C   UNL     1      48.606   6.069  18.529  0.00  0.00    +0.000 A 
BRANCH  22  32
ATOM     31  C   UNL     1      48.284   3.206  17.089  0.00  0.00    +0.000 C 
ATOM     32  O   UNL     1      49.338   3.889  17.764  0.00  0.00    +0.000 OA
ENDBRANCH  22  32
ENDBRANCH  18  29
ENDBRANCH   1  20
TORSDOF 7
ENDMDL
MODEL 3
REMARK VINA RESULT:    -8.247      2.168      2.984
REMARK INTER + INTRA:         -13.246
REMARK INTER:                 -11.928
REMARK INTRA:                  -1.317
REMARK UNBOUND:                -1.623
REMARK  Name = 
REMARK  8 active torsions:
REMARK  status: ('A' for Active; 'I' for Inactive)
REMARK    1  A    between atoms: C_1  and  O_2
REMARK    2  A    between atoms: O_2  and  C_3
REMARK    3  A    between atoms: C_10  and  C_11
REMARK    4  A    between atoms: N_13  and  C_14
REMARK    5  A    between atoms: C_14  and  C_15
REMARK    6  A    between atoms: C_18  and  C_19
REMARK    7  A    between atoms: C_20  and  C_21
REMARK    8  A    between atoms: C_21  and  C_22
REMARK                            x       y       z     vdW  Elec       q    Type
REMARK                         _______ _______ _______ _____ _____    ______ ____
ROOT
ATOM      1  C   UNL     1      48.128   7.026  13.714  0.00  0.00    +0.000 C 
ENDROOT
BRANCH   1   2
ATOM      2  C   UNL     1      47.142   6.320  12.819  0.00  0.00    +0.000 A 
ATOM      3  C   UNL     1      46.961   6.737  11.493  0.00  0.00    +0.000 A 
ATOM      4  C   UNL     1      45.983   6.143  10.687  0.00  0.00    +0.000 A 
ATOM      5  C   UNL     1      45.168   5.129  11.197  0.00  0.00    +0.000 A 
ATOM      6  C   UNL     1      45.365   4.689  12.510  0.00  0.00    +0.000 A 
ATOM      7  C   UNL     1      46.341   5.283  13.316  0.00  0.00    +0.000 A 
BRANCH   5   8
ATOM      8  C   UNL     1      44.058   4.591  10.408  0.00  0.00    +0.000 C 
ATOM      9  C   UNL     1      44.016   3.409   9.770  0.00  0.00    +0.000 C 
BRANCH   9  10
ATOM     10  C   UNL     1      45.103   2.377   9.666  0.00  0.00    +0.000 C 
BRANCH  10  11
ATOM     11  C   UNL     1      45.834   2.408   8.341  0.00  0.00    +0.000 A 
ATOM     12  C   UNL     1      45.848   3.570   7.549  0.00  0.00    +0.000 A 
ATOM     13  C   UNL     1      46.576   3.605   6.357  0.00  0.00    +0.000 A 
ATOM     14  C   UNL     1      47.281   2.478   5.951  0.00  0.00    +0.000 A 
ATOM     15  F   UNL     1      47.998   2.519   4.819  0.00  0.00    +0.000 F 
ATOM     16  C   UNL     1      47.258   1.312   6.704  0.00  0.00    +0.000 A 
ATOM     17  C   UNL     1      46.531   1.274   7.895  0.00  0.00    +0.000 A 
ENDBRANCH  10  11
ENDBRANCH   9  10
ENDBRANCH   5   8
ENDBRANCH   1   2
BRANCH   1  20
ATOM     18  C   UNL     1      49.027   6.443  15.919  0.00  0.00    +0.000 C 
ATOM     19  O   UNL     1      50.176   6.599  15.504  0.00  0.00    +0.000 OA
ATOM     20  N   UNL     1      47.953   6.630  15.093  0.00  0.00    +0.000 N 
ATOM     21  H   UNL     1      47.011   6.496  15.438  0.00  0.00    +0.000 HD
BRANCH  18  29
ATOM     22  C   UNL     1      47.939   8.130  18.734  0.00  0.00    +0.000 A 
ATOM     23  N   UNL     1      47.542   8.514  19.967  0.00  0.00    +0.000 NA
ATOM     24  C   UNL     1      47.505   7.598  20.939  0.00  0.00    +0.000 A 
ATOM     25  N   UNL     1      47.825   6.313  20.834  0.00  0.00    +0.000 NA
ATOM     26  C   UNL     1      48.215   5.968  19.596  0.00  0.00    +0.000 A 
ATOM     27  S   UNL     1      48.663   4.361  19.288  0.00  0.00    +0.000 S 
ATOM     28  C   UNL     1      48.992   4.716  17.662  0.00  0.00    +0.000 A 
ATOM     29  C   UNL     1      48.769   6.044  17.314  0.00  0.00    +0.000 A 
ATOM     30  C   UNL     1      48.305   6.797  18.478  0.00  0.00    +0.000 A 
BRANCH  22  32
ATOM     31  C   UNL     1      47.666  10.395  18.184  0.00  0.00    +0.000 C 
ATOM     32  O   UNL     1      47.975   9.078  17.731  0.00  0.00    +0.000 OA
ENDBRANCH  22  32
ENDBRANCH  18  29
ENDBRANCH   1  20
TORSDOF 7
ENDMDL
MODEL 4
REMARK VINA RESULT:    -7.599      2.638      3.418
REMARK INTER + INTRA:         -12.332
REMARK INTER:                 -10.783
REMARK INTRA:                  -1.549
REMARK UNBOUND:                -1.623
REMARK  Name = 
REMARK  8 active torsions:
REMARK  status: ('A' for Active; 'I' for Inactive)
REMARK    1  A    between atoms: C_1  and  O_2
REMARK    2  A    between atoms: O_2  and  C_3
REMARK    3  A    between atoms: C_10  and  C_11
REMARK    4  A    between atoms: N_13  and  C_14
REMARK    5  A    between atoms: C_14  and  C_15
REMARK    6  A    between atoms: C_18  and  C_19
REMARK    7  A    between atoms: C_20  and  C_21
REMARK    8  A    between atoms: C_21  and  C_22
REMARK                            x       y       z     vdW  Elec       q    Type
REMARK                         _______ _______ _______ _____ _____    ______ ____
ROOT
ATOM      1  C   UNL     1      47.893   5.196  14.795  0.00  0.00    +0.000 C 
ENDROOT
BRANCH   1   2
ATOM      2  C   UNL     1      46.854   5.225  13.704  0.00  0.00    +0.000 A 
ATOM      3  C   UNL     1      45.702   4.434  13.797  0.00  0.00    +0.000 A 
ATOM      4  C   UNL     1      44.780   4.391  12.745  0.00  0.00    +0.000 A 
ATOM      5  C   UNL     1      45.002   5.133  11.581  0.00  0.00    +0.000 A 
ATOM      6  C   UNL     1      46.135   5.946  11.495  0.00  0.00    +0.000 A 
ATOM      7  C   UNL     1      47.057   5.989  12.546  0.00  0.00    +0.000 A 
BRANCH   5   8
ATOM      8  C   UNL     1      44.115   4.995  10.424  0.00  0.00    +0.000 C 
ATOM      9  C   UNL     1      44.037   3.950   9.583  0.00  0.00    +0.000 C 
BRANCH   9  10
ATOM     10  C   UNL     1      44.867   2.698   9.588  0.00  0.00    +0.000 C 
BRANCH  10  11
ATOM     11  C   UNL     1      45.716   2.537   8.346  0.00  0.00    +0.000 A 
ATOM     12  C   UNL     1      45.877   3.597   7.436  0.00  0.00    +0.000 A 
ATOM     13  C   UNL     1      46.712   3.456   6.325  0.00  0.00    +0.000 A 
ATOM     14  C   UNL     1      47.378   2.253   6.116  0.00  0.00    +0.000 A 
ATOM     15  F   UNL     1      48.196   2.126   5.063  0.00  0.00    +0.000 F 
ATOM     16  C   UNL     1      47.211   1.185   6.987  0.00  0.00    +0.000 A 
ATOM     17  C   UNL     1      46.378   1.323   8.098  0.00  0.00    +0.000 A 
ENDBRANCH  10  11
ENDBRANCH   9  10
ENDBRANCH   5   8
ENDBRANCH   1   2
BRANCH   1  20
ATOM     18  C   UNL     1      49.008   7.195  15.674  0.00  0.00    +0.000 C 
ATOM     19  O   UNL     1      50.064   6.853  15.140  0.00  0.00    +0.000 OA
ATOM     20  N   UNL     1      47.884   6.425  15.555  0.00  0.00    +0.000 N 
ATOM     21  H   UNL     1      47.019   6.707  16.000  0.00  0.00    +0.000 HD
BRANCH  18  29
ATOM     22  C   UNL     1      47.808   7.952  18.826  0.00  0.00    +0.000 A 
ATOM     23  N   UNL     1      47.428   8.533  19.985  0.00  0.00    +0.000 NA
ATOM     24  C   UNL     1      47.631   9.844  20.138  0.00  0.00    +0.000 A 
ATOM     25  N   UNL     1      48.176  10.673  19.254  0.00  0.00    +0.000 NA
ATOM     26  C   UNL     1      48.540  10.063  18.115  0.00  0.00    +0.000 A 
ATOM     27  S   UNL     1      49.251  10.978  16.877  0.00  0.00    +0.000 S 
ATOM     28  C   UNL     1      49.397   9.608  15.885  0.00  0.00    +0.000 A 
ATOM     29  C   UNL     1      48.920   8.436  16.462  0.00  0.00    +0.000 A 
ATOM     30  C   UNL     1      48.402   8.710  17.802  0.00  0.00    +0.000 A 
BRANCH  22  32
ATOM     31  C   UNL     1      48.671   5.797  19.167  0.00  0.00    +0.000 C 
ATOM     32  O   UNL     1      47.599   6.596  18.672  0.00  0.00    +0.000 OA
ENDBRANCH  22  32
ENDBRANCH  18  29
ENDBRANCH   1  20
TORSDOF 7
ENDMDL
MODEL 5
REMARK VINA RESULT:    -7.334      1.857      2.820
REMARK INTER + INTRA:         -11.958
REMARK INTER:                 -10.529
REMARK INTRA:                  -1.429
REMARK UNBOUND:                -1.623
REMARK  Name = 
REMARK  8 active torsions:
REMARK  status: ('A' for Active; 'I' for Inactive)
REMARK    1  A    between atoms: C_1  and  O_2
REMARK    2  A    between atoms: O_2  and  C_3
REMARK    3  A    between atoms: C_10  and  C_11
REMARK    4  A    between atoms: N_13  and  C_14
REMARK    5  A    between atoms: C_14  and  C_15
REMARK    6  A    between atoms: C_18  and  C_19
REMARK    7  A    between atoms: C_20  and  C_21
REMARK    8  A    between atoms: C_21  and  C_22
REMARK                            x       y       z     vdW  Elec       q    Type
REMARK                         _______ _______ _______ _____ _____    ______ ____
ROOT
ATOM      1  C   UNL     1      48.495   7.946  12.943  0.00  0.00    +0.000 C 
ENDROOT
BRANCH   1   2
ATOM      2  C   UNL     1      47.310   7.017  12.999  0.00  0.00    +0.000 A 
ATOM      3  C   UNL     1      47.496   5.635  13.141  0.00  0.00    +0.000 A 
ATOM      4  C   UNL     1      46.403   4.761  13.102  0.00  0.00    +0.000 A 
ATOM      5  C   UNL     1      45.110   5.257  12.914  0.00  0.00    +0.000 A 
ATOM      6  C   UNL     1      44.916   6.636  12.800  0.00  0.00    +0.000 A 
ATOM      7  C   UNL     1      46.008   7.510  12.838  0.00  0.00    +0.000 A 
BRANCH   5   8
ATOM      8  C   UNL     1      43.976   4.346  12.741  0.00  0.00    +0.000 C 
ATOM      9  C   UNL     1      43.324   4.072  11.599  0.00  0.00    +0.000 C 
BRANCH   9  10
ATOM     10  C   UNL     1      43.558   4.664  10.238  0.00  0.00    +0.000 C 
BRANCH  10  11
ATOM     11  C   UNL     1      44.518   3.856   9.391  0.00  0.00    +0.000 A 
ATOM     12  C   UNL     1      45.400   4.486   8.495  0.00  0.00    +0.000 A 
ATOM     13  C   UNL     1      46.322   3.734   7.764  0.00  0.00    +0.000 A 
ATOM     14  C   UNL     1      46.359   2.353   7.919  0.00  0.00    +0.000 A 
ATOM     15  F   UNL     1      47.259   1.634   7.235  0.00  0.00    +0.000 F 
ATOM     16  C   UNL     1      45.478   1.709   8.778  0.00  0.00    +0.000 A 
ATOM     17  C   UNL     1      44.556   2.457   9.510  0.00  0.00    +0.000 A 
ENDBRANCH  10  11
ENDBRANCH   9  10
ENDBRANCH   5   8
ENDBRANCH   1   2
BRANCH   1  20
ATOM     18  C   UNL     1      49.606   7.628  15.105  0.00  0.00    +0.000 C 
ATOM     19  O   UNL     1      48.696   8.230  15.674  0.00  0.00    +0.000 OA
ATOM     20  N   UNL     1      49.585   7.447  13.749  0.00  0.00    +0.000 N 
ATOM     21  H   UNL     1      50.339   6.955  13.285  0.00  0.00    +0.000 HD
BRANCH  18  29
ATOM     22  C   UNL     1      49.987   5.017  17.339  0.00  0.00    +0.000 A 
ATOM     23  N   UNL     1      50.428   4.089  18.217  0.00  0.00    +0.000 NA
ATOM     24  C   UNL     1      51.719   4.099  18.559  0.00  0.00    +0.000 A 
ATOM     25  N   UNL     1      52.650   4.944  18.129  0.00  0.00    +0.000 NA
ATOM     26  C   UNL     1      52.176   5.851  17.261  0.00  0.00    +0.000 A 
ATOM     27  S   UNL     1      53.234   7.008  16.613  0.00  0.00    +0.000 S 
ATOM     28  C   UNL     1      51.985   7.708  15.702  0.00  0.00    +0.000 A 
ATOM     29  C   UNL     1      50.751   7.088  15.860  0.00  0.00    +0.000 A 
ATOM     30  C   UNL     1      50.865   5.973  16.799  0.00  0.00    +0.000 A 
BRANCH  22  32
ATOM     31  C   UNL     1      47.790   4.585  18.041  0.00  0.00    +0.000 C 
ATOM     32  O   UNL     1      48.652   5.003  16.985  0.00  0.00    +0.000 OA
ENDBRANCH  22  32
ENDBRANCH  18  29
ENDBRANCH   1  20
TORSDOF 7
ENDMDL
MODEL 6
REMARK VINA RESULT:    -7.272      2.170      3.599
REMARK INTER + INTRA:         -11.871
REMARK INTER:                 -10.806
REMARK INTRA:                  -1.064
REMARK UNBOUND:                -1.623
REMARK  Name = 
REMARK  8 active torsions:
REMARK  status: ('A' for Active; 'I' for Inactive)
REMARK    1  A    between atoms: C_1  and  O_2
REMARK    2  A    between atoms: O_2  and  C_3
REMARK    3  A    between atoms: C_10  and  C_11
REMARK    4  A    between atoms: N_13  and  C_14
REMARK    5  A    between atoms: C_14  and  C_15
REMARK    6  A    between atoms: C_18  and  C_19
REMARK    7  A    between atoms: C_20  and  C_21
REMARK    8  A    between atoms: C_21  and  C_22
REMARK                            x       y       z     vdW  Elec       q    Type
REMARK                         _______ _______ _______ _____ _____    ______ ____
ROOT
ATOM      1  C   UNL     1      47.694   4.305  15.008  0.00  0.00    +0.000 C 
ENDROOT
BRANCH   1   2
ATOM      2  C   UNL     1      46.727   4.518  13.872  0.00  0.00    +0.000 A 
ATOM      3  C   UNL     1      46.051   3.432  13.300  0.00  0.00    +0.000 A 
ATOM      4  C   UNL     1      45.222   3.614  12.188  0.00  0.00    +0.000 A 
ATOM      5  C   UNL     1      45.063   4.885  11.627  0.00  0.00    +0.000 A 
ATOM      6  C   UNL     1      45.712   5.976  12.212  0.00  0.00    +0.000 A 
ATOM      7  C   UNL     1      46.541   5.794  13.323  0.00  0.00    +0.000 A 
BRANCH   5   8
ATOM      8  C   UNL     1      44.304   5.067  10.388  0.00  0.00    +0.000 C 
ATOM      9  C   UNL     1      44.100   4.155   9.422  0.00  0.00    +0.000 C 
BRANCH   9  10
ATOM     10  C   UNL     1      44.636   2.753   9.348  0.00  0.00    +0.000 C 
BRANCH  10  11
ATOM     11  C   UNL     1      45.624   2.548   8.220  0.00  0.00    +0.000 A 
ATOM     12  C   UNL     1      45.880   3.569   7.288  0.00  0.00    +0.000 A 
ATOM     13  C   UNL     1      46.839   3.389   6.287  0.00  0.00    +0.000 A 
ATOM     14  C   UNL     1      47.534   2.187   6.211  0.00  0.00    +0.000 A 
ATOM     15  F   UNL     1      48.469   2.023   5.266  0.00  0.00    +0.000 F 
ATOM     16  C   UNL     1      47.276   1.157   7.105  0.00  0.00    +0.000 A 
ATOM     17  C   UNL     1      46.319   1.334   8.105  0.00  0.00    +0.000 A 
ENDBRANCH  10  11
ENDBRANCH   9  10
ENDBRANCH   5   8
ENDBRANCH   1   2
BRANCH   1  20
ATOM     18  C   UNL     1      48.755   5.597  16.801  0.00  0.00    +0.000 C 
ATOM     19  O   UNL     1      49.558   4.685  16.998  0.00  0.00    +0.000 OA
ATOM     20  N   UNL     1      47.794   5.486  15.835  0.00  0.00    +0.000 N 
ATOM     21  H   UNL     1      47.132   6.237  15.680  0.00  0.00    +0.000 HD
BRANCH  18  29
ATOM     22  C   UNL     1      48.692   8.963  16.017  0.00  0.00    +0.000 A 
ATOM     23  N   UNL     1      48.684  10.315  16.016  0.00  0.00    +0.000 NA
ATOM     24  C   UNL     1      48.747  10.954  17.187  0.00  0.00    +0.000 A 
ATOM     25  N   UNL     1      48.823  10.401  18.392  0.00  0.00    +0.000 NA
ATOM     26  C   UNL     1      48.829   9.059  18.355  0.00  0.00    +0.000 A 
ATOM     27  S   UNL     1      48.923   8.192  19.810  0.00  0.00    +0.000 S 
ATOM     28  C   UNL     1      48.885   6.710  18.984  0.00  0.00    +0.000 A 
ATOM     29  C   UNL     1      48.796   6.833  17.601  0.00  0.00    +0.000 A 
ATOM     30  C   UNL     1      48.766   8.246  17.224  0.00  0.00    +0.000 A 
BRANCH  22  32
ATOM     31  C   UNL     1      48.479   9.183  13.691  0.00  0.00    +0.000 C 
ATOM     32  O   UNL     1      48.625   8.305  14.806  0.00  0.00    +0.000 OA
ENDBRANCH  22  32
ENDBRANCH  18  29
ENDBRANCH   1  20
TORSDOF 7
ENDMDL
MODEL 7
REMARK VINA RESULT:    -7.006      4.390      9.090
REMARK INTER + INTRA:         -11.497
REMARK INTER:                  -9.026
REMARK INTRA:                  -2.471
REMARK UNBOUND:                -1.623
REMARK  Name = 
REMARK  8 active torsions:
REMARK  status: ('A' for Active; 'I' for Inactive)
REMARK    1  A    between atoms: C_1  and  O_2
REMARK    2  A    between atoms: O_2  and  C_3
REMARK    3  A    between atoms: C_10  and  C_11
REMARK    4  A    between atoms: N_13  and  C_14
REMARK    5  A    between atoms: C_14  and  C_15
REMARK    6  A    between atoms: C_18  and  C_19
REMARK    7  A    between atoms: C_20  and  C_21
REMARK    8  A    between atoms: C_21  and  C_22
REMARK                            x       y       z     vdW  Elec       q    Type
REMARK                         _______ _______ _______ _____ _____    ______ ____
ROOT
ATOM      1  C   UNL     1      47.128   3.405  17.028  0.00  0.00    +0.000 C 
ENDROOT
BRANCH   1   2
ATOM      2  C   UNL     1      48.424   3.661  17.753  0.00  0.00    +0.000 A 
ATOM      3  C   UNL     1      48.440   4.408  18.938  0.00  0.00    +0.000 A 
ATOM      4  C   UNL     1      49.651   4.723  19.566  0.00  0.00    +0.000 A 
ATOM      5  C   UNL     1      50.863   4.302  19.011  0.00  0.00    +0.000 A 
ATOM      6  C   UNL     1      50.851   3.533  17.845  0.00  0.00    +0.000 A 
ATOM      7  C   UNL     1      49.641   3.218  17.217  0.00  0.00    +0.000 A 
BRANCH   5   8
ATOM      8  C   UNL     1      52.140   4.735  19.585  0.00  0.00    +0.000 C 
ATOM      9  C   UNL     1      52.926   5.733  19.148  0.00  0.00    +0.000 C 
BRANCH   9  10
ATOM     10  C   UNL     1      52.721   6.612  17.947  0.00  0.00    +0.000 C 
BRANCH  10  11
ATOM     11  C   UNL     1      51.356   7.265  17.908  0.00  0.00    +0.000 A 
ATOM     12  C   UNL     1      50.476   7.040  16.835  0.00  0.00    +0.000 A 
ATOM     13  C   UNL     1      49.197   7.600  16.840  0.00  0.00    +0.000 A 
ATOM     14  C   UNL     1      48.799   8.392  17.911  0.00  0.00    +0.000 A 
ATOM     15  F   UNL     1      47.563   8.910  17.927  0.00  0.00    +0.000 F 
ATOM     16  C   UNL     1      49.662   8.648  18.968  0.00  0.00    +0.000 A 
ATOM     17  C   UNL     1      50.941   8.090  18.965  0.00  0.00    +0.000 A 
ENDBRANCH  10  11
ENDBRANCH   9  10
ENDBRANCH   5   8
ENDBRANCH   1   2
BRANCH   1  20
ATOM     18  C   UNL     1      47.023   4.250  14.729  0.00  0.00    +0.000 C 
ATOM     19  O   UNL     1      47.427   3.169  14.301  0.00  0.00    +0.000 OA
ATOM     20  N   UNL     1      46.852   4.452  16.070  0.00  0.00    +0.000 N 
ATOM     21  H   UNL     1      46.524   5.345  16.418  0.00  0.00    +0.000 HD
BRANCH  18  29
ATOM     22  C   UNL     1      44.289   5.070  12.778  0.00  0.00    +0.000 A 
ATOM     23  N   UNL     1      43.393   5.633  11.938  0.00  0.00    +0.000 NA
ATOM     24  C   UNL     1      43.719   6.776  11.330  0.00  0.00    +0.000 A 
ATOM     25  N   UNL     1      44.860   7.445  11.453  0.00  0.00    +0.000 NA
ATOM     26  C   UNL     1      45.726   6.857  12.293  0.00  0.00    +0.000 A 
ATOM     27  S   UNL     1      47.236   7.580  12.564  0.00  0.00    +0.000 S 
ATOM     28  C   UNL     1      47.689   6.343  13.634  0.00  0.00    +0.000 A 
ATOM     29  C   UNL     1      46.718   5.365  13.814  0.00  0.00    +0.000 A 
ATOM     30  C   UNL     1      45.539   5.672  13.006  0.00  0.00    +0.000 A 
BRANCH  22  32
ATOM     31  C   UNL     1      43.646   2.830  12.500  0.00  0.00    +0.000 C 
ATOM     32  O   UNL     1      43.948   3.889  13.407  0.00  0.00    +0.000 OA
ENDBRANCH  22  32
ENDBRANCH  18  29
ENDBRANCH   1  20
TORSDOF 7
ENDMDL
MODEL 8
REMARK VINA RESULT:    -6.900      2.778      4.306
REMARK INTER + INTRA:         -11.348
REMARK INTER:                 -10.420
REMARK INTRA:                  -0.928
REMARK UNBOUND:                -1.623
REMARK  Name = 
REMARK  8 active torsions:
REMARK  status: ('A' for Active; 'I' for Inactive)
REMARK    1  A    between atoms: C_1  and  O_2
REMARK    2  A    between atoms: O_2  and  C_3
REMARK    3  A    between atoms: C_10  and  C_11
REMARK    4  A    between atoms: N_13  and  C_14
REMARK    5  A    between atoms: C_14  and  C_15
REMARK    6  A    between atoms: C_18  and  C_19
REMARK    7  A    between atoms: C_20  and  C_21
REMARK    8  A    between atoms: C_21  and  C_22
REMARK                            x       y       z     vdW  Elec       q    Type
REMARK                         _______ _______ _______ _____ _____    ______ ____
ROOT
ATOM      1  C   UNL     1      47.650   5.290  15.103  0.00  0.00    +0.000 C 
ENDROOT
BRANCH   1   2
ATOM      2  C   UNL     1      46.847   5.139  13.837  0.00  0.00    +0.000 A 
ATOM      3  C   UNL     1      46.968   6.077  12.802  0.00  0.00    +0.000 A 
ATOM      4  C   UNL     1      46.158   5.990  11.664  0.00  0.00    +0.000 A 
ATOM      5  C   UNL     1      45.211   4.969  11.548  0.00  0.00    +0.000 A 
ATOM      6  C   UNL     1      45.107   4.015  12.564  0.00  0.00    +0.000 A 
ATOM      7  C   UNL     1      45.915   4.101  13.702  0.00  0.00    +0.000 A 
BRANCH   5   8
ATOM      8  C   UNL     1      44.271   4.944  10.425  0.00  0.00    +0.000 C 
ATOM      9  C   UNL     1      44.059   3.930   9.569  0.00  0.00    +0.000 C 
BRANCH   9  10
ATOM     10  C   UNL     1      44.761   2.602   9.519  0.00  0.00    +0.000 C 
BRANCH  10  11
ATOM     11  C   UNL     1      45.718   2.475   8.353  0.00  0.00    +0.000 A 
ATOM     12  C   UNL     1      46.383   1.264   8.091  0.00  0.00    +0.000 A 
ATOM     13  C   UNL     1      47.217   1.141   6.977  0.00  0.00    +0.000 A 
ATOM     14  C   UNL     1      47.394   2.229   6.130  0.00  0.00    +0.000 A 
ATOM     15  F   UNL     1      48.176   2.104   5.049  0.00  0.00    +0.000 F 
ATOM     16  C   UNL     1      46.768   3.442   6.386  0.00  0.00    +0.000 A 
ATOM     17  C   UNL     1      45.935   3.567   7.498  0.00  0.00    +0.000 A 
ENDBRANCH  10  11
ENDBRANCH   9  10
ENDBRANCH   5   8
ENDBRANCH   1   2
BRANCH   1  20
ATOM     18  C   UNL     1      49.375   6.881  15.813  0.00  0.00    +0.000 C 
ATOM     19  O   UNL     1      50.070   5.956  16.234  0.00  0.00    +0.000 OA
ATOM     20  N   UNL     1      48.157   6.636  15.241  0.00  0.00    +0.000 N 
ATOM     21  H   UNL     1      47.586   7.400  14.901  0.00  0.00    +0.000 HD
BRANCH  18  29
ATOM     22  C   UNL     1      52.459   8.429  15.605  0.00  0.00    +0.000 A 
ATOM     23  N   UNL     1      53.500   9.289  15.573  0.00  0.00    +0.000 NA
ATOM     24  C   UNL     1      53.258  10.591  15.748  0.00  0.00    +0.000 A 
ATOM     25  N   UNL     1      52.076  11.158  15.961  0.00  0.00    +0.000 NA
ATOM     26  C   UNL     1      51.066  10.275  15.988  0.00  0.00    +0.000 A 
ATOM     27  S   UNL     1      49.486  10.832  16.252  0.00  0.00    +0.000 S 
ATOM     28  C   UNL     1      48.863   9.257  16.153  0.00  0.00    +0.000 A 
ATOM     29  C   UNL     1      49.825   8.280  15.916  0.00  0.00    +0.000 A 
ATOM     30  C   UNL     1      51.149   8.892  15.819  0.00  0.00    +0.000 A 
BRANCH  22  32
ATOM     31  C   UNL     1      54.096   6.750  15.510  0.00  0.00    +0.000 C 
ATOM     32  O   UNL     1      52.712   7.084  15.422  0.00  0.00    +0.000 OA
ENDBRANCH  22  32
ENDBRANCH  18  29
ENDBRANCH   1  20
TORSDOF 7
ENDMDL
MODEL 9
REMARK VINA RESULT:    -6.751      4.491      9.306
REMARK INTER + INTRA:         -11.137
REMARK INTER:                  -9.296
REMARK INTRA:                  -1.841
REMARK UNBOUND:                -1.623
REMARK  Name = 
REMARK  8 active torsions:
REMARK  status: ('A' for Active; 'I' for Inactive)
REMARK    1  A    between atoms: C_1  and  O_2
REMARK    2  A    between atoms: O_2  and  C_3
REMARK    3  A    between atoms: C_10  and  C_11
REMARK    4  A    between atoms: N_13  and  C_14
REMARK    5  A    between atoms: C_14  and  C_15
REMARK    6  A    between atoms: C_18  and  C_19
REMARK    7  A    between atoms: C_20  and  C_21
REMARK    8  A    between atoms: C_21  and  C_22
REMARK                            x       y       z     vdW  Elec       q    Type
REMARK                         _______ _______ _______ _____ _____    ______ ____
ROOT
ATOM      1  C   UNL     1      47.479   3.339  16.981  0.00  0.00    +0.000 C 
ENDROOT
BRANCH   1   2
ATOM      2  C   UNL     1      48.945   3.332  17.330  0.00  0.00    +0.000 A 
ATOM      3  C   UNL     1      49.761   2.259  16.952  0.00  0.00    +0.000 A 
ATOM      4  C   UNL     1      51.102   2.207  17.352  0.00  0.00    +0.000 A 
ATOM      5  C   UNL     1      51.642   3.226  18.142  0.00  0.00    +0.000 A 
ATOM      6  C   UNL     1      50.839   4.313  18.498  0.00  0.00    +0.000 A 
ATOM      7  C   UNL     1      49.500   4.365  18.099  0.00  0.00    +0.000 A 
BRANCH   5   8
ATOM      8  C   UNL     1      53.002   3.119  18.675  0.00  0.00    +0.000 C 
ATOM      9  C   UNL     1      54.100   3.746  18.221  0.00  0.00    +0.000 C 
BRANCH   9  10
ATOM     10  C   UNL     1      54.217   4.663  17.037  0.00  0.00    +0.000 C 
BRANCH  10  11
ATOM     11  C   UNL     1      53.593   6.023  17.268  0.00  0.00    +0.000 A 
ATOM     12  C   UNL     1      53.869   6.756  18.435  0.00  0.00    +0.000 A 
ATOM     13  C   UNL     1      53.336   8.036  18.610  0.00  0.00    +0.000 A 
ATOM     14  C   UNL     1      52.520   8.579  17.624  0.00  0.00    +0.000 A 
ATOM     15  F   UNL     1      52.027   9.815  17.781  0.00  0.00    +0.000 F 
ATOM     16  C   UNL     1      52.213   7.860  16.476  0.00  0.00    +0.000 A 
ATOM     17  C   UNL     1      52.745   6.582  16.300  0.00  0.00    +0.000 A 
ENDBRANCH  10  11
ENDBRANCH   9  10
ENDBRANCH   5   8
ENDBRANCH   1   2
BRANCH   1  20
ATOM     18  C   UNL     1      47.093   4.222  14.727  0.00  0.00    +0.000 C 
ATOM     19  O   UNL     1      47.307   3.111  14.243  0.00  0.00    +0.000 OA
ATOM     20  N   UNL     1      47.163   4.422  16.079  0.00  0.00    +0.000 N 
ATOM     21  H   UNL     1      46.992   5.339  16.472  0.00  0.00    +0.000 HD
BRANCH  18  29
ATOM     22  C   UNL     1      44.383   5.034  12.741  0.00  0.00    +0.000 A 
ATOM     23  N   UNL     1      43.486   5.606  11.908  0.00  0.00    +0.000 NA
ATOM     24  C   UNL     1      43.776   6.798  11.379  0.00  0.00    +0.000 A 
ATOM     25  N   UNL     1      44.880   7.509  11.579  0.00  0.00    +0.000 NA
ATOM     26  C   UNL     1      45.748   6.911  12.410  0.00  0.00    +0.000 A 
ATOM     27  S   UNL     1      47.213   7.684  12.772  0.00  0.00    +0.000 S 
ATOM     28  C   UNL     1      47.692   6.406  13.781  0.00  0.00    +0.000 A 
ATOM     29  C   UNL     1      46.763   5.375  13.871  0.00  0.00    +0.000 A 
ATOM     30  C   UNL     1      45.595   5.678  13.045  0.00  0.00    +0.000 A 
BRANCH  22  32
ATOM     31  C   UNL     1      43.601   2.860  12.331  0.00  0.00    +0.000 C 
ATOM     32  O   UNL     1      44.079   3.803  13.288  0.00  0.00    +0.000 OA
ENDBRANCH  22  32
ENDBRANCH  18  29
ENDBRANCH   1  20
TORSDOF 7
ENDMDL
