MODEL 1
REMARK VINA RESULT:    -7.440      0.000      0.000
REMARK INTER + INTRA:          -9.802
REMARK INTER:                  -9.397
REMARK INTRA:                  -0.406
REMARK UNBOUND:                -0.406
REMARK  Name = 
REMARK  5 active torsions:
REMARK  status: ('A' for Active; 'I' for Inactive)
REMARK    1  A    between atoms: N_1  and  C_2
REMARK    2  A    between atoms: C_2  and  C_3
REMARK    3  A    between atoms: C_6  and  O_7
REMARK    4  A    between atoms: O_7  and  C_8
REMARK    5  A    between atoms: C_8  and  C_9
REMARK                            x       y       z     vdW  Elec       q    Type
REMARK                         _______ _______ _______ _____ _____    ______ ____
ROOT
ATOM      1  C   UNL     1      46.569   2.273   7.611  0.00  0.00    +0.000 A 
ATOM      2  C   UNL     1      46.426   3.636   7.451  0.00  0.00    +0.000 A 
ATOM      3  N   UNL     1      45.490   4.373   8.078  0.00  0.00    +0.000 NA
ATOM      4  C   UNL     1      44.677   3.704   8.911  0.00  0.00    +0.000 A 
ATOM      5  N   UNL     1      44.723   2.387   9.153  0.00  0.00    +0.000 NA
ATOM      6  C   UNL     1      45.669   1.699   8.485  0.00  0.00    +0.000 A 
ENDROOT
BRANCH   1   7
ATOM      7  C   UNL     1      47.610   1.491   6.881  0.00  0.00    +0.000 C 
BRANCH   7   8
ATOM      8  N   UNL     1      48.541   2.364   6.180  0.00  0.00    +0.000 NA
ATOM      9  H   UNL     1      49.275   1.802   5.749  0.00  0.00    +0.000 HD
ATOM     10  H   UNL     1      49.011   2.972   6.852  0.00  0.00    +0.000 HD
ENDBRANCH   7   8
ENDBRANCH   1   7
BRANCH   4  11
ATOM     11  O   UNL     1      43.731   4.397   9.634  0.00  0.00    +0.000 OA
BRANCH  11  12
ATOM     12  C   UNL     1      43.586   3.866  10.947  0.00  0.00    +0.000 C 
BRANCH  12  13
ATOM     13  C   UNL     1      44.669   4.441  11.831  0.00  0.00    +0.000 A 
ATOM     14  C   UNL     1      44.880   5.827  11.905  0.00  0.00    +0.000 A 
ATOM     15  C   UNL     1      45.890   6.351  12.718  0.00  0.00    +0.000 A 
ATOM     16  C   UNL     1      46.700   5.495  13.460  0.00  0.00    +0.000 A 
ATOM     17 CL   UNL     1      47.940   6.149  14.458  0.00  0.00    +0.000 Cl
ATOM     18  C   UNL     1      46.499   4.118  13.387  0.00  0.00    +0.000 A 
ATOM     19  F   UNL     1      47.269   3.273  14.090  0.00  0.00    +0.000 F 
ATOM     20  C   UNL     1      45.494   3.589  12.581  0.00  0.00    +0.000 A 
ENDBRANCH  12  13
ENDBRANCH  11  12
ENDBRANCH   4  11
TORSDOF 5
ENDMDL
MODEL 2
REMARK VINA RESULT:    -7.412      3.582      5.822
REMARK INTER + INTRA:          -9.768
REMARK INTER:                  -9.374
REMARK INTRA:                  -0.394
REMARK UNBOUND:                -0.406
REMARK  Name = 
REMARK  5 active torsions:
REMARK  status: ('A' for Active; 'I' for Inactive)
REMARK    1  A    between atoms: N_1  and  C_2
REMARK    2  A    between atoms: C_2  and  C_3
REMARK    3  A    between atoms: C_6  and  O_7
REMARK    4  A    between atoms: O_7  and  C_8
REMARK    5  A    between atoms: C_8  and  C_9
REMARK                            x       y       z     vdW  Elec       q    Type
REMARK                         _______ _______ _______ _____ _____    ______ ____
ROOT
ATOM      1  C   UNL     1      46.905   5.386  13.570  0.00  0.00    +0.000 A 
ATOM      2  C   UNL     1      46.861   4.009  13.644  0.00  0.00    +0.000 A 
ATOM      3  N   UNL     1      45.952   3.250  13.004  0.00  0.00    +0.000 NA
ATOM      4  C   UNL     1      45.062   3.911  12.247  0.00  0.00    +0.000 A 
ATOM      5  N   UNL     1      45.009   5.241  12.092  0.00  0.00    +0.000 NA
ATOM      6  C   UNL     1      45.933   5.950  12.769  0.00  0.00    +0.000 A 
ENDROOT
BRANCH   1   7
ATOM      7  C   UNL     1      47.919   6.191  14.311  0.00  0.00    +0.000 C 
BRANCH   7   8
ATOM      8  N   UNL     1      49.098   6.450  13.495  0.00  0.00    +0.000 NA
ATOM      9  H   UNL     1      49.200   5.709  12.802  0.00  0.00    +0.000 HD
ATOM     10  H   UNL     1      49.934   6.406  14.079  0.00  0.00    +0.000 HD
ENDBRANCH   7   8
ENDBRANCH   1   7
BRANCH   4  11
ATOM     11  O   UNL     1      44.136   3.201  11.515  0.00  0.00    +0.000 OA
BRANCH  11  12
ATOM     12  C   UNL     1      43.863   3.832  10.268  0.00  0.00    +0.000 C 
BRANCH  12  13
ATOM     13  C   UNL     1      44.887   3.377   9.253  0.00  0.00    +0.000 A 
ATOM     14  C   UNL     1      45.529   4.300   8.412  0.00  0.00    +0.000 A 
ATOM     15  C   UNL     1      46.469   3.870   7.469  0.00  0.00    +0.000 A 
ATOM     16  C   UNL     1      46.771   2.514   7.357  0.00  0.00    +0.000 A 
ATOM     17 CL   UNL     1      47.929   1.994   6.195  0.00  0.00    +0.000 Cl
ATOM     18  C   UNL     1      46.134   1.594   8.185  0.00  0.00    +0.000 A 
ATOM     19  F   UNL     1      46.405   0.283   8.093  0.00  0.00    +0.000 F 
ATOM     20  C   UNL     1      45.198   2.015   9.128  0.00  0.00    +0.000 A 
ENDBRANCH  12  13
ENDBRANCH  11  12
ENDBRANCH   4  11
TORSDOF 5
ENDMDL
MODEL 3
REMARK VINA RESULT:    -7.252      1.257      2.015
REMARK INTER + INTRA:          -9.566
REMARK INTER:                  -9.215
REMARK INTRA:                  -0.351
REMARK UNBOUND:                -0.406
REMARK  Name = 
REMARK  5 active torsions:
REMARK  status: ('A' for Active; 'I' for Inactive)
REMARK    1  A    between atoms: N_1  and  C_2
REMARK    2  A    between atoms: C_2  and  C_3
REMARK    3  A    between atoms: C_6  and  O_7
REMARK    4  A    between atoms: O_7  and  C_8
REMARK    5  A    between atoms: C_8  and  C_9
REMARK                            x       y       z     vdW  Elec       q    Type
REMARK                         _______ _______ _______ _____ _____    ______ ____
ROOT
ATOM      1  C   UNL     1      46.604   2.322   7.587  0.00  0.00    +0.000 A 
ATOM      2  C   UNL     1      45.766   1.729   8.510  0.00  0.00    +0.000 A 
ATOM      3  N   UNL     1      44.832   2.395   9.215  0.00  0.00    +0.000 NA
ATOM      4  C   UNL     1      44.733   3.710   8.964  0.00  0.00    +0.000 A 
ATOM      5  N   UNL     1      45.484   4.394   8.090  0.00  0.00    +0.000 NA
ATOM      6  C   UNL     1      46.412   3.679   7.426  0.00  0.00    +0.000 A 
ENDROOT
BRANCH   1   7
ATOM      7  C   UNL     1      47.639   1.549   6.841  0.00  0.00    +0.000 C 
BRANCH   7   8
ATOM      8  N   UNL     1      48.671   2.423   6.298  0.00  0.00    +0.000 NA
ATOM      9  H   UNL     1      49.384   1.859   5.836  0.00  0.00    +0.000 HD
ATOM     10  H   UNL     1      49.145   2.906   7.062  0.00  0.00    +0.000 HD
ENDBRANCH   7   8
ENDBRANCH   1   7
BRANCH   4  11
ATOM     11  O   UNL     1      43.762   4.450   9.603  0.00  0.00    +0.000 OA
BRANCH  11  12
ATOM     12  C   UNL     1      43.654   4.092  10.977  0.00  0.00    +0.000 C 
BRANCH  12  13
ATOM     13  C   UNL     1      44.807   4.707  11.736  0.00  0.00    +0.000 A 
ATOM     14  C   UNL     1      45.510   3.969  12.701  0.00  0.00    +0.000 A 
ATOM     15  C   UNL     1      46.570   4.548  13.407  0.00  0.00    +0.000 A 
ATOM     16  C   UNL     1      46.933   5.869  13.157  0.00  0.00    +0.000 A 
ATOM     17 CL   UNL     1      48.239   6.574  14.029  0.00  0.00    +0.000 Cl
ATOM     18  C   UNL     1      46.236   6.608  12.203  0.00  0.00    +0.000 A 
ATOM     19  F   UNL     1      46.564   7.884  11.947  0.00  0.00    +0.000 F 
ATOM     20  C   UNL     1      45.180   6.038  11.496  0.00  0.00    +0.000 A 
ENDBRANCH  12  13
ENDBRANCH  11  12
ENDBRANCH   4  11
TORSDOF 5
ENDMDL
MODEL 4
REMARK VINA RESULT:    -6.792      3.774      6.038
REMARK INTER + INTRA:          -8.984
REMARK INTER:                  -8.552
REMARK INTRA:                  -0.432
REMARK UNBOUND:                -0.406
REMARK  Name = 
REMARK  5 active torsions:
REMARK  status: ('A' for Active; 'I' for Inactive)
REMARK    1  A    between atoms: N_1  and  C_2
REMARK    2  A    between atoms: C_2  and  C_3
REMARK    3  A    between atoms: C_6  and  O_7
REMARK    4  A    between atoms: O_7  and  C_8
REMARK    5  A    between atoms: C_8  and  C_9
REMARK                            x       y       z     vdW  Elec       q    Type
REMARK                         _______ _______ _______ _____ _____    ______ ____
ROOT
ATOM      1  C   UNL     1      46.984   5.518  13.651  0.00  0.00    +0.000 A 
ATOM      2  C   UNL     1      46.071   6.211  12.882  0.00  0.00    +0.000 A 
ATOM      3  N   UNL     1      45.051   5.632  12.221  0.00  0.00    +0.000 NA
ATOM      4  C   UNL     1      44.943   4.301  12.357  0.00  0.00    +0.000 A 
ATOM      5  N   UNL     1      45.762   3.523  13.079  0.00  0.00    +0.000 NA
ATOM      6  C   UNL     1      46.774   4.155  13.704  0.00  0.00    +0.000 A 
ENDROOT
BRANCH   1   7
ATOM      7  C   UNL     1      48.112   6.198  14.352  0.00  0.00    +0.000 C 
BRANCH   7   8
ATOM      8  N   UNL     1      48.106   5.909  15.780  0.00  0.00    +0.000 NA
ATOM      9  H   UNL     1      47.738   6.714  16.287  0.00  0.00    +0.000 HD
ATOM     10  H   UNL     1      49.064   5.785  16.107  0.00  0.00    +0.000 HD
ENDBRANCH   7   8
ENDBRANCH   1   7
BRANCH   4  11
ATOM     11  O   UNL     1      43.891   3.642  11.759  0.00  0.00    +0.000 OA
BRANCH  11  12
ATOM     12  C   UNL     1      43.635   4.148  10.452  0.00  0.00    +0.000 C 
BRANCH  12  13
ATOM     13  C   UNL     1      44.568   3.473   9.473  0.00  0.00    +0.000 A 
ATOM     14  C   UNL     1      44.718   2.077   9.466  0.00  0.00    +0.000 A 
ATOM     15  C   UNL     1      45.590   1.460   8.562  0.00  0.00    +0.000 A 
ATOM     16  C   UNL     1      46.322   2.233   7.663  0.00  0.00    +0.000 A 
ATOM     17 CL   UNL     1      47.392   1.466   6.555  0.00  0.00    +0.000 Cl
ATOM     18  C   UNL     1      46.180   3.619   7.669  0.00  0.00    +0.000 A 
ATOM     19  F   UNL     1      46.877   4.385   6.816  0.00  0.00    +0.000 F 
ATOM     20  C   UNL     1      45.313   4.240   8.565  0.00  0.00    +0.000 A 
ENDBRANCH  12  13
ENDBRANCH  11  12
ENDBRANCH   4  11
TORSDOF 5
ENDMDL
MODEL 5
REMARK VINA RESULT:    -6.125      2.561      3.055
REMARK INTER + INTRA:          -8.142
REMARK INTER:                  -7.745
REMARK INTRA:                  -0.397
REMARK UNBOUND:                -0.406
REMARK  Name = 
REMARK  5 active torsions:
REMARK  status: ('A' for Active; 'I' for Inactive)
REMARK    1  A    between atoms: N_1  and  C_2
REMARK    2  A    between atoms: C_2  and  C_3
REMARK    3  A    between atoms: C_6  and  O_7
REMARK    4  A    between atoms: O_7  and  C_8
REMARK    5  A    between atoms: C_8  and  C_9
REMARK                            x       y       z     vdW  Elec       q    Type
REMARK                         _______ _______ _______ _____ _____    ______ ____
ROOT
ATOM      1  C   UNL     1      46.206   2.404   7.860  0.00  0.00    +0.000 A 
ATOM      2  C   UNL     1      46.104   3.774   7.726  0.00  0.00    +0.000 A 
ATOM      3  N   UNL     1      45.321   4.549   8.500  0.00  0.00    +0.000 NA
ATOM      4  C   UNL     1      44.626   3.913   9.456  0.00  0.00    +0.000 A 
ATOM      5  N   UNL     1      44.648   2.593   9.687  0.00  0.00    +0.000 NA
ATOM      6  C   UNL     1      45.436   1.866   8.871  0.00  0.00    +0.000 A 
ENDROOT
BRANCH   1   7
ATOM      7  C   UNL     1      47.073   1.580   6.968  0.00  0.00    +0.000 C 
BRANCH   7   8
ATOM      8  N   UNL     1      48.326   2.258   6.665  0.00  0.00    +0.000 NA
ATOM      9  H   UNL     1      48.843   2.419   7.529  0.00  0.00    +0.000 HD
ATOM     10  H   UNL     1      48.129   3.182   6.278  0.00  0.00    +0.000 HD
ENDBRANCH   7   8
ENDBRANCH   1   7
BRANCH   4  11
ATOM     11  O   UNL     1      43.846   4.643  10.326  0.00  0.00    +0.000 OA
BRANCH  11  12
ATOM     12  C   UNL     1      44.495   4.825  11.580  0.00  0.00    +0.000 C 
BRANCH  12  13
ATOM     13  C   UNL     1      44.897   6.276  11.719  0.00  0.00    +0.000 A 
ATOM     14  C   UNL     1      46.045   6.640  12.440  0.00  0.00    +0.000 A 
ATOM     15  C   UNL     1      46.405   7.986  12.572  0.00  0.00    +0.000 A 
ATOM     16  C   UNL     1      45.619   8.977  11.989  0.00  0.00    +0.000 A 
ATOM     17 CL   UNL     1      46.070  10.629  12.155  0.00  0.00    +0.000 Cl
ATOM     18  C   UNL     1      44.476   8.621  11.276  0.00  0.00    +0.000 A 
ATOM     19  F   UNL     1      43.700   9.558  10.709  0.00  0.00    +0.000 F 
ATOM     20  C   UNL     1      44.112   7.284  11.140  0.00  0.00    +0.000 A 
ENDBRANCH  12  13
ENDBRANCH  11  12
ENDBRANCH   4  11
TORSDOF 5
ENDMDL
MODEL 6
REMARK VINA RESULT:    -5.856      5.023      7.233
REMARK INTER + INTRA:          -7.802
REMARK INTER:                  -7.503
REMARK INTRA:                  -0.300
REMARK UNBOUND:                -0.406
REMARK  Name = 
REMARK  5 active torsions:
REMARK  status: ('A' for Active; 'I' for Inactive)
REMARK    1  A    between atoms: N_1  and  C_2
REMARK    2  A    between atoms: C_2  and  C_3
REMARK    3  A    between atoms: C_6  and  O_7
REMARK    4  A    between atoms: O_7  and  C_8
REMARK    5  A    between atoms: C_8  and  C_9
REMARK                            x       y       z     vdW  Elec       q    Type
REMARK                         _______ _______ _______ _____ _____    ______ ____
ROOT
ATOM      1  C   UNL     1      48.745   4.873  17.280  0.00  0.00    +0.000 A 
ATOM      2  C   UNL     1      48.723   5.677  16.159  0.00  0.00    +0.000 A 
ATOM      3  N   UNL     1      47.886   5.495  15.120  0.00  0.00    +0.000 NA
ATOM      4  C   UNL     1      47.029   4.467  15.229  0.00  0.00    +0.000 A 
ATOM      5  N   UNL     1      46.953   3.624  16.267  0.00  0.00    +0.000 NA
ATOM      6  C   UNL     1      47.825   3.845  17.270  0.00  0.00    +0.000 A 
ENDROOT
BRANCH   1   7
ATOM      7  C   UNL     1      49.703   5.099  18.402  0.00  0.00    +0.000 C 
BRANCH   7   8
ATOM      8  N   UNL     1      49.631   4.031  19.390  0.00  0.00    +0.000 NA
ATOM      9  H   UNL     1      49.859   4.405  20.311  0.00  0.00    +0.000 HD
ATOM     10  H   UNL     1      50.344   3.330  19.187  0.00  0.00    +0.000 HD
ENDBRANCH   7   8
ENDBRANCH   1   7
BRANCH   4  11
ATOM     11  O   UNL     1      46.103   4.251  14.233  0.00  0.00    +0.000 OA
BRANCH  11  12
ATOM     12  C   UNL     1      45.938   5.405  13.414  0.00  0.00    +0.000 C 
BRANCH  12  13
ATOM     13  C   UNL     1      45.633   4.964  12.001  0.00  0.00    +0.000 A 
ATOM     14  C   UNL     1      45.957   5.780  10.905  0.00  0.00    +0.000 A 
ATOM     15  C   UNL     1      45.664   5.370   9.601  0.00  0.00    +0.000 A 
ATOM     16  C   UNL     1      45.040   4.143   9.381  0.00  0.00    +0.000 A 
ATOM     17 CL   UNL     1      44.683   3.646   7.772  0.00  0.00    +0.000 Cl
ATOM     18  C   UNL     1      44.712   3.332  10.464  0.00  0.00    +0.000 A 
ATOM     19  F   UNL     1      44.107   2.148  10.278  0.00  0.00    +0.000 F 
ATOM     20  C   UNL     1      45.002   3.733  11.766  0.00  0.00    +0.000 A 
ENDBRANCH  12  13
ENDBRANCH  11  12
ENDBRANCH   4  11
TORSDOF 5
ENDMDL
MODEL 7
REMARK VINA RESULT:    -5.821      4.647      6.273
REMARK INTER + INTRA:          -7.758
REMARK INTER:                  -7.450
REMARK INTRA:                  -0.307
REMARK UNBOUND:                -0.406
REMARK  Name = 
REMARK  5 active torsions:
REMARK  status: ('A' for Active; 'I' for Inactive)
REMARK    1  A    between atoms: N_1  and  C_2
REMARK    2  A    between atoms: C_2  and  C_3
REMARK    3  A    between atoms: C_6  and  O_7
REMARK    4  A    between atoms: O_7  and  C_8
REMARK    5  A    between atoms: C_8  and  C_9
REMARK                            x       y       z     vdW  Elec       q    Type
REMARK                         _______ _______ _______ _____ _____    ______ ____
ROOT
ATOM      1  C   UNL     1      45.401   5.285  12.125  0.00  0.00    +0.000 A 
ATOM      2  C   UNL     1      46.278   5.870  13.015  0.00  0.00    +0.000 A 
ATOM      3  N   UNL     1      46.981   5.186  13.938  0.00  0.00    +0.000 NA
ATOM      4  C   UNL     1      46.798   3.856  13.948  0.00  0.00    +0.000 A 
ATOM      5  N   UNL     1      45.980   3.176  13.133  0.00  0.00    +0.000 NA
ATOM      6  C   UNL     1      45.291   3.915  12.242  0.00  0.00    +0.000 A 
ENDROOT
BRANCH   1   7
ATOM      7  C   UNL     1      44.627   6.084  11.131  0.00  0.00    +0.000 C 
BRANCH   7   8
ATOM      8  N   UNL     1      43.849   5.228  10.245  0.00  0.00    +0.000 NA
ATOM      9  H   UNL     1      43.105   4.776  10.777  0.00  0.00    +0.000 HD
ATOM     10  H   UNL     1      44.441   4.474   9.893  0.00  0.00    +0.000 HD
ENDBRANCH   7   8
ENDBRANCH   1   7
BRANCH   4  11
ATOM     11  O   UNL     1      47.525   3.080  14.824  0.00  0.00    +0.000 OA
BRANCH  11  12
ATOM     12  C   UNL     1      47.495   3.616  16.143  0.00  0.00    +0.000 C 
BRANCH  12  13
ATOM     13  C   UNL     1      48.862   3.455  16.768  0.00  0.00    +0.000 A 
ATOM     14  C   UNL     1      49.522   4.550  17.349  0.00  0.00    +0.000 A 
ATOM     15  C   UNL     1      50.791   4.396  17.918  0.00  0.00    +0.000 A 
ATOM     16  C   UNL     1      51.411   3.148  17.907  0.00  0.00    +0.000 A 
ATOM     17 CL   UNL     1      52.972   2.968  18.610  0.00  0.00    +0.000 Cl
ATOM     18  C   UNL     1      50.763   2.059  17.329  0.00  0.00    +0.000 A 
ATOM     19  F   UNL     1      51.341   0.849  17.303  0.00  0.00    +0.000 F 
ATOM     20  C   UNL     1      49.499   2.205  16.762  0.00  0.00    +0.000 A 
ENDBRANCH  12  13
ENDBRANCH  11  12
ENDBRANCH   4  11
TORSDOF 5
ENDMDL
MODEL 8
REMARK VINA RESULT:    -5.491      4.435      6.166
REMARK INTER + INTRA:          -7.342
REMARK INTER:                  -7.075
REMARK INTRA:                  -0.266
REMARK UNBOUND:                -0.406
REMARK  Name = 
REMARK  5 active torsions:
REMARK  status: ('A' for Active; 'I' for Inactive)
REMARK    1  A    between atoms: N_1  and  C_2
REMARK    2  A    between atoms: C_2  and  C_3
REMARK    3  A    between atoms: C_6  and  O_7
REMARK    4  A    between atoms: O_7  and  C_8
REMARK    5  A    between atoms: C_8  and  C_9
REMARK                            x       y       z     vdW  Elec       q    Type
REMARK                         _______ _______ _______ _____ _____    ______ ____
ROOT
ATOM      1  C   UNL     1      44.418   4.773  11.876  0.00  0.00    +0.000 A 
ATOM      2  C   UNL     1      45.056   5.647  12.732  0.00  0.00    +0.000 A 
ATOM      3  N   UNL     1      45.977   5.272  13.640  0.00  0.00    +0.000 NA
ATOM      4  C   UNL     1      46.273   3.963  13.671  0.00  0.00    +0.000 A 
ATOM      5  N   UNL     1      45.727   3.023  12.888  0.00  0.00    +0.000 NA
ATOM      6  C   UNL     1      44.800   3.454  12.011  0.00  0.00    +0.000 A 
ENDROOT
BRANCH   1   7
ATOM      7  C   UNL     1      43.389   5.228  10.896  0.00  0.00    +0.000 C 
BRANCH   7   8
ATOM      8  N   UNL     1      42.795   6.497  11.295  0.00  0.00    +0.000 NA
ATOM      9  H   UNL     1      43.005   6.677  12.276  0.00  0.00    +0.000 HD
ATOM     10  H   UNL     1      41.778   6.432  11.232  0.00  0.00    +0.000 HD
ENDBRANCH   7   8
ENDBRANCH   1   7
BRANCH   4  11
ATOM     11  O   UNL     1      47.248   3.511  14.533  0.00  0.00    +0.000 OA
BRANCH  11  12
ATOM     12  C   UNL     1      47.111   4.091  15.826  0.00  0.00    +0.000 C 
BRANCH  12  13
ATOM     13  C   UNL     1      48.425   3.965  16.562  0.00  0.00    +0.000 A 
ATOM     14  C   UNL     1      49.023   2.710  16.761  0.00  0.00    +0.000 A 
ATOM     15  C   UNL     1      50.235   2.601  17.451  0.00  0.00    +0.000 A 
ATOM     16  C   UNL     1      50.856   3.743  17.951  0.00  0.00    +0.000 A 
ATOM     17 CL   UNL     1      52.347   3.599  18.798  0.00  0.00    +0.000 Cl
ATOM     18  C   UNL     1      50.266   4.990  17.760  0.00  0.00    +0.000 A 
ATOM     19  F   UNL     1      50.844   6.104  18.235  0.00  0.00    +0.000 F 
ATOM     20  C   UNL     1      49.060   5.107  17.072  0.00  0.00    +0.000 A 
ENDBRANCH  12  13
ENDBRANCH  11  12
ENDBRANCH   4  11
TORSDOF 5
ENDMDL
MODEL 9
REMARK VINA RESULT:    -5.447      2.974      3.962
REMARK INTER + INTRA:          -7.286
REMARK INTER:                  -6.990
REMARK INTRA:                  -0.296
REMARK UNBOUND:                -0.406
REMARK  Name = 
REMARK  5 active torsions:
REMARK  status: ('A' for Active; 'I' for Inactive)
REMARK    1  A    between atoms: N_1  and  C_2
REMARK    2  A    between atoms: C_2  and  C_3
REMARK    3  A    between atoms: C_6  and  O_7
REMARK    4  A    between atoms: O_7  and  C_8
REMARK    5  A    between atoms: C_8  and  C_9
REMARK                            x       y       z     vdW  Elec       q    Type
REMARK                         _______ _______ _______ _____ _____    ______ ____
ROOT
ATOM      1  C   UNL     1      45.092   3.979   9.523  0.00  0.00    +0.000 A 
ATOM      2  C   UNL     1      45.565   5.209   9.930  0.00  0.00    +0.000 A 
ATOM      3  N   UNL     1      45.763   5.550  11.218  0.00  0.00    +0.000 NA
ATOM      4  C   UNL     1      45.484   4.602  12.126  0.00  0.00    +0.000 A 
ATOM      5  N   UNL     1      45.027   3.373  11.853  0.00  0.00    +0.000 NA
ATOM      6  C   UNL     1      44.833   3.093  10.549  0.00  0.00    +0.000 A 
ENDROOT
BRANCH   1   7
ATOM      7  C   UNL     1      44.870   3.648   8.085  0.00  0.00    +0.000 C 
BRANCH   7   8
ATOM      8  N   UNL     1      46.025   4.002   7.270  0.00  0.00    +0.000 NA
ATOM      9  H   UNL     1      45.759   4.724   6.600  0.00  0.00    +0.000 HD
ATOM     10  H   UNL     1      46.310   3.194   6.715  0.00  0.00    +0.000 HD
ENDBRANCH   7   8
ENDBRANCH   1   7
BRANCH   4  11
ATOM     11  O   UNL     1      45.715   4.855  13.460  0.00  0.00    +0.000 OA
BRANCH  11  12
ATOM     12  C   UNL     1      46.996   5.442  13.665  0.00  0.00    +0.000 C 
BRANCH  12  13
ATOM     13  C   UNL     1      47.459   5.131  15.070  0.00  0.00    +0.000 A 
ATOM     14  C   UNL     1      48.379   5.965  15.728  0.00  0.00    +0.000 A 
ATOM     15  C   UNL     1      48.809   5.665  17.025  0.00  0.00    +0.000 A 
ATOM     16  C   UNL     1      48.328   4.530  17.673  0.00  0.00    +0.000 A 
ATOM     17 CL   UNL     1      48.863   4.170  19.268  0.00  0.00    +0.000 Cl
ATOM     18  C   UNL     1      47.419   3.697  17.024  0.00  0.00    +0.000 A 
ATOM     19  F   UNL     1      46.944   2.596  17.626  0.00  0.00    +0.000 F 
ATOM     20  C   UNL     1      46.985   3.990  15.733  0.00  0.00    +0.000 A 
ENDBRANCH  12  13
ENDBRANCH  11  12
ENDBRANCH   4  11
TORSDOF 5
ENDMDL
