MODEL 1
REMARK VINA RESULT:    -8.312      0.000      0.000
REMARK INTER + INTRA:         -11.474
REMARK INTER:                 -10.741
REMARK INTRA:                  -0.733
REMARK UNBOUND:                -0.733
REMARK  Name = 
REMARK  6 active torsions:
REMARK  status: ('A' for Active; 'I' for Inactive)
REMARK    1  A    between atoms: C_1  and  C_2
REMARK    2  A    between atoms: N_7  and  C_8
REMARK    3  A    between atoms: C_12  and  C_13
REMARK    4  A    between atoms: C_13  and  O_14
REMARK    5  A    between atoms: O_14  and  C_15
REMARK    6  A    between atoms: C_18  and  C_19
REMARK                            x       y       z     vdW  Elec       q    Type
REMARK                         _______ _______ _______ _____ _____    ______ ____
ROOT
ATOM      1  C   UNL     1      46.515   6.009  13.071  0.00  0.00    +0.000 A 
ATOM      2  C   UNL     1      46.722   4.777  13.700  0.00  0.00    +0.000 A 
ATOM      3  N   UNL     1      45.998   3.649  13.497  0.00  0.00    +0.000 NA
ATOM      4  C   UNL     1      45.002   3.732  12.593  0.00  0.00    +0.000 A 
ATOM      5  C   UNL     1      44.686   4.889  11.895  0.00  0.00    +0.000 A 
ATOM      6  C   UNL     1      45.437   6.043  12.176  0.00  0.00    +0.000 A 
ENDROOT
BRANCH   1  13
ATOM      7  C   UNL     1      49.610   7.401  14.136  0.00  0.00    +0.000 C 
ATOM      8  C   UNL     1      48.780   7.026  12.905  0.00  0.00    +0.000 C 
ATOM      9  C   UNL     1      49.096   7.969  11.718  0.00  0.00    +0.000 C 
ATOM     10  O   UNL     1      48.634   9.311  11.948  0.00  0.00    +0.000 OA
ATOM     11  C   UNL     1      47.209   9.321  12.125  0.00  0.00    +0.000 C 
ATOM     12  C   UNL     1      46.785   8.470  13.326  0.00  0.00    +0.000 C 
ATOM     13  N   UNL     1      47.339   7.107  13.237  0.00  0.00    +0.000 N 
ENDBRANCH   1  13
BRANCH   5  14
ATOM     14  C   UNL     1      43.615   4.877  10.842  0.00  0.00    +0.000 C 
BRANCH  14  15
ATOM     15  O   UNL     1      43.586   3.602  10.201  0.00  0.00    +0.000 OA
BRANCH  15  16
ATOM     16  C   UNL     1      44.561   3.367   9.272  0.00  0.00    +0.000 A 
ATOM     17  C   UNL     1      45.125   4.306   8.408  0.00  0.00    +0.000 A 
ATOM     18  C   UNL     1      46.127   3.912   7.520  0.00  0.00    +0.000 A 
ATOM     19  C   UNL     1      46.534   2.584   7.523  0.00  0.00    +0.000 A 
ATOM     20  N   UNL     1      46.003   1.636   8.342  0.00  0.00    +0.000 NA
ATOM     21  C   UNL     1      45.032   2.058   9.190  0.00  0.00    +0.000 A 
BRANCH  19  22
ATOM     22  C   UNL     1      47.620   2.145   6.591  0.00  0.00    +0.000 C 
ATOM     23  N   UNL     1      47.846   2.970   5.522  0.00  0.00    +0.000 N 
ATOM     24  O   UNL     1      48.263   1.117   6.761  0.00  0.00    +0.000 OA
ATOM     25  H   UNL     1      47.285   3.807   5.407  0.00  0.00    +0.000 HD
ATOM     26  H   UNL     1      48.551   2.726   4.841  0.00  0.00    +0.000 HD
ENDBRANCH  19  22
ENDBRANCH  15  16
ENDBRANCH  14  15
ENDBRANCH   5  14
TORSDOF 5
ENDMDL
MODEL 2
REMARK VINA RESULT:    -8.198      0.980      1.609
REMARK INTER + INTRA:         -11.327
REMARK INTER:                 -10.558
REMARK INTRA:                  -0.769
REMARK UNBOUND:                -0.733
REMARK  Name = 
REMARK  6 active torsions:
REMARK  status: ('A' for Active; 'I' for Inactive)
REMARK    1  A    between atoms: C_1  and  C_2
REMARK    2  A    between atoms: N_7  and  C_8
REMARK    3  A    between atoms: C_12  and  C_13
REMARK    4  A    between atoms: C_13  and  O_14
REMARK    5  A    between atoms: O_14  and  C_15
REMARK    6  A    between atoms: C_18  and  C_19
REMARK                            x       y       z     vdW  Elec       q    Type
REMARK                         _______ _______ _______ _____ _____    ______ ____
ROOT
ATOM      1  C   UNL     1      46.976   6.058  13.086  0.00  0.00    +0.000 A 
ATOM      2  C   UNL     1      46.744   4.998  13.969  0.00  0.00    +0.000 A 
ATOM      3  N   UNL     1      45.717   4.115  13.898  0.00  0.00    +0.000 NA
ATOM      4  C   UNL     1      44.860   4.274  12.870  0.00  0.00    +0.000 A 
ATOM      5  C   UNL     1      44.971   5.280  11.921  0.00  0.00    +0.000 A 
ATOM      6  C   UNL     1      46.025   6.197  12.065  0.00  0.00    +0.000 A 
ENDROOT
BRANCH   1  13
ATOM      7  C   UNL     1      49.647   7.732  11.440  0.00  0.00    +0.000 C 
ATOM      8  C   UNL     1      48.296   7.937  12.128  0.00  0.00    +0.000 C 
ATOM      9  C   UNL     1      48.228   9.327  12.809  0.00  0.00    +0.000 C 
ATOM     10  O   UNL     1      49.115   9.428  13.936  0.00  0.00    +0.000 OA
ATOM     11  C   UNL     1      48.764   8.455  14.932  0.00  0.00    +0.000 C 
ATOM     12  C   UNL     1      48.865   7.028  14.385  0.00  0.00    +0.000 C 
ATOM     13  N   UNL     1      48.090   6.876  13.140  0.00  0.00    +0.000 N 
ENDBRANCH   1  13
BRANCH   5  14
ATOM     14  C   UNL     1      44.023   5.339  10.757  0.00  0.00    +0.000 C 
BRANCH  14  15
ATOM     15  O   UNL     1      43.755   4.018  10.289  0.00  0.00    +0.000 OA
BRANCH  15  16
ATOM     16  C   UNL     1      44.666   3.485   9.419  0.00  0.00    +0.000 A 
ATOM     17  C   UNL     1      45.046   2.146   9.336  0.00  0.00    +0.000 A 
ATOM     18  C   UNL     1      45.985   1.753   8.381  0.00  0.00    +0.000 A 
ATOM     19  C   UNL     1      46.518   2.718   7.537  0.00  0.00    +0.000 A 
ATOM     20  N   UNL     1      46.182   4.036   7.591  0.00  0.00    +0.000 NA
ATOM     21  C   UNL     1      45.267   4.377   8.533  0.00  0.00    +0.000 A 
BRANCH  19  22
ATOM     22  C   UNL     1      47.513   2.315   6.493  0.00  0.00    +0.000 C 
ATOM     23  N   UNL     1      47.490   3.056   5.342  0.00  0.00    +0.000 N 
ATOM     24  O   UNL     1      48.293   1.384   6.646  0.00  0.00    +0.000 OA
ATOM     25  H   UNL     1      46.822   3.812   5.246  0.00  0.00    +0.000 HD
ATOM     26  H   UNL     1      48.121   2.828   4.588  0.00  0.00    +0.000 HD
ENDBRANCH  19  22
ENDBRANCH  15  16
ENDBRANCH  14  15
ENDBRANCH   5  14
TORSDOF 5
ENDMDL
MODEL 3
REMARK VINA RESULT:    -7.441      1.362      1.966
REMARK INTER + INTRA:         -10.348
REMARK INTER:                  -9.618
REMARK INTRA:                  -0.730
REMARK UNBOUND:                -0.733
REMARK  Name = 
REMARK  6 active torsions:
REMARK  status: ('A' for Active; 'I' for Inactive)
REMARK    1  A    between atoms: C_1  and  C_2
REMARK    2  A    between atoms: N_7  and  C_8
REMARK    3  A    between atoms: C_12  and  C_13
REMARK    4  A    between atoms: C_13  and  O_14
REMARK    5  A    between atoms: O_14  and  C_15
REMARK    6  A    between atoms: C_18  and  C_19
REMARK                            x       y       z     vdW  Elec       q    Type
REMARK                         _______ _______ _______ _____ _____    ______ ____
ROOT
ATOM      1  C   UNL     1      45.720   7.175  12.095  0.00  0.00    +0.000 A 
ATOM      2  C   UNL     1      44.648   7.985  11.703  0.00  0.00    +0.000 A 
ATOM      3  N   UNL     1      43.454   7.549  11.232  0.00  0.00    +0.000 NA
ATOM      4  C   UNL     1      43.292   6.213  11.153  0.00  0.00    +0.000 A 
ATOM      5  C   UNL     1      44.270   5.295  11.508  0.00  0.00    +0.000 A 
ATOM      6  C   UNL     1      45.506   5.798  11.947  0.00  0.00    +0.000 A 
ENDROOT
BRANCH   1  13
ATOM      7  C   UNL     1      48.506   6.730  14.259  0.00  0.00    +0.000 C 
ATOM      8  C   UNL     1      48.078   6.792  12.791  0.00  0.00    +0.000 C 
ATOM      9  C   UNL     1      49.222   7.342  11.904  0.00  0.00    +0.000 C 
ATOM     10  O   UNL     1      49.492   8.732  12.159  0.00  0.00    +0.000 OA
ATOM     11  C   UNL     1      48.327   9.522  11.879  0.00  0.00    +0.000 C 
ATOM     12  C   UNL     1      47.141   9.108  12.757  0.00  0.00    +0.000 C 
ATOM     13  N   UNL     1      46.885   7.660  12.661  0.00  0.00    +0.000 N 
ENDBRANCH   1  13
BRANCH   5  14
ATOM     14  C   UNL     1      43.982   3.821  11.471  0.00  0.00    +0.000 C 
BRANCH  14  15
ATOM     15  O   UNL     1      43.557   3.447  10.161  0.00  0.00    +0.000 OA
BRANCH  15  16
ATOM     16  C   UNL     1      44.538   3.060   9.292  0.00  0.00    +0.000 A 
ATOM     17  C   UNL     1      45.047   1.771   9.138  0.00  0.00    +0.000 A 
ATOM     18  C   UNL     1      46.045   1.530   8.193  0.00  0.00    +0.000 A 
ATOM     19  C   UNL     1      46.507   2.594   7.428  0.00  0.00    +0.000 A 
ATOM     20  N   UNL     1      46.044   3.868   7.553  0.00  0.00    +0.000 NA
ATOM     21  C   UNL     1      45.075   4.060   8.483  0.00  0.00    +0.000 A 
BRANCH  19  22
ATOM     22  C   UNL     1      47.564   2.354   6.396  0.00  0.00    +0.000 C 
ATOM     23  N   UNL     1      47.360   2.973   5.191  0.00  0.00    +0.000 N 
ATOM     24  O   UNL     1      48.544   1.650   6.602  0.00  0.00    +0.000 OA
ATOM     25  H   UNL     1      46.530   3.539   5.053  0.00  0.00    +0.000 HD
ATOM     26  H   UNL     1      48.023   2.840   4.442  0.00  0.00    +0.000 HD
ENDBRANCH  19  22
ENDBRANCH  15  16
ENDBRANCH  14  15
ENDBRANCH   5  14
TORSDOF 5
ENDMDL
MODEL 4
REMARK VINA RESULT:    -7.389      1.744      2.381
REMARK INTER + INTRA:         -10.281
REMARK INTER:                  -9.507
REMARK INTRA:                  -0.774
REMARK UNBOUND:                -0.733
REMARK  Name = 
REMARK  6 active torsions:
REMARK  status: ('A' for Active; 'I' for Inactive)
REMARK    1  A    between atoms: C_1  and  C_2
REMARK    2  A    between atoms: N_7  and  C_8
REMARK    3  A    between atoms: C_12  and  C_13
REMARK    4  A    between atoms: C_13  and  O_14
REMARK    5  A    between atoms: O_14  and  C_15
REMARK    6  A    between atoms: C_18  and  C_19
REMARK                            x       y       z     vdW  Elec       q    Type
REMARK                         _______ _______ _______ _____ _____    ______ ____
ROOT
ATOM      1  C   UNL     1      46.786   7.608  12.283  0.00  0.00    +0.000 A 
ATOM      2  C   UNL     1      45.957   8.699  12.006  0.00  0.00    +0.000 A 
ATOM      3  N   UNL     1      44.682   8.633  11.548  0.00  0.00    +0.000 NA
ATOM      4  C   UNL     1      44.175   7.398  11.364  0.00  0.00    +0.000 A 
ATOM      5  C   UNL     1      44.885   6.229  11.599  0.00  0.00    +0.000 A 
ATOM      6  C   UNL     1      46.217   6.352  12.029  0.00  0.00    +0.000 A 
ENDROOT
BRANCH   1  13
ATOM      7  C   UNL     1      50.293   8.050  11.894  0.00  0.00    +0.000 C 
ATOM      8  C   UNL     1      49.002   8.738  12.345  0.00  0.00    +0.000 C 
ATOM      9  C   UNL     1      49.288   9.771  13.463  0.00  0.00    +0.000 C 
ATOM     10  O   UNL     1      49.698   9.147  14.692  0.00  0.00    +0.000 OA
ATOM     11  C   UNL     1      48.662   8.280  15.178  0.00  0.00    +0.000 C 
ATOM     12  C   UNL     1      48.344   7.167  14.174  0.00  0.00    +0.000 C 
ATOM     13  N   UNL     1      48.047   7.719  12.840  0.00  0.00    +0.000 N 
ENDBRANCH   1  13
BRANCH   5  14
ATOM     14  C   UNL     1      44.220   4.890  11.450  0.00  0.00    +0.000 C 
BRANCH  14  15
ATOM     15  O   UNL     1      43.840   4.692  10.089  0.00  0.00    +0.000 OA
BRANCH  15  16
ATOM     16  C   UNL     1      44.666   3.906   9.336  0.00  0.00    +0.000 A 
ATOM     17  C   UNL     1      45.514   4.335   8.315  0.00  0.00    +0.000 A 
ATOM     18  C   UNL     1      46.311   3.407   7.643  0.00  0.00    +0.000 A 
ATOM     19  C   UNL     1      46.233   2.071   8.014  0.00  0.00    +0.000 A 
ATOM     20  N   UNL     1      45.413   1.609   8.997  0.00  0.00    +0.000 NA
ATOM     21  C   UNL     1      44.654   2.542   9.625  0.00  0.00    +0.000 A 
BRANCH  19  22
ATOM     22  C   UNL     1      47.093   1.062   7.318  0.00  0.00    +0.000 C 
ATOM     23  N   UNL     1      46.817  -0.247   7.612  0.00  0.00    +0.000 N 
ATOM     24  O   UNL     1      47.988   1.376   6.544  0.00  0.00    +0.000 OA
ATOM     25  H   UNL     1      46.076  -0.468   8.268  0.00  0.00    +0.000 HD
ATOM     26  H   UNL     1      47.370  -0.980   7.194  0.00  0.00    +0.000 HD
ENDBRANCH  19  22
ENDBRANCH  15  16
ENDBRANCH  14  15
ENDBRANCH   5  14
TORSDOF 5
ENDMDL
MODEL 5
REMARK VINA RESULT:    -7.324      2.534      3.502
REMARK INTER + INTRA:         -10.197
REMARK INTER:                  -9.547
REMARK INTRA:                  -0.650
REMARK UNBOUND:                -0.733
REMARK  Name = 
REMARK  6 active torsions:
REMARK  status: ('A' for Active; 'I' for Inactive)
REMARK    1  A    between atoms: C_1  and  C_2
REMARK    2  A    between atoms: N_7  and  C_8
REMARK    3  A    between atoms: C_12  and  C_13
REMARK    4  A    between atoms: C_13  and  O_14
REMARK    5  A    between atoms: O_14  and  C_15
REMARK    6  A    between atoms: C_18  and  C_19
REMARK                            x       y       z     vdW  Elec       q    Type
REMARK                         _______ _______ _______ _____ _____    ______ ____
ROOT
ATOM      1  C   UNL     1      47.315   5.120  14.413  0.00  0.00    +0.000 A 
ATOM      2  C   UNL     1      47.410   6.409  13.877  0.00  0.00    +0.000 A 
ATOM      3  N   UNL     1      46.722   6.876  12.806  0.00  0.00    +0.000 NA
ATOM      4  C   UNL     1      45.862   6.017  12.225  0.00  0.00    +0.000 A 
ATOM      5  C   UNL     1      45.668   4.711  12.652  0.00  0.00    +0.000 A 
ATOM      6  C   UNL     1      46.438   4.261  13.738  0.00  0.00    +0.000 A 
ENDROOT
BRANCH   1  13
ATOM      7  C   UNL     1      49.871   5.605  16.838  0.00  0.00    +0.000 C 
ATOM      8  C   UNL     1      48.364   5.705  16.593  0.00  0.00    +0.000 C 
ATOM      9  C   UNL     1      47.574   5.449  17.900  0.00  0.00    +0.000 C 
ATOM     10  O   UNL     1      47.679   4.085  18.345  0.00  0.00    +0.000 OA
ATOM     11  C   UNL     1      47.145   3.198  17.350  0.00  0.00    +0.000 C 
ATOM     12  C   UNL     1      47.903   3.316  16.024  0.00  0.00    +0.000 C 
ATOM     13  N   UNL     1      47.963   4.716  15.566  0.00  0.00    +0.000 N 
ENDBRANCH   1  13
BRANCH   5  14
ATOM     14  C   UNL     1      44.628   3.843  12.003  0.00  0.00    +0.000 C 
BRANCH  14  15
ATOM     15  O   UNL     1      44.314   4.355  10.709  0.00  0.00    +0.000 OA
BRANCH  15  16
ATOM     16  C   UNL     1      45.035   3.849   9.664  0.00  0.00    +0.000 A 
ATOM     17  C   UNL     1      45.680   4.583   8.669  0.00  0.00    +0.000 A 
ATOM     18  C   UNL     1      46.390   3.918   7.669  0.00  0.00    +0.000 A 
ATOM     19  C   UNL     1      46.432   2.530   7.696  0.00  0.00    +0.000 A 
ATOM     20  N   UNL     1      45.810   1.775   8.642  0.00  0.00    +0.000 NA
ATOM     21  C   UNL     1      45.129   2.460   9.594  0.00  0.00    +0.000 A 
BRANCH  19  22
ATOM     22  C   UNL     1      47.205   1.796   6.643  0.00  0.00    +0.000 C 
ATOM     23  N   UNL     1      47.993   2.578   5.841  0.00  0.00    +0.000 N 
ATOM     24  O   UNL     1      47.138   0.583   6.498  0.00  0.00    +0.000 OA
ATOM     25  H   UNL     1      48.013   3.582   5.984  0.00  0.00    +0.000 HD
ATOM     26  H   UNL     1      48.527   2.153   5.098  0.00  0.00    +0.000 HD
ENDBRANCH  19  22
ENDBRANCH  15  16
ENDBRANCH  14  15
ENDBRANCH   5  14
TORSDOF 5
ENDMDL
MODEL 6
REMARK VINA RESULT:    -6.638      4.712      8.043
REMARK INTER + INTRA:          -9.311
REMARK INTER:                  -8.708
REMARK INTRA:                  -0.604
REMARK UNBOUND:                -0.733
REMARK  Name = 
REMARK  6 active torsions:
REMARK  status: ('A' for Active; 'I' for Inactive)
REMARK    1  A    between atoms: C_1  and  C_2
REMARK    2  A    between atoms: N_7  and  C_8
REMARK    3  A    between atoms: C_12  and  C_13
REMARK    4  A    between atoms: C_13  and  O_14
REMARK    5  A    between atoms: O_14  and  C_15
REMARK    6  A    between atoms: C_18  and  C_19
REMARK                            x       y       z     vdW  Elec       q    Type
REMARK                         _______ _______ _______ _____ _____    ______ ____
ROOT
ATOM      1  C   UNL     1      46.033   5.613  12.907  0.00  0.00    +0.000 A 
ATOM      2  C   UNL     1      46.960   6.660  12.913  0.00  0.00    +0.000 A 
ATOM      3  N   UNL     1      47.949   6.841  13.823  0.00  0.00    +0.000 NA
ATOM      4  C   UNL     1      48.045   5.913  14.795  0.00  0.00    +0.000 A 
ATOM      5  C   UNL     1      47.194   4.823  14.910  0.00  0.00    +0.000 A 
ATOM      6  C   UNL     1      46.157   4.706  13.969  0.00  0.00    +0.000 A 
ENDROOT
BRANCH   1  13
ATOM      7  C   UNL     1      45.258   4.642   9.575  0.00  0.00    +0.000 C 
ATOM      8  C   UNL     1      45.167   4.212  11.041  0.00  0.00    +0.000 C 
ATOM      9  C   UNL     1      43.919   3.328  11.282  0.00  0.00    +0.000 C 
ATOM     10  O   UNL     1      42.692   4.065  11.147  0.00  0.00    +0.000 OA
ATOM     11  C   UNL     1      42.644   5.129  12.110  0.00  0.00    +0.000 C 
ATOM     12  C   UNL     1      43.804   6.113  11.920  0.00  0.00    +0.000 C 
ATOM     13  N   UNL     1      45.101   5.414  11.905  0.00  0.00    +0.000 N 
ENDBRANCH   1  13
BRANCH   5  14
ATOM     14  C   UNL     1      47.420   3.787  15.974  0.00  0.00    +0.000 C 
BRANCH  14  15
ATOM     15  O   UNL     1      48.282   4.314  16.982  0.00  0.00    +0.000 OA
BRANCH  15  16
ATOM     16  C   UNL     1      49.454   3.642  17.191  0.00  0.00    +0.000 A 
ATOM     17  C   UNL     1      50.647   4.185  17.666  0.00  0.00    +0.000 A 
ATOM     18  C   UNL     1      51.761   3.362  17.839  0.00  0.00    +0.000 A 
ATOM     19  C   UNL     1      51.646   2.014  17.527  0.00  0.00    +0.000 A 
ATOM     20  N   UNL     1      50.504   1.445  17.052  0.00  0.00    +0.000 NA
ATOM     21  C   UNL     1      49.445   2.279  16.897  0.00  0.00    +0.000 A 
BRANCH  19  22
ATOM     22  C   UNL     1      52.823   1.109  17.723  0.00  0.00    +0.000 C 
ATOM     23  N   UNL     1      52.535  -0.126  18.238  0.00  0.00    +0.000 N 
ATOM     24  O   UNL     1      53.968   1.445  17.450  0.00  0.00    +0.000 OA
ATOM     25  H   UNL     1      51.575  -0.364  18.464  0.00  0.00    +0.000 HD
ATOM     26  H   UNL     1      53.283  -0.781  18.415  0.00  0.00    +0.000 HD
ENDBRANCH  19  22
ENDBRANCH  15  16
ENDBRANCH  14  15
ENDBRANCH   5  14
TORSDOF 5
ENDMDL
MODEL 7
REMARK VINA RESULT:    -6.468      3.722      8.290
REMARK INTER + INTRA:          -9.091
REMARK INTER:                  -8.316
REMARK INTRA:                  -0.776
REMARK UNBOUND:                -0.733
REMARK  Name = 
REMARK  6 active torsions:
REMARK  status: ('A' for Active; 'I' for Inactive)
REMARK    1  A    between atoms: C_1  and  C_2
REMARK    2  A    between atoms: N_7  and  C_8
REMARK    3  A    between atoms: C_12  and  C_13
REMARK    4  A    between atoms: C_13  and  O_14
REMARK    5  A    between atoms: O_14  and  C_15
REMARK    6  A    between atoms: C_18  and  C_19
REMARK                            x       y       z     vdW  Elec       q    Type
REMARK                         _______ _______ _______ _____ _____    ______ ____
ROOT
ATOM      1  C   UNL     1      45.245   6.662  11.753  0.00  0.00    +0.000 A 
ATOM      2  C   UNL     1      44.962   8.031  11.711  0.00  0.00    +0.000 A 
ATOM      3  N   UNL     1      45.651   9.005  12.355  0.00  0.00    +0.000 NA
ATOM      4  C   UNL     1      46.712   8.606  13.085  0.00  0.00    +0.000 A 
ATOM      5  C   UNL     1      47.106   7.282  13.214  0.00  0.00    +0.000 A 
ATOM      6  C   UNL     1      46.332   6.306  12.564  0.00  0.00    +0.000 A 
ENDROOT
BRANCH   1  13
ATOM      7  C   UNL     1      45.101   4.520   8.918  0.00  0.00    +0.000 C 
ATOM      8  C   UNL     1      45.297   4.551  10.435  0.00  0.00    +0.000 C 
ATOM      9  C   UNL     1      44.778   3.246  11.087  0.00  0.00    +0.000 C 
ATOM     10  O   UNL     1      43.347   3.126  11.009  0.00  0.00    +0.000 OA
ATOM     11  C   UNL     1      42.721   4.218  11.700  0.00  0.00    +0.000 C 
ATOM     12  C   UNL     1      43.110   5.568  11.090  0.00  0.00    +0.000 C 
ATOM     13  N   UNL     1      44.574   5.713  11.003  0.00  0.00    +0.000 N 
ENDBRANCH   1  13
BRANCH   5  14
ATOM     14  C   UNL     1      48.351   6.927  13.978  0.00  0.00    +0.000 C 
BRANCH  14  15
ATOM     15  O   UNL     1      48.285   5.565  14.398  0.00  0.00    +0.000 OA
BRANCH  15  16
ATOM     16  C   UNL     1      48.141   5.351  15.741  0.00  0.00    +0.000 A 
ATOM     17  C   UNL     1      47.387   4.343  16.341  0.00  0.00    +0.000 A 
ATOM     18  C   UNL     1      47.348   4.246  17.733  0.00  0.00    +0.000 A 
ATOM     19  C   UNL     1      48.067   5.166  18.484  0.00  0.00    +0.000 A 
ATOM     20  N   UNL     1      48.807   6.169  17.938  0.00  0.00    +0.000 NA
ATOM     21  C   UNL     1      48.818   6.230  16.583  0.00  0.00    +0.000 A 
BRANCH  19  22
ATOM     22  C   UNL     1      48.054   5.068  19.978  0.00  0.00    +0.000 C 
ATOM     23  N   UNL     1      48.603   3.926  20.497  0.00  0.00    +0.000 N 
ATOM     24  O   UNL     1      47.582   5.941  20.694  0.00  0.00    +0.000 OA
ATOM     25  H   UNL     1      48.974   3.219  19.871  0.00  0.00    +0.000 HD
ATOM     26  H   UNL     1      48.611   3.784  21.496  0.00  0.00    +0.000 HD
ENDBRANCH  19  22
ENDBRANCH  15  16
ENDBRANCH  14  15
ENDBRANCH   5  14
TORSDOF 5
ENDMDL
MODEL 8
REMARK VINA RESULT:    -6.458      3.373      5.798
REMARK INTER + INTRA:          -9.079
REMARK INTER:                  -8.292
REMARK INTRA:                  -0.787
REMARK UNBOUND:                -0.733
REMARK  Name = 
REMARK  6 active torsions:
REMARK  status: ('A' for Active; 'I' for Inactive)
REMARK    1  A    between atoms: C_1  and  C_2
REMARK    2  A    between atoms: N_7  and  C_8
REMARK    3  A    between atoms: C_12  and  C_13
REMARK    4  A    between atoms: C_13  and  O_14
REMARK    5  A    between atoms: O_14  and  C_15
REMARK    6  A    between atoms: C_18  and  C_19
REMARK                            x       y       z     vdW  Elec       q    Type
REMARK                         _______ _______ _______ _____ _____    ______ ____
ROOT
ATOM      1  C   UNL     1      49.416   6.269  16.080  0.00  0.00    +0.000 A 
ATOM      2  C   UNL     1      50.617   6.977  15.960  0.00  0.00    +0.000 A 
ATOM      3  N   UNL     1      50.968   7.775  14.921  0.00  0.00    +0.000 NA
ATOM      4  C   UNL     1      50.065   7.900  13.930  0.00  0.00    +0.000 A 
ATOM      5  C   UNL     1      48.835   7.256  13.919  0.00  0.00    +0.000 A 
ATOM      6  C   UNL     1      48.538   6.405  14.996  0.00  0.00    +0.000 A 
ENDROOT
BRANCH   1  13
ATOM      7  C   UNL     1      47.269   5.780  18.872  0.00  0.00    +0.000 C 
ATOM      8  C   UNL     1      47.636   5.246  17.486  0.00  0.00    +0.000 C 
ATOM      9  C   UNL     1      47.396   3.718  17.400  0.00  0.00    +0.000 C 
ATOM     10  O   UNL     1      48.313   2.974  18.221  0.00  0.00    +0.000 OA
ATOM     11  C   UNL     1      49.663   3.211  17.795  0.00  0.00    +0.000 C 
ATOM     12  C   UNL     1      50.036   4.693  17.904  0.00  0.00    +0.000 C 
ATOM     13  N   UNL     1      49.059   5.544  17.202  0.00  0.00    +0.000 N 
ENDBRANCH   1  13
BRANCH   5  14
ATOM     14  C   UNL     1      47.848   7.514  12.816  0.00  0.00    +0.000 C 
BRANCH  14  15
ATOM     15  O   UNL     1      46.534   7.176  13.258  0.00  0.00    +0.000 OA
BRANCH  15  16
ATOM     16  C   UNL     1      45.919   6.148  12.600  0.00  0.00    +0.000 A 
ATOM     17  C   UNL     1      45.865   5.962  11.220  0.00  0.00    +0.000 A 
ATOM     18  C   UNL     1      45.204   4.849  10.697  0.00  0.00    +0.000 A 
ATOM     19  C   UNL     1      44.614   3.952  11.579  0.00  0.00    +0.000 A 
ATOM     20  N   UNL     1      44.635   4.101  12.931  0.00  0.00    +0.000 NA
ATOM     21  C   UNL     1      45.286   5.196  13.398  0.00  0.00    +0.000 A 
BRANCH  19  22
ATOM     22  C   UNL     1      43.917   2.741  11.040  0.00  0.00    +0.000 C 
ATOM     23  N   UNL     1      44.433   2.235   9.878  0.00  0.00    +0.000 N 
ATOM     24  O   UNL     1      42.948   2.236  11.591  0.00  0.00    +0.000 OA
ATOM     25  H   UNL     1      45.229   2.688   9.443  0.00  0.00    +0.000 HD
ATOM     26  H   UNL     1      44.000   1.431   9.447  0.00  0.00    +0.000 HD
ENDBRANCH  19  22
ENDBRANCH  15  16
ENDBRANCH  14  15
ENDBRANCH   5  14
TORSDOF 5
ENDMDL
MODEL 9
REMARK VINA RESULT:    -5.755      3.357      8.085
REMARK INTER + INTRA:          -8.170
REMARK INTER:                  -7.389
REMARK INTRA:                  -0.780
REMARK UNBOUND:                -0.733
REMARK  Name = 
REMARK  6 active torsions:
REMARK  status: ('A' for Active; 'I' for Inactive)
REMARK    1  A    between atoms: C_1  and  C_2
REMARK    2  A    between atoms: N_7  and  C_8
REMARK    3  A    between atoms: C_12  and  C_13
REMARK    4  A    between atoms: C_13  and  O_14
REMARK    5  A    between atoms: O_14  and  C_15
REMARK    6  A    between atoms: C_18  and  C_19
REMARK                            x       y       z     vdW  Elec       q    Type
REMARK                         _______ _______ _______ _____ _____    ______ ____
ROOT
ATOM      1  C   UNL     1      45.493   6.823  12.489  0.00  0.00    +0.000 A 
ATOM      2  C   UNL     1      45.156   8.130  12.122  0.00  0.00    +0.000 A 
ATOM      3  N   UNL     1      45.993   9.197  12.121  0.00  0.00    +0.000 NA
ATOM      4  C   UNL     1      47.266   8.959  12.495  0.00  0.00    +0.000 A 
ATOM      5  C   UNL     1      47.737   7.713  12.883  0.00  0.00    +0.000 A 
ATOM      6  C   UNL     1      46.819   6.650  12.911  0.00  0.00    +0.000 A 
ENDROOT
BRANCH   1  13
ATOM      7  C   UNL     1      42.255   5.529  11.792  0.00  0.00    +0.000 C 
ATOM      8  C   UNL     1      43.682   5.648  11.252  0.00  0.00    +0.000 C 
ATOM      9  C   UNL     1      44.043   4.427  10.371  0.00  0.00    +0.000 C 
ATOM     10  O   UNL     1      44.152   3.214  11.135  0.00  0.00    +0.000 OA
ATOM     11  C   UNL     1      45.188   3.341  12.122  0.00  0.00    +0.000 C 
ATOM     12  C   UNL     1      44.897   4.485  13.099  0.00  0.00    +0.000 C 
ATOM     13  N   UNL     1      44.632   5.746  12.383  0.00  0.00    +0.000 N 
ENDBRANCH   1  13
BRANCH   5  14
ATOM     14  C   UNL     1      49.191   7.514  13.205  0.00  0.00    +0.000 C 
BRANCH  14  15
ATOM     15  O   UNL     1      49.458   7.974  14.529  0.00  0.00    +0.000 OA
BRANCH  15  16
ATOM     16  C   UNL     1      49.665   7.011  15.476  0.00  0.00    +0.000 A 
ATOM     17  C   UNL     1      48.687   6.232  16.092  0.00  0.00    +0.000 A 
ATOM     18  C   UNL     1      49.059   5.275  17.037  0.00  0.00    +0.000 A 
ATOM     19  C   UNL     1      50.407   5.128  17.339  0.00  0.00    +0.000 A 
ATOM     20  N   UNL     1      51.392   5.874  16.768  0.00  0.00    +0.000 NA
ATOM     21  C   UNL     1      50.988   6.793  15.856  0.00  0.00    +0.000 A 
BRANCH  19  22
ATOM     22  C   UNL     1      50.830   4.094  18.336  0.00  0.00    +0.000 C 
ATOM     23  N   UNL     1      50.451   2.810  18.049  0.00  0.00    +0.000 N 
ATOM     24  O   UNL     1      51.466   4.369  19.345  0.00  0.00    +0.000 OA
ATOM     25  H   UNL     1      49.914   2.623  17.209  0.00  0.00    +0.000 HD
ATOM     26  H   UNL     1      50.685   2.065  18.687  0.00  0.00    +0.000 HD
ENDBRANCH  19  22
ENDBRANCH  15  16
ENDBRANCH  14  15
ENDBRANCH   5  14
TORSDOF 5
ENDMDL
