MODEL 1
REMARK VINA RESULT:    -8.714      0.000      0.000
REMARK INTER + INTRA:         -13.428
REMARK INTER:                 -12.534
REMARK INTRA:                  -0.894
REMARK UNBOUND:                -0.894
REMARK  Name = 
REMARK  8 active torsions:
REMARK  status: ('A' for Active; 'I' for Inactive)
REMARK    1  A    between atoms: C_2  and  C_4
REMARK    2  A    between atoms: C_7  and  O_8
REMARK    3  A    between atoms: O_8  and  C_9
REMARK    4  A    between atoms: C_9  and  C_10
REMARK    5  A    between atoms: C_10  and  C_11
REMARK    6  A    between atoms: C_10  and  C_13
REMARK    7  A    between atoms: C_11  and  O_12
REMARK    8  A    between atoms: C_17  and  C_18
REMARK                            x       y       z     vdW  Elec       q    Type
REMARK                         _______ _______ _______ _____ _____    ______ ____
ROOT
ATOM      1  C   UNL     1      44.178   4.922  11.682  0.00  0.00    +0.000 C 
ENDROOT
BRANCH   1   2
ATOM      2  C   UNL     1      45.525   5.348  12.242  0.00  0.00    +0.000 A 
ATOM      3  C   UNL     1      46.294   6.297  11.561  0.00  0.00    +0.000 A 
ATOM      4  C   UNL     1      47.486   6.756  12.115  0.00  0.00    +0.000 A 
ATOM      5  C   UNL     1      47.918   6.277  13.354  0.00  0.00    +0.000 A 
ATOM      6  C   UNL     1      47.175   5.326  14.072  0.00  0.00    +0.000 A 
ATOM      7  C   UNL     1      45.986   4.863  13.479  0.00  0.00    +0.000 A 
BRANCH   6   8
ATOM      8  C   UNL     1      47.590   4.858  15.412  0.00  0.00    +0.000 A 
ATOM      9  C   UNL     1      47.164   3.634  15.948  0.00  0.00    +0.000 A 
ATOM     10  C   UNL     1      47.551   3.240  17.228  0.00  0.00    +0.000 A 
ATOM     11  C   UNL     1      48.375   4.080  17.953  0.00  0.00    +0.000 A 
ATOM     12  N   UNL     1      48.818   5.266  17.491  0.00  0.00    +0.000 NA
ATOM     13  C   UNL     1      48.411   5.623  16.247  0.00  0.00    +0.000 A 
ENDBRANCH   6   8
ENDBRANCH   1   2
BRANCH   1  14
ATOM     14  C   UNL     1      44.037   3.399  11.496  0.00  0.00    +0.000 C 
BRANCH  14  15
ATOM     15  O   UNL     1      43.546   3.075  10.184  0.00  0.00    +0.000 OA
BRANCH  15  19
ATOM     16  C   UNL     1      46.579   2.605   7.422  0.00  0.00    +0.000 A 
ATOM     17  C   UNL     1      46.011   3.867   7.613  0.00  0.00    +0.000 A 
ATOM     18  C   UNL     1      44.990   4.022   8.557  0.00  0.00    +0.000 A 
ATOM     19  C   UNL     1      44.582   2.912   9.281  0.00  0.00    +0.000 A 
ATOM     20  N   UNL     1      45.127   1.684   9.120  0.00  0.00    +0.000 NA
ATOM     21  C   UNL     1      46.100   1.556   8.191  0.00  0.00    +0.000 A 
BRANCH  16  23
ATOM     22  N   UNL     1      47.696   3.103   5.317  0.00  0.00    +0.000 N 
ATOM     23  C   UNL     1      47.630   2.308   6.425  0.00  0.00    +0.000 C 
ATOM     24  O   UNL     1      48.438   1.407   6.603  0.00  0.00    +0.000 OA
ATOM     25  H   UNL     1      48.492   2.946   4.713  0.00  0.00    +0.000 HD
ATOM     26  H   UNL     1      47.234   3.998   5.260  0.00  0.00    +0.000 HD
ENDBRANCH  16  23
ENDBRANCH  15  19
ENDBRANCH  14  15
ENDBRANCH   1  14
BRANCH   1  27
ATOM     27  C   UNL     1      43.051   5.452  12.595  0.00  0.00    +0.000 C 
BRANCH  27  28
ATOM     28  O   UNL     1      42.054   6.150  11.863  0.00  0.00    +0.000 OA
ATOM     29  H   UNL     1      42.356   6.238  10.944  0.00  0.00    +0.000 HD
ENDBRANCH  27  28
ENDBRANCH   1  27
TORSDOF 8
ENDMDL
MODEL 2
REMARK VINA RESULT:    -8.648      1.317      1.833
REMARK INTER + INTRA:         -13.333
REMARK INTER:                 -12.320
REMARK INTRA:                  -1.013
REMARK UNBOUND:                -0.894
REMARK  Name = 
REMARK  8 active torsions:
REMARK  status: ('A' for Active; 'I' for Inactive)
REMARK    1  A    between atoms: C_2  and  C_4
REMARK    2  A    between atoms: C_7  and  O_8
REMARK    3  A    between atoms: O_8  and  C_9
REMARK    4  A    between atoms: C_9  and  C_10
REMARK    5  A    between atoms: C_10  and  C_11
REMARK    6  A    between atoms: C_10  and  C_13
REMARK    7  A    between atoms: C_11  and  O_12
REMARK    8  A    between atoms: C_17  and  C_18
REMARK                            x       y       z     vdW  Elec       q    Type
REMARK                         _______ _______ _______ _____ _____    ______ ____
ROOT
ATOM      1  C   UNL     1      45.449   6.431  11.152  0.00  0.00    +0.000 C 
ENDROOT
BRANCH   1   2
ATOM      2  C   UNL     1      46.679   6.517  12.041  0.00  0.00    +0.000 A 
ATOM      3  C   UNL     1      47.726   7.380  11.701  0.00  0.00    +0.000 A 
ATOM      4  C   UNL     1      48.814   7.529  12.557  0.00  0.00    +0.000 A 
ATOM      5  C   UNL     1      48.864   6.823  13.762  0.00  0.00    +0.000 A 
ATOM      6  C   UNL     1      47.833   5.949  14.143  0.00  0.00    +0.000 A 
ATOM      7  C   UNL     1      46.757   5.800  13.249  0.00  0.00    +0.000 A 
BRANCH   6   8
ATOM      8  C   UNL     1      47.846   5.244  15.443  0.00  0.00    +0.000 A 
ATOM      9  C   UNL     1      48.649   5.658  16.516  0.00  0.00    +0.000 A 
ATOM     10  C   UNL     1      48.658   4.950  17.717  0.00  0.00    +0.000 A 
ATOM     11  C   UNL     1      47.848   3.835  17.828  0.00  0.00    +0.000 A 
ATOM     12  N   UNL     1      47.056   3.390  16.834  0.00  0.00    +0.000 NA
ATOM     13  C   UNL     1      47.082   4.097  15.676  0.00  0.00    +0.000 A 
ENDBRANCH   6   8
ENDBRANCH   1   2
BRANCH   1  14
ATOM     14  C   UNL     1      44.654   5.123  11.319  0.00  0.00    +0.000 C 
BRANCH  14  15
ATOM     15  O   UNL     1      43.975   4.764  10.103  0.00  0.00    +0.000 OA
BRANCH  15  19
ATOM     16  C   UNL     1      46.431   2.459   7.715  0.00  0.00    +0.000 A 
ATOM     17  C   UNL     1      45.641   1.842   8.687  0.00  0.00    +0.000 A 
ATOM     18  C   UNL     1      44.803   2.628   9.488  0.00  0.00    +0.000 A 
ATOM     19  C   UNL     1      44.781   3.998   9.279  0.00  0.00    +0.000 A 
ATOM     20  N   UNL     1      45.529   4.613   8.335  0.00  0.00    +0.000 NA
ATOM     21  C   UNL     1      46.342   3.836   7.585  0.00  0.00    +0.000 A 
BRANCH  16  23
ATOM     22  N   UNL     1      48.471   2.434   6.388  0.00  0.00    +0.000 N 
ATOM     23  C   UNL     1      47.385   1.743   6.842  0.00  0.00    +0.000 C 
ATOM     24  O   UNL     1      47.230   0.561   6.567  0.00  0.00    +0.000 OA
ATOM     25  H   UNL     1      49.161   1.887   5.888  0.00  0.00    +0.000 HD
ATOM     26  H   UNL     1      48.772   3.307   6.795  0.00  0.00    +0.000 HD
ENDBRANCH  16  23
ENDBRANCH  15  19
ENDBRANCH  14  15
ENDBRANCH   1  14
BRANCH   1  27
ATOM     27  C   UNL     1      44.534   7.647  11.422  0.00  0.00    +0.000 C 
BRANCH  27  28
ATOM     28  O   UNL     1      43.191   7.401  11.034  0.00  0.00    +0.000 OA
ATOM     29  H   UNL     1      43.159   7.343  10.064  0.00  0.00    +0.000 HD
ENDBRANCH  27  28
ENDBRANCH   1  27
TORSDOF 8
ENDMDL
MODEL 3
REMARK VINA RESULT:    -8.118      2.355      3.887
REMARK INTER + INTRA:         -12.571
REMARK INTER:                 -11.480
REMARK INTRA:                  -1.091
REMARK UNBOUND:                -0.894
REMARK  Name = 
REMARK  8 active torsions:
REMARK  status: ('A' for Active; 'I' for Inactive)
REMARK    1  A    between atoms: C_2  and  C_4
REMARK    2  A    between atoms: C_7  and  O_8
REMARK    3  A    between atoms: O_8  and  C_9
REMARK    4  A    between atoms: C_9  and  C_10
REMARK    5  A    between atoms: C_10  and  C_11
REMARK    6  A    between atoms: C_10  and  C_13
REMARK    7  A    between atoms: C_11  and  O_12
REMARK    8  A    between atoms: C_17  and  C_18
REMARK                            x       y       z     vdW  Elec       q    Type
REMARK                         _______ _______ _______ _____ _____    ______ ____
ROOT
ATOM      1  C   UNL     1      43.870   5.504  12.109  0.00  0.00    +0.000 C 
ENDROOT
BRANCH   1   2
ATOM      2  C   UNL     1      45.286   5.818  12.567  0.00  0.00    +0.000 A 
ATOM      3  C   UNL     1      46.014   4.863  13.283  0.00  0.00    +0.000 A 
ATOM      4  C   UNL     1      47.340   5.111  13.627  0.00  0.00    +0.000 A 
ATOM      5  C   UNL     1      47.952   6.311  13.255  0.00  0.00    +0.000 A 
ATOM      6  C   UNL     1      47.257   7.295  12.534  0.00  0.00    +0.000 A 
ATOM      7  C   UNL     1      45.912   7.028  12.219  0.00  0.00    +0.000 A 
BRANCH   6   8
ATOM      8  C   UNL     1      47.912   8.542  12.082  0.00  0.00    +0.000 A 
ATOM      9  C   UNL     1      49.257   8.585  11.686  0.00  0.00    +0.000 A 
ATOM     10  C   UNL     1      49.849   9.786  11.295  0.00  0.00    +0.000 A 
ATOM     11  C   UNL     1      49.074  10.931  11.296  0.00  0.00    +0.000 A 
ATOM     12  N   UNL     1      47.778  10.951  11.664  0.00  0.00    +0.000 NA
ATOM     13  C   UNL     1      47.239   9.767  12.050  0.00  0.00    +0.000 A 
ENDBRANCH   6   8
ENDBRANCH   1   2
BRANCH   1  14
ATOM     14  C   UNL     1      43.755   5.219  10.600  0.00  0.00    +0.000 C 
BRANCH  14  15
ATOM     15  O   UNL     1      43.623   3.810  10.342  0.00  0.00    +0.000 OA
BRANCH  15  19
ATOM     16  C   UNL     1      46.473   2.493   7.661  0.00  0.00    +0.000 A 
ATOM     17  C   UNL     1      46.184   3.856   7.743  0.00  0.00    +0.000 A 
ATOM     18  C   UNL     1      45.223   4.299   8.660  0.00  0.00    +0.000 A 
ATOM     19  C   UNL     1      44.596   3.361   9.467  0.00  0.00    +0.000 A 
ATOM     20  N   UNL     1      44.871   2.038   9.412  0.00  0.00    +0.000 NA
ATOM     21  C   UNL     1      45.790   1.633   8.507  0.00  0.00    +0.000 A 
BRANCH  16  23
ATOM     22  N   UNL     1      48.578   2.598   6.443  0.00  0.00    +0.000 N 
ATOM     23  C   UNL     1      47.433   1.902   6.703  0.00  0.00    +0.000 C 
ATOM     24  O   UNL     1      47.228   0.811   6.190  0.00  0.00    +0.000 OA
ATOM     25  H   UNL     1      49.263   2.116   5.874  0.00  0.00    +0.000 HD
ATOM     26  H   UNL     1      48.905   3.351   7.030  0.00  0.00    +0.000 HD
ENDBRANCH  16  23
ENDBRANCH  15  19
ENDBRANCH  14  15
ENDBRANCH   1  14
BRANCH   1  27
ATOM     27  C   UNL     1      43.321   4.308  12.919  0.00  0.00    +0.000 C 
BRANCH  27  28
ATOM     28  O   UNL     1      42.527   4.727  14.019  0.00  0.00    +0.000 OA
ATOM     29  H   UNL     1      41.904   4.013  14.235  0.00  0.00    +0.000 HD
ENDBRANCH  27  28
ENDBRANCH   1  27
TORSDOF 8
ENDMDL
MODEL 4
REMARK VINA RESULT:    -8.041      2.719      4.286
REMARK INTER + INTRA:         -12.460
REMARK INTER:                 -11.413
REMARK INTRA:                  -1.048
REMARK UNBOUND:                -0.894
REMARK  Name = 
REMARK  8 active torsions:
REMARK  status: ('A' for Active; 'I' for Inactive)
REMARK    1  A    between atoms: C_2  and  C_4
REMARK    2  A    between atoms: C_7  and  O_8
REMARK    3  A    between atoms: O_8  and  C_9
REMARK    4  A    between atoms: C_9  and  C_10
REMARK    5  A    between atoms: C_10  and  C_11
REMARK    6  A    between atoms: C_10  and  C_13
REMARK    7  A    between atoms: C_11  and  O_12
REMARK    8  A    between atoms: C_17  and  C_18
REMARK                            x       y       z     vdW  Elec       q    Type
REMARK                         _______ _______ _______ _____ _____    ______ ____
ROOT
ATOM      1  C   UNL     1      45.055   6.436  11.038  0.00  0.00    +0.000 C 
ENDROOT
BRANCH   1   2
ATOM      2  C   UNL     1      46.326   6.585  11.860  0.00  0.00    +0.000 A 
ATOM      3  C   UNL     1      46.509   5.807  13.007  0.00  0.00    +0.000 A 
ATOM      4  C   UNL     1      47.708   5.875  13.712  0.00  0.00    +0.000 A 
ATOM      5  C   UNL     1      48.735   6.716  13.276  0.00  0.00    +0.000 A 
ATOM      6  C   UNL     1      48.593   7.513  12.128  0.00  0.00    +0.000 A 
ATOM      7  C   UNL     1      47.363   7.441  11.448  0.00  0.00    +0.000 A 
BRANCH   6   8
ATOM      8  C   UNL     1      49.694   8.360  11.623  0.00  0.00    +0.000 A 
ATOM      9  C   UNL     1      49.558   9.745  11.444  0.00  0.00    +0.000 A 
ATOM     10  C   UNL     1      50.610  10.507  10.936  0.00  0.00    +0.000 A 
ATOM     11  C   UNL     1      51.794   9.866  10.622  0.00  0.00    +0.000 A 
ATOM     12  N   UNL     1      51.984   8.541  10.774  0.00  0.00    +0.000 NA
ATOM     13  C   UNL     1      50.935   7.829  11.259  0.00  0.00    +0.000 A 
ENDBRANCH   6   8
ENDBRANCH   1   2
BRANCH   1  14
ATOM     14  C   UNL     1      44.368   5.068  11.201  0.00  0.00    +0.000 C 
BRANCH  14  15
ATOM     15  O   UNL     1      43.739   4.649   9.978  0.00  0.00    +0.000 OA
BRANCH  15  19
ATOM     16  C   UNL     1      46.329   2.322   7.759  0.00  0.00    +0.000 A 
ATOM     17  C   UNL     1      45.614   1.744   8.811  0.00  0.00    +0.000 A 
ATOM     18  C   UNL     1      44.730   2.536   9.554  0.00  0.00    +0.000 A 
ATOM     19  C   UNL     1      44.589   3.871   9.211  0.00  0.00    +0.000 A 
ATOM     20  N   UNL     1      45.262   4.447   8.188  0.00  0.00    +0.000 NA
ATOM     21  C   UNL     1      46.122   3.667   7.496  0.00  0.00    +0.000 A 
BRANCH  16  23
ATOM     22  N   UNL     1      48.472   2.258   6.607  0.00  0.00    +0.000 N 
ATOM     23  C   UNL     1      47.321   1.601   6.934  0.00  0.00    +0.000 C 
ATOM     24  O   UNL     1      47.138   0.442   6.588  0.00  0.00    +0.000 OA
ATOM     25  H   UNL     1      49.177   1.702   6.140  0.00  0.00    +0.000 HD
ATOM     26  H   UNL     1      48.776   3.096   7.080  0.00  0.00    +0.000 HD
ENDBRANCH  16  23
ENDBRANCH  15  19
ENDBRANCH  14  15
ENDBRANCH   1  14
BRANCH   1  27
ATOM     27  C   UNL     1      44.072   7.571  11.402  0.00  0.00    +0.000 C 
BRANCH  27  28
ATOM     28  O   UNL     1      42.722   7.208  11.155  0.00  0.00    +0.000 OA
ATOM     29  H   UNL     1      42.678   6.764  10.293  0.00  0.00    +0.000 HD
ENDBRANCH  27  28
ENDBRANCH   1  27
TORSDOF 8
ENDMDL
MODEL 5
REMARK VINA RESULT:    -7.697      2.252      2.892
REMARK INTER + INTRA:         -11.966
REMARK INTER:                 -10.982
REMARK INTRA:                  -0.984
REMARK UNBOUND:                -0.894
REMARK  Name = 
REMARK  8 active torsions:
REMARK  status: ('A' for Active; 'I' for Inactive)
REMARK    1  A    between atoms: C_2  and  C_4
REMARK    2  A    between atoms: C_7  and  O_8
REMARK    3  A    between atoms: O_8  and  C_9
REMARK    4  A    between atoms: C_9  and  C_10
REMARK    5  A    between atoms: C_10  and  C_11
REMARK    6  A    between atoms: C_10  and  C_13
REMARK    7  A    between atoms: C_11  and  O_12
REMARK    8  A    between atoms: C_17  and  C_18
REMARK                            x       y       z     vdW  Elec       q    Type
REMARK                         _______ _______ _______ _____ _____    ______ ____
ROOT
ATOM      1  C   UNL     1      44.179   5.044  11.724  0.00  0.00    +0.000 C 
ENDROOT
BRANCH   1   2
ATOM      2  C   UNL     1      44.914   6.369  11.857  0.00  0.00    +0.000 A 
ATOM      3  C   UNL     1      44.299   7.552  11.439  0.00  0.00    +0.000 A 
ATOM      4  C   UNL     1      44.931   8.777  11.640  0.00  0.00    +0.000 A 
ATOM      5  C   UNL     1      46.180   8.830  12.265  0.00  0.00    +0.000 A 
ATOM      6  C   UNL     1      46.832   7.666  12.702  0.00  0.00    +0.000 A 
ATOM      7  C   UNL     1      46.180   6.441  12.466  0.00  0.00    +0.000 A 
BRANCH   6   8
ATOM      8  C   UNL     1      48.124   7.715  13.419  0.00  0.00    +0.000 A 
ATOM      9  C   UNL     1      48.438   6.838  14.468  0.00  0.00    +0.000 A 
ATOM     10  C   UNL     1      49.655   6.934  15.141  0.00  0.00    +0.000 A 
ATOM     11  C   UNL     1      50.550   7.909  14.742  0.00  0.00    +0.000 A 
ATOM     12  N   UNL     1      50.307   8.777  13.742  0.00  0.00    +0.000 NA
ATOM     13  C   UNL     1      49.107   8.662  13.117  0.00  0.00    +0.000 A 
ENDBRANCH   6   8
ENDBRANCH   1   2
BRANCH   1  14
ATOM     14  C   UNL     1      43.718   4.732  10.288  0.00  0.00    +0.000 C 
BRANCH  14  15
ATOM     15  O   UNL     1      43.776   3.322  10.015  0.00  0.00    +0.000 OA
BRANCH  15  19
ATOM     16  C   UNL     1      46.598   2.455   7.128  0.00  0.00    +0.000 A 
ATOM     17  C   UNL     1      46.212   1.463   8.033  0.00  0.00    +0.000 A 
ATOM     18  C   UNL     1      45.248   1.760   9.004  0.00  0.00    +0.000 A 
ATOM     19  C   UNL     1      44.701   3.033   9.027  0.00  0.00    +0.000 A 
ATOM     20  N   UNL     1      45.052   4.004   8.152  0.00  0.00    +0.000 NA
ATOM     21  C   UNL     1      45.996   3.699   7.235  0.00  0.00    +0.000 A 
BRANCH  16  23
ATOM     22  N   UNL     1      47.676   3.181   5.070  0.00  0.00    +0.000 N 
ATOM     23  C   UNL     1      47.636   2.275   6.091  0.00  0.00    +0.000 C 
ATOM     24  O   UNL     1      48.456   1.370   6.163  0.00  0.00    +0.000 OA
ATOM     25  H   UNL     1      48.464   3.097   4.441  0.00  0.00    +0.000 HD
ATOM     26  H   UNL     1      47.204   4.071   5.111  0.00  0.00    +0.000 HD
ENDBRANCH  16  23
ENDBRANCH  15  19
ENDBRANCH  14  15
ENDBRANCH   1  14
BRANCH   1  27
ATOM     27  C   UNL     1      45.076   3.904  12.254  0.00  0.00    +0.000 C 
BRANCH  27  28
ATOM     28  O   UNL     1      44.315   2.814  12.754  0.00  0.00    +0.000 OA
ATOM     29  H   UNL     1      43.704   2.524  12.057  0.00  0.00    +0.000 HD
ENDBRANCH  27  28
ENDBRANCH   1  27
TORSDOF 8
ENDMDL
MODEL 6
REMARK VINA RESULT:    -7.469      2.632      8.060
REMARK INTER + INTRA:         -11.638
REMARK INTER:                 -10.847
REMARK INTRA:                  -0.791
REMARK UNBOUND:                -0.894
REMARK  Name = 
REMARK  8 active torsions:
REMARK  status: ('A' for Active; 'I' for Inactive)
REMARK    1  A    between atoms: C_2  and  C_4
REMARK    2  A    between atoms: C_7  and  O_8
REMARK    3  A    between atoms: O_8  and  C_9
REMARK    4  A    between atoms: C_9  and  C_10
REMARK    5  A    between atoms: C_10  and  C_11
REMARK    6  A    between atoms: C_10  and  C_13
REMARK    7  A    between atoms: C_11  and  O_12
REMARK    8  A    between atoms: C_17  and  C_18
REMARK                            x       y       z     vdW  Elec       q    Type
REMARK                         _______ _______ _______ _____ _____    ______ ____
ROOT
ATOM      1  C   UNL     1      44.927   6.256  12.610  0.00  0.00    +0.000 C 
ENDROOT
BRANCH   1   2
ATOM      2  C   UNL     1      44.634   4.928  11.927  0.00  0.00    +0.000 A 
ATOM      3  C   UNL     1      43.639   4.088  12.435  0.00  0.00    +0.000 A 
ATOM      4  C   UNL     1      43.306   2.915  11.764  0.00  0.00    +0.000 A 
ATOM      5  C   UNL     1      43.960   2.573  10.577  0.00  0.00    +0.000 A 
ATOM      6  C   UNL     1      44.963   3.389  10.031  0.00  0.00    +0.000 A 
ATOM      7  C   UNL     1      45.295   4.558  10.743  0.00  0.00    +0.000 A 
BRANCH   6   8
ATOM      8  C   UNL     1      45.619   3.069   8.745  0.00  0.00    +0.000 A 
ATOM      9  C   UNL     1      46.039   1.772   8.416  0.00  0.00    +0.000 A 
ATOM     10  C   UNL     1      46.682   1.513   7.206  0.00  0.00    +0.000 A 
ATOM     11  C   UNL     1      46.885   2.566   6.333  0.00  0.00    +0.000 A 
ATOM     12  N   UNL     1      46.503   3.831   6.592  0.00  0.00    +0.000 NA
ATOM     13  C   UNL     1      45.892   4.048   7.784  0.00  0.00    +0.000 A 
ENDBRANCH   6   8
ENDBRANCH   1   2
BRANCH   1  14
ATOM     14  C   UNL     1      46.314   6.317  13.276  0.00  0.00    +0.000 C 
BRANCH  14  15
ATOM     15  O   UNL     1      46.891   5.006  13.406  0.00  0.00    +0.000 OA
BRANCH  15  19
ATOM     16  C   UNL     1      48.428   4.434  17.195  0.00  0.00    +0.000 A 
ATOM     17  C   UNL     1      47.650   3.433  16.609  0.00  0.00    +0.000 A 
ATOM     18  C   UNL     1      47.140   3.628  15.321  0.00  0.00    +0.000 A 
ATOM     19  C   UNL     1      47.433   4.813  14.664  0.00  0.00    +0.000 A 
ATOM     20  N   UNL     1      48.195   5.790  15.209  0.00  0.00    +0.000 NA
ATOM     21  C   UNL     1      48.663   5.585  16.460  0.00  0.00    +0.000 A 
BRANCH  16  23
ATOM     22  N   UNL     1      48.414   3.477  19.433  0.00  0.00    +0.000 N 
ATOM     23  C   UNL     1      48.983   4.362  18.563  0.00  0.00    +0.000 C 
ATOM     24  O   UNL     1      49.944   5.043  18.896  0.00  0.00    +0.000 OA
ATOM     25  H   UNL     1      48.887   3.370  20.322  0.00  0.00    +0.000 HD
ATOM     26  H   UNL     1      47.811   2.726  19.131  0.00  0.00    +0.000 HD
ENDBRANCH  16  23
ENDBRANCH  15  19
ENDBRANCH  14  15
ENDBRANCH   1  14
BRANCH   1  27
ATOM     27  C   UNL     1      44.777   7.403  11.586  0.00  0.00    +0.000 C 
BRANCH  27  28
ATOM     28  O   UNL     1      43.432   7.569  11.162  0.00  0.00    +0.000 OA
ATOM     29  H   UNL     1      43.194   8.505  11.262  0.00  0.00    +0.000 HD
ENDBRANCH  27  28
ENDBRANCH   1  27
TORSDOF 8
ENDMDL
MODEL 7
REMARK VINA RESULT:    -7.024      3.998      6.257
REMARK INTER + INTRA:         -10.997
REMARK INTER:                 -10.048
REMARK INTRA:                  -0.949
REMARK UNBOUND:                -0.894
REMARK  Name = 
REMARK  8 active torsions:
REMARK  status: ('A' for Active; 'I' for Inactive)
REMARK    1  A    between atoms: C_2  and  C_4
REMARK    2  A    between atoms: C_7  and  O_8
REMARK    3  A    between atoms: O_8  and  C_9
REMARK    4  A    between atoms: C_9  and  C_10
REMARK    5  A    between atoms: C_10  and  C_11
REMARK    6  A    between atoms: C_10  and  C_13
REMARK    7  A    between atoms: C_11  and  O_12
REMARK    8  A    between atoms: C_17  and  C_18
REMARK                            x       y       z     vdW  Elec       q    Type
REMARK                         _______ _______ _______ _____ _____    ______ ____
ROOT
ATOM      1  C   UNL     1      48.127   4.375  17.085  0.00  0.00    +0.000 C 
ENDROOT
BRANCH   1   2
ATOM      2  C   UNL     1      49.628   4.589  17.203  0.00  0.00    +0.000 A 
ATOM      3  C   UNL     1      50.160   5.877  17.094  0.00  0.00    +0.000 A 
ATOM      4  C   UNL     1      51.522   6.090  17.289  0.00  0.00    +0.000 A 
ATOM      5  C   UNL     1      52.364   5.019  17.600  0.00  0.00    +0.000 A 
ATOM      6  C   UNL     1      51.871   3.710  17.722  0.00  0.00    +0.000 A 
ATOM      7  C   UNL     1      50.495   3.521  17.497  0.00  0.00    +0.000 A 
BRANCH   6   8
ATOM      8  C   UNL     1      52.741   2.579  18.112  0.00  0.00    +0.000 A 
ATOM      9  C   UNL     1      53.965   2.764  18.772  0.00  0.00    +0.000 A 
ATOM     10  C   UNL     1      54.774   1.675  19.096  0.00  0.00    +0.000 A 
ATOM     11  C   UNL     1      54.335   0.408  18.760  0.00  0.00    +0.000 A 
ATOM     12  N   UNL     1      53.170   0.168  18.128  0.00  0.00    +0.000 NA
ATOM     13  C   UNL     1      52.415   1.252  17.817  0.00  0.00    +0.000 A 
ENDBRANCH   6   8
ENDBRANCH   1   2
BRANCH   1  14
ATOM     14  C   UNL     1      47.548   4.786  15.719  0.00  0.00    +0.000 C 
BRANCH  14  15
ATOM     15  O   UNL     1      47.419   3.653  14.843  0.00  0.00    +0.000 OA
BRANCH  15  19
ATOM     16  C   UNL     1      45.136   4.629  11.543  0.00  0.00    +0.000 A 
ATOM     17  C   UNL     1      45.934   5.607  12.141  0.00  0.00    +0.000 A 
ATOM     18  C   UNL     1      46.713   5.268  13.254  0.00  0.00    +0.000 A 
ATOM     19  C   UNL     1      46.671   3.963  13.720  0.00  0.00    +0.000 A 
ATOM     20  N   UNL     1      45.915   2.998  13.147  0.00  0.00    +0.000 NA
ATOM     21  C   UNL     1      45.159   3.353  12.084  0.00  0.00    +0.000 A 
BRANCH  16  23
ATOM     22  N   UNL     1      44.751   4.704   9.141  0.00  0.00    +0.000 N 
ATOM     23  C   UNL     1      44.239   4.877  10.394  0.00  0.00    +0.000 C 
ATOM     24  O   UNL     1      43.068   5.188  10.559  0.00  0.00    +0.000 OA
ATOM     25  H   UNL     1      44.084   4.770   8.382  0.00  0.00    +0.000 HD
ATOM     26  H   UNL     1      45.609   4.203   8.966  0.00  0.00    +0.000 HD
ENDBRANCH  16  23
ENDBRANCH  15  19
ENDBRANCH  14  15
ENDBRANCH   1  14
BRANCH   1  27
ATOM     27  C   UNL     1      47.795   2.896  17.380  0.00  0.00    +0.000 C 
BRANCH  27  28
ATOM     28  O   UNL     1      46.430   2.714  17.726  0.00  0.00    +0.000 OA
ATOM     29  H   UNL     1      46.237   1.762  17.716  0.00  0.00    +0.000 HD
ENDBRANCH  27  28
ENDBRANCH   1  27
TORSDOF 8
ENDMDL
MODEL 8
REMARK VINA RESULT:    -6.869      3.452      8.082
REMARK INTER + INTRA:         -10.775
REMARK INTER:                  -9.628
REMARK INTRA:                  -1.147
REMARK UNBOUND:                -0.894
REMARK  Name = 
REMARK  8 active torsions:
REMARK  status: ('A' for Active; 'I' for Inactive)
REMARK    1  A    between atoms: C_2  and  C_4
REMARK    2  A    between atoms: C_7  and  O_8
REMARK    3  A    between atoms: O_8  and  C_9
REMARK    4  A    between atoms: C_9  and  C_10
REMARK    5  A    between atoms: C_10  and  C_11
REMARK    6  A    between atoms: C_10  and  C_13
REMARK    7  A    between atoms: C_11  and  O_12
REMARK    8  A    between atoms: C_17  and  C_18
REMARK                            x       y       z     vdW  Elec       q    Type
REMARK                         _______ _______ _______ _____ _____    ______ ____
ROOT
ATOM      1  C   UNL     1      48.657   8.316  12.773  0.00  0.00    +0.000 C 
ENDROOT
BRANCH   1   2
ATOM      2  C   UNL     1      47.229   8.007  12.352  0.00  0.00    +0.000 A 
ATOM      3  C   UNL     1      46.230   8.970  12.521  0.00  0.00    +0.000 A 
ATOM      4  C   UNL     1      44.940   8.726  12.056  0.00  0.00    +0.000 A 
ATOM      5  C   UNL     1      44.639   7.522  11.413  0.00  0.00    +0.000 A 
ATOM      6  C   UNL     1      45.614   6.530  11.221  0.00  0.00    +0.000 A 
ATOM      7  C   UNL     1      46.903   6.794  11.721  0.00  0.00    +0.000 A 
BRANCH   6   8
ATOM      8  C   UNL     1      45.322   5.278  10.489  0.00  0.00    +0.000 A 
ATOM      9  C   UNL     1      45.688   5.088   9.148  0.00  0.00    +0.000 A 
ATOM     10  C   UNL     1      45.368   3.906   8.481  0.00  0.00    +0.000 A 
ATOM     11  C   UNL     1      44.692   2.921   9.176  0.00  0.00    +0.000 A 
ATOM     12  N   UNL     1      44.317   3.046  10.464  0.00  0.00    +0.000 NA
ATOM     13  C   UNL     1      44.633   4.214  11.078  0.00  0.00    +0.000 A 
ENDBRANCH   6   8
ENDBRANCH   1   2
BRANCH   1  14
ATOM     14  C   UNL     1      48.865   8.328  14.299  0.00  0.00    +0.000 C 
BRANCH  14  15
ATOM     15  O   UNL     1      49.848   7.359  14.702  0.00  0.00    +0.000 OA
BRANCH  15  19
ATOM     16  C   UNL     1      48.288   4.436  17.165  0.00  0.00    +0.000 A 
ATOM     17  C   UNL     1      49.422   5.144  17.570  0.00  0.00    +0.000 A 
ATOM     18  C   UNL     1      49.941   6.140  16.735  0.00  0.00    +0.000 A 
ATOM     19  C   UNL     1      49.301   6.396  15.532  0.00  0.00    +0.000 A 
ATOM     20  N   UNL     1      48.195   5.730  15.127  0.00  0.00    +0.000 NA
ATOM     21  C   UNL     1      47.722   4.762  15.943  0.00  0.00    +0.000 A 
BRANCH  16  23
ATOM     22  N   UNL     1      48.227   3.026  19.149  0.00  0.00    +0.000 N 
ATOM     23  C   UNL     1      47.676   3.334  17.938  0.00  0.00    +0.000 C 
ATOM     24  O   UNL     1      46.687   2.743  17.528  0.00  0.00    +0.000 OA
ATOM     25  H   UNL     1      47.719   2.347  19.701  0.00  0.00    +0.000 HD
ATOM     26  H   UNL     1      48.858   3.645  19.634  0.00  0.00    +0.000 HD
ENDBRANCH  16  23
ENDBRANCH  15  19
ENDBRANCH  14  15
ENDBRANCH   1  14
BRANCH   1  27
ATOM     27  C   UNL     1      49.618   7.301  12.114  0.00  0.00    +0.000 C 
BRANCH  27  28
ATOM     28  O   UNL     1      50.975   7.705  12.218  0.00  0.00    +0.000 OA
ATOM     29  H   UNL     1      51.006   8.676  12.202  0.00  0.00    +0.000 HD
ENDBRANCH  27  28
ENDBRANCH   1  27
TORSDOF 8
ENDMDL
MODEL 9
REMARK VINA RESULT:    -6.860      3.641      6.536
REMARK INTER + INTRA:         -10.762
REMARK INTER:                  -9.741
REMARK INTRA:                  -1.021
REMARK UNBOUND:                -0.894
REMARK  Name = 
REMARK  8 active torsions:
REMARK  status: ('A' for Active; 'I' for Inactive)
REMARK    1  A    between atoms: C_2  and  C_4
REMARK    2  A    between atoms: C_7  and  O_8
REMARK    3  A    between atoms: O_8  and  C_9
REMARK    4  A    between atoms: C_9  and  C_10
REMARK    5  A    between atoms: C_10  and  C_11
REMARK    6  A    between atoms: C_10  and  C_13
REMARK    7  A    between atoms: C_11  and  O_12
REMARK    8  A    between atoms: C_17  and  C_18
REMARK                            x       y       z     vdW  Elec       q    Type
REMARK                         _______ _______ _______ _____ _____    ______ ____
ROOT
ATOM      1  C   UNL     1      48.039   3.479  17.029  0.00  0.00    +0.000 C 
ENDROOT
BRANCH   1   2
ATOM      2  C   UNL     1      48.110   4.407  18.232  0.00  0.00    +0.000 A 
ATOM      3  C   UNL     1      48.517   3.908  19.473  0.00  0.00    +0.000 A 
ATOM      4  C   UNL     1      48.670   4.771  20.556  0.00  0.00    +0.000 A 
ATOM      5  C   UNL     1      48.423   6.138  20.407  0.00  0.00    +0.000 A 
ATOM      6  C   UNL     1      48.015   6.680  19.177  0.00  0.00    +0.000 A 
ATOM      7  C   UNL     1      47.848   5.782  18.107  0.00  0.00    +0.000 A 
BRANCH   6   8
ATOM      8  C   UNL     1      47.811   8.133  18.992  0.00  0.00    +0.000 A 
ATOM      9  C   UNL     1      47.241   8.946  19.983  0.00  0.00    +0.000 A 
ATOM     10  C   UNL     1      47.035  10.307  19.761  0.00  0.00    +0.000 A 
ATOM     11  C   UNL     1      47.417  10.839  18.543  0.00  0.00    +0.000 A 
ATOM     12  N   UNL     1      47.971  10.110  17.555  0.00  0.00    +0.000 NA
ATOM     13  C   UNL     1      48.145   8.786  17.802  0.00  0.00    +0.000 A 
ENDBRANCH   6   8
ENDBRANCH   1   2
BRANCH   1  14
ATOM     14  C   UNL     1      47.782   4.208  15.698  0.00  0.00    +0.000 C 
BRANCH  14  15
ATOM     15  O   UNL     1      47.466   3.281  14.645  0.00  0.00    +0.000 OA
BRANCH  15  19
ATOM     16  C   UNL     1      44.530   4.810  12.177  0.00  0.00    +0.000 A 
ATOM     17  C   UNL     1      45.185   5.657  13.074  0.00  0.00    +0.000 A 
ATOM     18  C   UNL     1      46.186   5.135  13.902  0.00  0.00    +0.000 A 
ATOM     19  C   UNL     1      46.500   3.789  13.794  0.00  0.00    +0.000 A 
ATOM     20  N   UNL     1      45.886   2.955  12.923  0.00  0.00    +0.000 NA
ATOM     21  C   UNL     1      44.912   3.478  12.146  0.00  0.00    +0.000 A 
BRANCH  16  23
ATOM     22  N   UNL     1      42.479   6.067  11.804  0.00  0.00    +0.000 N 
ATOM     23  C   UNL     1      43.429   5.234  11.286  0.00  0.00    +0.000 C 
ATOM     24  O   UNL     1      43.389   4.884  10.115  0.00  0.00    +0.000 OA
ATOM     25  H   UNL     1      41.805   6.428  11.141  0.00  0.00    +0.000 HD
ATOM     26  H   UNL     1      42.613   6.581  12.661  0.00  0.00    +0.000 HD
ENDBRANCH  16  23
ENDBRANCH  15  19
ENDBRANCH  14  15
ENDBRANCH   1  14
BRANCH   1  27
ATOM     27  C   UNL     1      49.341   2.653  16.940  0.00  0.00    +0.000 C 
BRANCH  27  28
ATOM     28  O   UNL     1      49.291   1.688  15.899  0.00  0.00    +0.000 OA
ATOM     29  H   UNL     1      49.492   0.817  16.280  0.00  0.00    +0.000 HD
ENDBRANCH  27  28
ENDBRANCH   1  27
TORSDOF 8
ENDMDL
