MODEL 1
REMARK VINA RESULT:    -7.887      0.000      0.000
REMARK INTER + INTRA:         -10.310
REMARK INTER:                  -9.731
REMARK INTRA:                  -0.579
REMARK UNBOUND:                -0.579
REMARK  Name = 
REMARK  4 active torsions:
REMARK  status: ('A' for Active; 'I' for Inactive)
REMARK    1  A    between atoms: C_2  and  C_5
REMARK    2  A    between atoms: N_10  and  C_11
REMARK    3  A    between atoms: C_11  and  C_12
REMARK    4  A    between atoms: C_16  and  C_17
REMARK                            x       y       z     vdW  Elec       q    Type
REMARK                         _______ _______ _______ _____ _____    ______ ____
ROOT
ATOM      1  C   UNL     1      45.109   6.009  11.191  0.00  0.00    +0.000 C 
ENDROOT
BRANCH   1   7
ATOM      2  C   UNL     1      46.202   3.229   7.543  0.00  0.00    +0.000 A 
ATOM      3  C   UNL     1      45.691   2.120   8.191  0.00  0.00    +0.000 A 
ATOM      4  C   UNL     1      45.150   2.346   9.429  0.00  0.00    +0.000 A 
ATOM      5  N   UNL     1      45.080   3.564   9.995  0.00  0.00    +0.000 NA
ATOM      6  C   UNL     1      45.596   4.595   9.312  0.00  0.00    +0.000 A 
ATOM      7  N   UNL     1      45.504   5.880   9.809  0.00  0.00    +0.000 N 
ATOM      8  N   UNL     1      46.185   4.463   8.118  0.00  0.00    +0.000 NA
ATOM      9  H   UNL     1      46.297   6.426   9.497  0.00  0.00    +0.000 HD
BRANCH   2  11
ATOM     10  F   UNL     1      46.051   2.220   5.359  0.00  0.00    +0.000 F 
ATOM     11  C   UNL     1      46.768   3.086   6.140  0.00  0.00    +0.000 C 
ATOM     12  F   UNL     1      48.046   2.614   6.122  0.00  0.00    +0.000 F 
ATOM     13  F   UNL     1      46.786   4.260   5.447  0.00  0.00    +0.000 F 
ENDBRANCH   2  11
ENDBRANCH   1   7
BRANCH   1  14
ATOM     14  C   UNL     1      46.326   6.204  12.070  0.00  0.00    +0.000 A 
ATOM     15  C   UNL     1      47.275   7.184  11.751  0.00  0.00    +0.000 A 
ATOM     16  C   UNL     1      48.362   7.412  12.593  0.00  0.00    +0.000 A 
ATOM     17  C   UNL     1      48.500   6.677  13.771  0.00  0.00    +0.000 A 
ATOM     18  C   UNL     1      47.558   5.698  14.138  0.00  0.00    +0.000 A 
ATOM     19  C   UNL     1      46.497   5.448  13.244  0.00  0.00    +0.000 A 
BRANCH  18  20
ATOM     20  C   UNL     1      47.633   5.003  15.439  0.00  0.00    +0.000 A 
ATOM     21  C   UNL     1      46.725   4.012  15.816  0.00  0.00    +0.000 A 
ATOM     22  N   UNL     1      46.799   3.321  16.982  0.00  0.00    +0.000 NA
ATOM     23  C   UNL     1      47.838   3.656  17.773  0.00  0.00    +0.000 A 
ATOM     24  C   UNL     1      48.751   4.631  17.421  0.00  0.00    +0.000 A 
ATOM     25  N   UNL     1      48.675   5.318  16.255  0.00  0.00    +0.000 NA
ENDBRANCH  18  20
ENDBRANCH   1  14
TORSDOF 4
ENDMDL
MODEL 2
REMARK VINA RESULT:    -7.841      1.557      2.485
REMARK INTER + INTRA:         -10.253
REMARK INTER:                 -10.275
REMARK INTRA:                   0.022
REMARK UNBOUND:                -0.579
REMARK  Name = 
REMARK  4 active torsions:
REMARK  status: ('A' for Active; 'I' for Inactive)
REMARK    1  A    between atoms: C_2  and  C_5
REMARK    2  A    between atoms: N_10  and  C_11
REMARK    3  A    between atoms: C_11  and  C_12
REMARK    4  A    between atoms: C_16  and  C_17
REMARK                            x       y       z     vdW  Elec       q    Type
REMARK                         _______ _______ _______ _____ _____    ______ ____
ROOT
ATOM      1  C   UNL     1      43.567   3.598  11.407  0.00  0.00    +0.000 C 
ENDROOT
BRANCH   1   7
ATOM      2  C   UNL     1      46.270   2.090   7.851  0.00  0.00    +0.000 A 
ATOM      3  C   UNL     1      46.341   3.364   7.319  0.00  0.00    +0.000 A 
ATOM      4  C   UNL     1      45.688   4.344   8.021  0.00  0.00    +0.000 A 
ATOM      5  N   UNL     1      45.033   4.116   9.173  0.00  0.00    +0.000 NA
ATOM      6  C   UNL     1      45.002   2.856   9.631  0.00  0.00    +0.000 A 
ATOM      7  N   UNL     1      44.398   2.564  10.837  0.00  0.00    +0.000 N 
ATOM      8  N   UNL     1      45.572   1.829   8.990  0.00  0.00    +0.000 NA
ATOM      9  H   UNL     1      44.024   1.625  10.814  0.00  0.00    +0.000 HD
BRANCH   2  11
ATOM     10  F   UNL     1      46.688  -0.278   7.682  0.00  0.00    +0.000 F 
ATOM     11  C   UNL     1      47.014   0.951   7.175  0.00  0.00    +0.000 C 
ATOM     12  F   UNL     1      48.368   1.043   7.301  0.00  0.00    +0.000 F 
ATOM     13  F   UNL     1      46.762   0.865   5.838  0.00  0.00    +0.000 F 
ENDBRANCH   2  11
ENDBRANCH   1   7
BRANCH   1  14
ATOM     14  C   UNL     1      44.425   4.696  12.000  0.00  0.00    +0.000 A 
ATOM     15  C   UNL     1      44.194   6.034  11.654  0.00  0.00    +0.000 A 
ATOM     16  C   UNL     1      44.937   7.052  12.247  0.00  0.00    +0.000 A 
ATOM     17  C   UNL     1      45.904   6.746  13.205  0.00  0.00    +0.000 A 
ATOM     18  C   UNL     1      46.153   5.416  13.595  0.00  0.00    +0.000 A 
ATOM     19  C   UNL     1      45.426   4.400  12.942  0.00  0.00    +0.000 A 
BRANCH  18  20
ATOM     20  C   UNL     1      47.086   5.096  14.693  0.00  0.00    +0.000 A 
ATOM     21  C   UNL     1      48.178   5.906  15.014  0.00  0.00    +0.000 A 
ATOM     22  N   UNL     1      49.022   5.664  16.048  0.00  0.00    +0.000 NA
ATOM     23  C   UNL     1      48.729   4.566  16.773  0.00  0.00    +0.000 A 
ATOM     24  C   UNL     1      47.654   3.750  16.478  0.00  0.00    +0.000 A 
ATOM     25  N   UNL     1      46.812   3.995  15.444  0.00  0.00    +0.000 NA
ENDBRANCH  18  20
ENDBRANCH   1  14
TORSDOF 4
ENDMDL
MODEL 3
REMARK VINA RESULT:    -7.685      2.176      3.340
REMARK INTER + INTRA:         -10.061
REMARK INTER:                  -9.499
REMARK INTRA:                  -0.562
REMARK UNBOUND:                -0.579
REMARK  Name = 
REMARK  4 active torsions:
REMARK  status: ('A' for Active; 'I' for Inactive)
REMARK    1  A    between atoms: C_2  and  C_5
REMARK    2  A    between atoms: N_10  and  C_11
REMARK    3  A    between atoms: C_11  and  C_12
REMARK    4  A    between atoms: C_16  and  C_17
REMARK                            x       y       z     vdW  Elec       q    Type
REMARK                         _______ _______ _______ _____ _____    ______ ____
ROOT
ATOM      1  C   UNL     1      44.609   5.899  10.925  0.00  0.00    +0.000 C 
ENDROOT
BRANCH   1   7
ATOM      2  C   UNL     1      46.124   2.687   7.824  0.00  0.00    +0.000 A 
ATOM      3  C   UNL     1      45.380   1.695   8.435  0.00  0.00    +0.000 A 
ATOM      4  C   UNL     1      44.624   2.089   9.509  0.00  0.00    +0.000 A 
ATOM      5  N   UNL     1      44.568   3.358   9.948  0.00  0.00    +0.000 NA
ATOM      6  C   UNL     1      45.317   4.269   9.310  0.00  0.00    +0.000 A 
ATOM      7  N   UNL     1      45.260   5.600   9.673  0.00  0.00    +0.000 N 
ATOM      8  N   UNL     1      46.119   3.969   8.282  0.00  0.00    +0.000 NA
ATOM      9  H   UNL     1      46.153   6.043   9.494  0.00  0.00    +0.000 HD
BRANCH   2  11
ATOM     10  F   UNL     1      46.438   2.912   5.445  0.00  0.00    +0.000 F 
ATOM     11  C   UNL     1      46.945   2.358   6.589  0.00  0.00    +0.000 C 
ATOM     12  F   UNL     1      47.023   1.021   6.336  0.00  0.00    +0.000 F 
ATOM     13  F   UNL     1      48.230   2.807   6.664  0.00  0.00    +0.000 F 
ENDBRANCH   2  11
ENDBRANCH   1   7
BRANCH   1  14
ATOM     14  C   UNL     1      45.599   5.817  12.067  0.00  0.00    +0.000 A 
ATOM     15  C   UNL     1      45.413   4.883  13.095  0.00  0.00    +0.000 A 
ATOM     16  C   UNL     1      46.356   4.759  14.113  0.00  0.00    +0.000 A 
ATOM     17  C   UNL     1      47.505   5.552  14.102  0.00  0.00    +0.000 A 
ATOM     18  C   UNL     1      47.740   6.487  13.077  0.00  0.00    +0.000 A 
ATOM     19  C   UNL     1      46.745   6.632  12.088  0.00  0.00    +0.000 A 
BRANCH  18  20
ATOM     20  C   UNL     1      49.006   7.241  12.994  0.00  0.00    +0.000 A 
ATOM     21  C   UNL     1      49.793   7.515  14.115  0.00  0.00    +0.000 A 
ATOM     22  N   UNL     1      50.986   8.160  14.063  0.00  0.00    +0.000 NA
ATOM     23  C   UNL     1      51.380   8.524  12.826  0.00  0.00    +0.000 A 
ATOM     24  C   UNL     1      50.621   8.261  11.702  0.00  0.00    +0.000 A 
ATOM     25  N   UNL     1      49.430   7.616  11.757  0.00  0.00    +0.000 NA
ENDBRANCH  18  20
ENDBRANCH   1  14
TORSDOF 4
ENDMDL
MODEL 4
REMARK VINA RESULT:    -7.638      2.955      4.848
REMARK INTER + INTRA:         -10.003
REMARK INTER:                  -9.942
REMARK INTRA:                  -0.061
REMARK UNBOUND:                -0.579
REMARK  Name = 
REMARK  4 active torsions:
REMARK  status: ('A' for Active; 'I' for Inactive)
REMARK    1  A    between atoms: C_2  and  C_5
REMARK    2  A    between atoms: N_10  and  C_11
REMARK    3  A    between atoms: C_11  and  C_12
REMARK    4  A    between atoms: C_16  and  C_17
REMARK                            x       y       z     vdW  Elec       q    Type
REMARK                         _______ _______ _______ _____ _____    ______ ____
ROOT
ATOM      1  C   UNL     1      43.475   3.650  11.445  0.00  0.00    +0.000 C 
ENDROOT
BRANCH   1   7
ATOM      2  C   UNL     1      46.228   2.140   7.929  0.00  0.00    +0.000 A 
ATOM      3  C   UNL     1      46.329   3.418   7.413  0.00  0.00    +0.000 A 
ATOM      4  C   UNL     1      45.676   4.400   8.111  0.00  0.00    +0.000 A 
ATOM      5  N   UNL     1      44.994   4.170   9.247  0.00  0.00    +0.000 NA
ATOM      6  C   UNL     1      44.935   2.906   9.690  0.00  0.00    +0.000 A 
ATOM      7  N   UNL     1      44.301   2.610  10.881  0.00  0.00    +0.000 N 
ATOM      8  N   UNL     1      45.503   1.877   9.051  0.00  0.00    +0.000 NA
ATOM      9  H   UNL     1      43.914   1.676  10.840  0.00  0.00    +0.000 HD
BRANCH   2  11
ATOM     10  F   UNL     1      46.619  -0.231   7.747  0.00  0.00    +0.000 F 
ATOM     11  C   UNL     1      46.970   0.997   7.256  0.00  0.00    +0.000 C 
ATOM     12  F   UNL     1      48.322   1.071   7.406  0.00  0.00    +0.000 F 
ATOM     13  F   UNL     1      46.739   0.925   5.915  0.00  0.00    +0.000 F 
ENDBRANCH   2  11
ENDBRANCH   1   7
BRANCH   1  14
ATOM     14  C   UNL     1      44.335   4.711  12.098  0.00  0.00    +0.000 A 
ATOM     15  C   UNL     1      45.373   4.341  12.963  0.00  0.00    +0.000 A 
ATOM     16  C   UNL     1      46.208   5.311  13.515  0.00  0.00    +0.000 A 
ATOM     17  C   UNL     1      46.027   6.656  13.191  0.00  0.00    +0.000 A 
ATOM     18  C   UNL     1      45.009   7.067  12.311  0.00  0.00    +0.000 A 
ATOM     19  C   UNL     1      44.143   6.073  11.808  0.00  0.00    +0.000 A 
BRANCH  18  20
ATOM     20  C   UNL     1      44.888   8.471  11.871  0.00  0.00    +0.000 A 
ATOM     21  C   UNL     1      45.776   9.468  12.283  0.00  0.00    +0.000 A 
ATOM     22  N   UNL     1      45.721  10.754  11.855  0.00  0.00    +0.000 NA
ATOM     23  C   UNL     1      44.732  11.018  10.977  0.00  0.00    +0.000 A 
ATOM     24  C   UNL     1      43.843  10.049  10.553  0.00  0.00    +0.000 A 
ATOM     25  N   UNL     1      43.902   8.764  10.981  0.00  0.00    +0.000 NA
ENDBRANCH  18  20
ENDBRANCH   1  14
TORSDOF 4
ENDMDL
MODEL 5
REMARK VINA RESULT:    -6.976      1.772      2.248
REMARK INTER + INTRA:          -9.186
REMARK INTER:                  -8.603
REMARK INTRA:                  -0.583
REMARK UNBOUND:                -0.579
REMARK  Name = 
REMARK  4 active torsions:
REMARK  status: ('A' for Active; 'I' for Inactive)
REMARK    1  A    between atoms: C_2  and  C_5
REMARK    2  A    between atoms: N_10  and  C_11
REMARK    3  A    between atoms: C_11  and  C_12
REMARK    4  A    between atoms: C_16  and  C_17
REMARK                            x       y       z     vdW  Elec       q    Type
REMARK                         _______ _______ _______ _____ _____    ______ ____
ROOT
ATOM      1  C   UNL     1      45.586   7.322  12.208  0.00  0.00    +0.000 C 
ENDROOT
BRANCH   1   7
ATOM      2  C   UNL     1      44.632   3.223  10.083  0.00  0.00    +0.000 A 
ATOM      3  C   UNL     1      43.733   2.878  11.075  0.00  0.00    +0.000 A 
ATOM      4  C   UNL     1      43.553   3.804  12.069  0.00  0.00    +0.000 A 
ATOM      5  N   UNL     1      44.178   4.995  12.092  0.00  0.00    +0.000 NA
ATOM      6  C   UNL     1      45.039   5.263  11.100  0.00  0.00    +0.000 A 
ATOM      7  N   UNL     1      45.668   6.490  11.032  0.00  0.00    +0.000 N 
ATOM      8  N   UNL     1      45.311   4.402  10.113  0.00  0.00    +0.000 NA
ATOM      9  H   UNL     1      46.576   6.386  10.596  0.00  0.00    +0.000 HD
BRANCH   2  11
ATOM     10  F   UNL     1      44.139   1.121   9.012  0.00  0.00    +0.000 F 
ATOM     11  C   UNL     1      44.851   2.285   8.908  0.00  0.00    +0.000 C 
ATOM     12  F   UNL     1      46.151   1.899   8.763  0.00  0.00    +0.000 F 
ATOM     13  F   UNL     1      44.479   2.826   7.714  0.00  0.00    +0.000 F 
ENDBRANCH   2  11
ENDBRANCH   1   7
BRANCH   1  14
ATOM     14  C   UNL     1      46.849   7.195  13.032  0.00  0.00    +0.000 A 
ATOM     15  C   UNL     1      47.870   8.147  12.908  0.00  0.00    +0.000 A 
ATOM     16  C   UNL     1      49.005   8.071  13.712  0.00  0.00    +0.000 A 
ATOM     17  C   UNL     1      49.123   7.055  14.662  0.00  0.00    +0.000 A 
ATOM     18  C   UNL     1      48.112   6.091  14.832  0.00  0.00    +0.000 A 
ATOM     19  C   UNL     1      46.998   6.158  13.970  0.00  0.00    +0.000 A 
BRANCH  18  20
ATOM     20  C   UNL     1      48.175   5.089  15.914  0.00  0.00    +0.000 A 
ATOM     21  C   UNL     1      47.147   4.175  16.155  0.00  0.00    +0.000 A 
ATOM     22  N   UNL     1      47.199   3.210  17.108  0.00  0.00    +0.000 NA
ATOM     23  C   UNL     1      48.342   3.183  17.824  0.00  0.00    +0.000 A 
ATOM     24  C   UNL     1      49.374   4.074  17.603  0.00  0.00    +0.000 A 
ATOM     25  N   UNL     1      49.319   5.036  16.650  0.00  0.00    +0.000 NA
ENDBRANCH  18  20
ENDBRANCH   1  14
TORSDOF 4
ENDMDL
MODEL 6
REMARK VINA RESULT:    -6.893      4.606      7.841
REMARK INTER + INTRA:          -9.083
REMARK INTER:                  -8.478
REMARK INTRA:                  -0.606
REMARK UNBOUND:                -0.579
REMARK  Name = 
REMARK  4 active torsions:
REMARK  status: ('A' for Active; 'I' for Inactive)
REMARK    1  A    between atoms: C_2  and  C_5
REMARK    2  A    between atoms: N_10  and  C_11
REMARK    3  A    between atoms: C_11  and  C_12
REMARK    4  A    between atoms: C_16  and  C_17
REMARK                            x       y       z     vdW  Elec       q    Type
REMARK                         _______ _______ _______ _____ _____    ______ ____
ROOT
ATOM      1  C   UNL     1      45.157   7.744  11.873  0.00  0.00    +0.000 C 
ENDROOT
BRANCH   1   7
ATOM      2  C   UNL     1      49.237   7.338  14.200  0.00  0.00    +0.000 A 
ATOM      3  C   UNL     1      49.956   7.681  13.070  0.00  0.00    +0.000 A 
ATOM      4  C   UNL     1      49.215   7.968  11.953  0.00  0.00    +0.000 A 
ATOM      5  N   UNL     1      47.871   7.953  11.934  0.00  0.00    +0.000 NA
ATOM      6  C   UNL     1      47.237   7.610  13.065  0.00  0.00    +0.000 A 
ATOM      7  N   UNL     1      45.858   7.632  13.129  0.00  0.00    +0.000 N 
ATOM      8  N   UNL     1      47.877   7.270  14.189  0.00  0.00    +0.000 NA
ATOM      9  H   UNL     1      45.535   6.931  13.783  0.00  0.00    +0.000 HD
BRANCH   2  11
ATOM     10  F   UNL     1      49.818   8.062  16.425  0.00  0.00    +0.000 F 
ATOM     11  C   UNL     1      49.970   7.062  15.503  0.00  0.00    +0.000 C 
ATOM     12  F   UNL     1      51.316   6.922  15.342  0.00  0.00    +0.000 F 
ATOM     13  F   UNL     1      49.541   5.930  16.129  0.00  0.00    +0.000 F 
ENDBRANCH   2  11
ENDBRANCH   1   7
BRANCH   1  14
ATOM     14  C   UNL     1      44.636   6.391  11.438  0.00  0.00    +0.000 A 
ATOM     15  C   UNL     1      43.391   5.936  11.892  0.00  0.00    +0.000 A 
ATOM     16  C   UNL     1      42.879   4.721  11.442  0.00  0.00    +0.000 A 
ATOM     17  C   UNL     1      43.595   3.958  10.519  0.00  0.00    +0.000 A 
ATOM     18  C   UNL     1      44.840   4.389  10.023  0.00  0.00    +0.000 A 
ATOM     19  C   UNL     1      45.362   5.595  10.533  0.00  0.00    +0.000 A 
BRANCH  18  20
ATOM     20  C   UNL     1      45.545   3.648   8.958  0.00  0.00    +0.000 A 
ATOM     21  C   UNL     1      45.642   2.254   8.948  0.00  0.00    +0.000 A 
ATOM     22  N   UNL     1      46.238   1.544   7.958  0.00  0.00    +0.000 NA
ATOM     23  C   UNL     1      46.739   2.287   6.950  0.00  0.00    +0.000 A 
ATOM     24  C   UNL     1      46.653   3.666   6.936  0.00  0.00    +0.000 A 
ATOM     25  N   UNL     1      46.056   4.373   7.926  0.00  0.00    +0.000 NA
ENDBRANCH  18  20
ENDBRANCH   1  14
TORSDOF 4
ENDMDL
MODEL 7
REMARK VINA RESULT:    -6.878      3.749      7.376
REMARK INTER + INTRA:          -9.065
REMARK INTER:                  -8.863
REMARK INTRA:                  -0.202
REMARK UNBOUND:                -0.579
REMARK  Name = 
REMARK  4 active torsions:
REMARK  status: ('A' for Active; 'I' for Inactive)
REMARK    1  A    between atoms: C_2  and  C_5
REMARK    2  A    between atoms: N_10  and  C_11
REMARK    3  A    between atoms: C_11  and  C_12
REMARK    4  A    between atoms: C_16  and  C_17
REMARK                            x       y       z     vdW  Elec       q    Type
REMARK                         _______ _______ _______ _____ _____    ______ ____
ROOT
ATOM      1  C   UNL     1      43.942   6.332  11.397  0.00  0.00    +0.000 C 
ENDROOT
BRANCH   1   7
ATOM      2  C   UNL     1      48.337   7.582  12.557  0.00  0.00    +0.000 A 
ATOM      3  C   UNL     1      48.350   6.689  13.612  0.00  0.00    +0.000 A 
ATOM      4  C   UNL     1      47.216   5.936  13.774  0.00  0.00    +0.000 A 
ATOM      5  N   UNL     1      46.151   6.019  12.957  0.00  0.00    +0.000 NA
ATOM      6  C   UNL     1      46.205   6.908  11.955  0.00  0.00    +0.000 A 
ATOM      7  N   UNL     1      45.171   7.002  11.045  0.00  0.00    +0.000 N 
ATOM      8  N   UNL     1      47.251   7.716  11.747  0.00  0.00    +0.000 NA
ATOM      9  H   UNL     1      45.103   7.951  10.700  0.00  0.00    +0.000 HD
BRANCH   2  11
ATOM     10  F   UNL     1      50.114   8.985  13.383  0.00  0.00    +0.000 F 
ATOM     11  C   UNL     1      49.574   8.415  12.262  0.00  0.00    +0.000 C 
ATOM     12  F   UNL     1      49.332   9.453  11.412  0.00  0.00    +0.000 F 
ATOM     13  F   UNL     1      50.586   7.694  11.704  0.00  0.00    +0.000 F 
ENDBRANCH   2  11
ENDBRANCH   1   7
BRANCH   1  14
ATOM     14  C   UNL     1      44.035   4.857  11.070  0.00  0.00    +0.000 A 
ATOM     15  C   UNL     1      43.235   3.932  11.754  0.00  0.00    +0.000 A 
ATOM     16  C   UNL     1      43.269   2.582  11.411  0.00  0.00    +0.000 A 
ATOM     17  C   UNL     1      44.086   2.146  10.367  0.00  0.00    +0.000 A 
ATOM     18  C   UNL     1      44.890   3.045   9.642  0.00  0.00    +0.000 A 
ATOM     19  C   UNL     1      44.879   4.397  10.043  0.00  0.00    +0.000 A 
BRANCH  18  20
ATOM     20  C   UNL     1      45.664   2.611   8.462  0.00  0.00    +0.000 A 
ATOM     21  C   UNL     1      45.974   3.471   7.406  0.00  0.00    +0.000 A 
ATOM     22  N   UNL     1      46.726   3.113   6.335  0.00  0.00    +0.000 NA
ATOM     23  C   UNL     1      47.175   1.842   6.356  0.00  0.00    +0.000 A 
ATOM     24  C   UNL     1      46.884   0.973   7.390  0.00  0.00    +0.000 A 
ATOM     25  N   UNL     1      46.133   1.333   8.460  0.00  0.00    +0.000 NA
ENDBRANCH  18  20
ENDBRANCH   1  14
TORSDOF 4
ENDMDL
MODEL 8
REMARK VINA RESULT:    -6.759      4.569      8.462
REMARK INTER + INTRA:          -8.918
REMARK INTER:                  -8.515
REMARK INTRA:                  -0.403
REMARK UNBOUND:                -0.579
REMARK  Name = 
REMARK  4 active torsions:
REMARK  status: ('A' for Active; 'I' for Inactive)
REMARK    1  A    between atoms: C_2  and  C_5
REMARK    2  A    between atoms: N_10  and  C_11
REMARK    3  A    between atoms: C_11  and  C_12
REMARK    4  A    between atoms: C_16  and  C_17
REMARK                            x       y       z     vdW  Elec       q    Type
REMARK                         _______ _______ _______ _____ _____    ______ ____
ROOT
ATOM      1  C   UNL     1      46.178   6.094  13.173  0.00  0.00    +0.000 C 
ENDROOT
BRANCH   1   7
ATOM      2  C   UNL     1      48.717   4.513  16.817  0.00  0.00    +0.000 A 
ATOM      3  C   UNL     1      49.510   5.645  16.801  0.00  0.00    +0.000 A 
ATOM      4  C   UNL     1      49.191   6.586  15.857  0.00  0.00    +0.000 A 
ATOM      5  N   UNL     1      48.160   6.457  15.003  0.00  0.00    +0.000 NA
ATOM      6  C   UNL     1      47.434   5.333  15.073  0.00  0.00    +0.000 A 
ATOM      7  N   UNL     1      46.326   5.164  14.266  0.00  0.00    +0.000 N 
ATOM      8  N   UNL     1      47.698   4.341  15.931  0.00  0.00    +0.000 NA
ATOM      9  H   UNL     1      46.196   4.181  14.063  0.00  0.00    +0.000 HD
BRANCH   2  11
ATOM     10  F   UNL     1      47.814   2.780  18.229  0.00  0.00    +0.000 F 
ATOM     11  C   UNL     1      48.957   3.442  17.869  0.00  0.00    +0.000 C 
ATOM     12  F   UNL     1      49.468   3.936  19.031  0.00  0.00    +0.000 F 
ATOM     13  F   UNL     1      49.818   2.470  17.456  0.00  0.00    +0.000 F 
ENDBRANCH   2  11
ENDBRANCH   1   7
BRANCH   1  14
ATOM     14  C   UNL     1      45.280   5.511  12.103  0.00  0.00    +0.000 A 
ATOM     15  C   UNL     1      43.913   5.817  12.088  0.00  0.00    +0.000 A 
ATOM     16  C   UNL     1      43.094   5.337  11.068  0.00  0.00    +0.000 A 
ATOM     17  C   UNL     1      43.638   4.563  10.042  0.00  0.00    +0.000 A 
ATOM     18  C   UNL     1      45.010   4.249  10.009  0.00  0.00    +0.000 A 
ATOM     19  C   UNL     1      45.806   4.702  11.081  0.00  0.00    +0.000 A 
BRANCH  18  20
ATOM     20  C   UNL     1      45.611   3.535   8.866  0.00  0.00    +0.000 A 
ATOM     21  C   UNL     1      45.701   2.142   8.811  0.00  0.00    +0.000 A 
ATOM     22  N   UNL     1      46.202   1.456   7.752  0.00  0.00    +0.000 NA
ATOM     23  C   UNL     1      46.612   2.225   6.723  0.00  0.00    +0.000 A 
ATOM     24  C   UNL     1      46.531   3.603   6.752  0.00  0.00    +0.000 A 
ATOM     25  N   UNL     1      46.029   4.285   7.811  0.00  0.00    +0.000 NA
ENDBRANCH  18  20
ENDBRANCH   1  14
TORSDOF 4
ENDMDL
MODEL 9
REMARK VINA RESULT:    -6.657      3.518      7.136
REMARK INTER + INTRA:          -8.792
REMARK INTER:                  -8.385
REMARK INTRA:                  -0.407
REMARK UNBOUND:                -0.579
REMARK  Name = 
REMARK  4 active torsions:
REMARK  status: ('A' for Active; 'I' for Inactive)
REMARK    1  A    between atoms: C_2  and  C_5
REMARK    2  A    between atoms: N_10  and  C_11
REMARK    3  A    between atoms: C_11  and  C_12
REMARK    4  A    between atoms: C_16  and  C_17
REMARK                            x       y       z     vdW  Elec       q    Type
REMARK                         _______ _______ _______ _____ _____    ______ ____
ROOT
ATOM      1  C   UNL     1      45.792   4.828  13.939  0.00  0.00    +0.000 C 
ENDROOT
BRANCH   1   7
ATOM      2  C   UNL     1      48.901   7.922  12.208  0.00  0.00    +0.000 A 
ATOM      3  C   UNL     1      47.995   8.958  12.340  0.00  0.00    +0.000 A 
ATOM      4  C   UNL     1      46.779   8.626  12.877  0.00  0.00    +0.000 A 
ATOM      5  N   UNL     1      46.465   7.384  13.285  0.00  0.00    +0.000 NA
ATOM      6  C   UNL     1      47.390   6.426  13.125  0.00  0.00    +0.000 A 
ATOM      7  N   UNL     1      47.153   5.143  13.576  0.00  0.00    +0.000 N 
ATOM      8  N   UNL     1      48.586   6.647  12.570  0.00  0.00    +0.000 NA
ATOM      9  H   UNL     1      47.647   4.479  12.994  0.00  0.00    +0.000 HD
BRANCH   2  11
ATOM     10  F   UNL     1      50.688   7.330  10.703  0.00  0.00    +0.000 F 
ATOM     11  C   UNL     1      50.297   8.206  11.679  0.00  0.00    +0.000 C 
ATOM     12  F   UNL     1      51.261   8.129  12.639  0.00  0.00    +0.000 F 
ATOM     13  F   UNL     1      50.415   9.442  11.118  0.00  0.00    +0.000 F 
ENDBRANCH   2  11
ENDBRANCH   1   7
BRANCH   1  14
ATOM     14  C   UNL     1      44.944   4.654  12.697  0.00  0.00    +0.000 A 
ATOM     15  C   UNL     1      43.644   5.176  12.653  0.00  0.00    +0.000 A 
ATOM     16  C   UNL     1      42.884   5.075  11.490  0.00  0.00    +0.000 A 
ATOM     17  C   UNL     1      43.422   4.471  10.353  0.00  0.00    +0.000 A 
ATOM     18  C   UNL     1      44.731   3.952  10.349  0.00  0.00    +0.000 A 
ATOM     19  C   UNL     1      45.460   4.017  11.554  0.00  0.00    +0.000 A 
BRANCH  18  20
ATOM     20  C   UNL     1      45.347   3.421   9.118  0.00  0.00    +0.000 A 
ATOM     21  C   UNL     1      45.701   4.236   8.040  0.00  0.00    +0.000 A 
ATOM     22  N   UNL     1      46.315   3.784   6.918  0.00  0.00    +0.000 NA
ATOM     23  C   UNL     1      46.577   2.461   6.909  0.00  0.00    +0.000 A 
ATOM     24  C   UNL     1      46.239   1.634   7.963  0.00  0.00    +0.000 A 
ATOM     25  N   UNL     1      45.627   2.089   9.083  0.00  0.00    +0.000 NA
ENDBRANCH  18  20
ENDBRANCH   1  14
TORSDOF 4
ENDMDL
