MODEL 1
REMARK VINA RESULT:    -8.482      0.000      0.000
REMARK INTER + INTRA:         -13.057
REMARK INTER:                 -11.705
REMARK INTRA:                  -1.351
REMARK UNBOUND:                -1.351
REMARK  Name = 
REMARK  7 active torsions:
REMARK  status: ('A' for Active; 'I' for Inactive)
REMARK    1  A    between atoms: N_1  and  C_2
REMARK    2  A    between atoms: C_2  and  C_3
REMARK    3  A    between atoms: C_2  and  C_25
REMARK    4  A    between atoms: C_3  and  C_4
REMARK    5  A    between atoms: C_7  and  C_8
REMARK    6  A    between atoms: C_8  and  N_9
REMARK    7  A    between atoms: C_10  and  C_12
REMARK                            x       y       z     vdW  Elec       q    Type
REMARK                         _______ _______ _______ _____ _____    ______ ____
ROOT
ATOM      1  C   UNL     1      45.299   4.746  11.262  0.00  0.00    +0.000 A 
ATOM      2  C   UNL     1      45.431   4.291  12.582  0.00  0.00    +0.000 A 
ATOM      3  C   UNL     1      46.254   4.967  13.483  0.00  0.00    +0.000 A 
ATOM      4  C   UNL     1      46.952   6.112  13.086  0.00  0.00    +0.000 A 
ATOM      5  C   UNL     1      46.838   6.540  11.761  0.00  0.00    +0.000 A 
ATOM      6  F   UNL     1      47.517   7.617  11.342  0.00  0.00    +0.000 F 
ATOM      7  C   UNL     1      46.020   5.873  10.855  0.00  0.00    +0.000 A 
ENDROOT
BRANCH   1   8
ATOM      8  C   UNL     1      44.414   4.012  10.284  0.00  0.00    +0.000 C 
BRANCH   8   9
ATOM      9  C   UNL     1      44.883   2.570   9.958  0.00  0.00    +0.000 C 
BRANCH   9  10
ATOM     10  C   UNL     1      45.976   2.575   8.829  0.00  0.00    +0.000 C 
ATOM     11  C   UNL     1      45.595   3.537   7.683  0.00  0.00    +0.000 C 
ATOM     12  C   UNL     1      46.657   3.555   6.588  0.00  0.00    +0.000 C 
ATOM     13  C   UNL     1      46.966   2.144   6.110  0.00  0.00    +0.000 C 
ATOM     14  C   UNL     1      47.284   1.226   7.282  0.00  0.00    +0.000 C 
ATOM     15  N   UNL     1      46.202   1.230   8.266  0.00  0.00    +0.000 NA
ATOM     16  H   UNL     1      46.444   0.569   9.001  0.00  0.00    +0.000 HD
ENDBRANCH   9  10
BRANCH   9  17
ATOM     17  N   UNL     1      43.715   1.747   9.586  0.00  0.00    +0.000 NA
ATOM     18  H   UNL     1      42.921   1.973  10.183  0.00  0.00    +0.000 HD
ATOM     19  H   UNL     1      43.922   0.760   9.718  0.00  0.00    +0.000 HD
ENDBRANCH   9  17
ENDBRANCH   8   9
ENDBRANCH   1   8
BRANCH   4  20
ATOM     20  C   UNL     1      47.813   6.849  14.064  0.00  0.00    +0.000 C 
BRANCH  20  21
ATOM     21  N   UNL     1      47.824   6.219  15.360  0.00  0.00    +0.000 N 
ATOM     22  C   UNL     1      49.017   6.099  16.044  0.00  0.00    +0.000 C 
ATOM     23  O   UNL     1      50.078   6.545  15.621  0.00  0.00    +0.000 OA
ATOM     24  H   UNL     1      47.115   5.513  15.542  0.00  0.00    +0.000 HD
BRANCH  22  25
ATOM     25  C   UNL     1      48.887   5.355  17.368  0.00  0.00    +0.000 C 
ATOM     26  C   UNL     1      49.833   5.913  18.449  0.00  0.00    +0.000 C 
ATOM     27  C   UNL     1      50.953   4.881  18.667  0.00  0.00    +0.000 C 
ATOM     28  C   UNL     1      50.500   3.703  17.876  0.00  0.00    +0.000 A 
ATOM     29  N   UNL     1      51.177   2.518  17.853  0.00  0.00    +0.000 NA
ATOM     30  C   UNL     1      50.678   1.615  17.072  0.00  0.00    +0.000 A 
ATOM     31  N   UNL     1      49.539   1.776  16.325  0.00  0.00    +0.000 N 
ATOM     32  C   UNL     1      48.805   2.931  16.363  0.00  0.00    +0.000 A 
ATOM     33  O   UNL     1      47.747   3.089  15.774  0.00  0.00    +0.000 OA
ATOM     34  C   UNL     1      49.387   3.974  17.197  0.00  0.00    +0.000 A 
ATOM     35  H   UNL     1      49.181   1.028  15.756  0.00  0.00    +0.000 HD
ENDBRANCH  22  25
ENDBRANCH  20  21
ENDBRANCH   4  20
TORSDOF 7
ENDMDL
MODEL 2
REMARK VINA RESULT:    -7.951      2.855      9.048
REMARK INTER + INTRA:         -12.324
REMARK INTER:                 -11.750
REMARK INTRA:                  -0.574
REMARK UNBOUND:                -1.351
REMARK  Name = 
REMARK  7 active torsions:
REMARK  status: ('A' for Active; 'I' for Inactive)
REMARK    1  A    between atoms: N_1  and  C_2
REMARK    2  A    between atoms: C_2  and  C_3
REMARK    3  A    between atoms: C_2  and  C_25
REMARK    4  A    between atoms: C_3  and  C_4
REMARK    5  A    between atoms: C_7  and  C_8
REMARK    6  A    between atoms: C_8  and  N_9
REMARK    7  A    between atoms: C_10  and  C_12
REMARK                            x       y       z     vdW  Elec       q    Type
REMARK                         _______ _______ _______ _____ _____    ______ ____
ROOT
ATOM      1  C   UNL     1      47.407   5.160  14.835  0.00  0.00    +0.000 A 
ATOM      2  C   UNL     1      46.261   4.561  14.295  0.00  0.00    +0.000 A 
ATOM      3  C   UNL     1      45.712   5.033  13.103  0.00  0.00    +0.000 A 
ATOM      4  C   UNL     1      46.303   6.105  12.424  0.00  0.00    +0.000 A 
ATOM      5  C   UNL     1      47.428   6.715  12.986  0.00  0.00    +0.000 A 
ATOM      6  F   UNL     1      47.999   7.762  12.375  0.00  0.00    +0.000 F 
ATOM      7  C   UNL     1      47.982   6.251  14.174  0.00  0.00    +0.000 A 
ENDROOT
BRANCH   1   8
ATOM      8  C   UNL     1      47.999   4.655  16.129  0.00  0.00    +0.000 C 
BRANCH   8   9
ATOM      9  C   UNL     1      46.976   4.520  17.287  0.00  0.00    +0.000 C 
BRANCH   9  10
ATOM     10  C   UNL     1      47.508   5.216  18.591  0.00  0.00    +0.000 C 
ATOM     11  C   UNL     1      48.488   6.361  18.258  0.00  0.00    +0.000 C 
ATOM     12  C   UNL     1      49.000   7.049  19.519  0.00  0.00    +0.000 C 
ATOM     13  C   UNL     1      49.576   6.032  20.495  0.00  0.00    +0.000 C 
ATOM     14  C   UNL     1      48.591   4.899  20.749  0.00  0.00    +0.000 C 
ATOM     15  N   UNL     1      48.181   4.263  19.497  0.00  0.00    +0.000 NA
ATOM     16  H   UNL     1      47.562   3.489  19.727  0.00  0.00    +0.000 HD
ENDBRANCH   9  10
BRANCH   9  17
ATOM     17  N   UNL     1      46.676   3.092  17.511  0.00  0.00    +0.000 NA
ATOM     18  H   UNL     1      47.530   2.540  17.461  0.00  0.00    +0.000 HD
ATOM     19  H   UNL     1      46.049   2.746  16.788  0.00  0.00    +0.000 HD
ENDBRANCH   9  17
ENDBRANCH   8   9
ENDBRANCH   1   8
BRANCH   4  20
ATOM     20  C   UNL     1      45.726   6.591  11.131  0.00  0.00    +0.000 C 
BRANCH  20  21
ATOM     21  N   UNL     1      45.087   5.533  10.391  0.00  0.00    +0.000 N 
ATOM     22  C   UNL     1      45.620   5.137   9.181  0.00  0.00    +0.000 C 
ATOM     23  O   UNL     1      46.648   5.615   8.714  0.00  0.00    +0.000 OA
ATOM     24  H   UNL     1      44.084   5.417  10.513  0.00  0.00    +0.000 HD
BRANCH  22  25
ATOM     25  C   UNL     1      44.803   4.056   8.481  0.00  0.00    +0.000 C 
ATOM     26  C   UNL     1      43.977   3.212   9.471  0.00  0.00    +0.000 C 
ATOM     27  C   UNL     1      44.630   1.821   9.558  0.00  0.00    +0.000 C 
ATOM     28  C   UNL     1      45.655   1.850   8.478  0.00  0.00    +0.000 A 
ATOM     29  N   UNL     1      46.425   0.770   8.156  0.00  0.00    +0.000 NA
ATOM     30  C   UNL     1      47.306   0.979   7.231  0.00  0.00    +0.000 A 
ATOM     31  N   UNL     1      47.471   2.170   6.571  0.00  0.00    +0.000 N 
ATOM     32  C   UNL     1      46.682   3.259   6.830  0.00  0.00    +0.000 A 
ATOM     33  O   UNL     1      46.746   4.312   6.215  0.00  0.00    +0.000 OA
ATOM     34  C   UNL     1      45.724   3.051   7.908  0.00  0.00    +0.000 A 
ATOM     35  H   UNL     1      48.155   2.268   5.839  0.00  0.00    +0.000 HD
ENDBRANCH  22  25
ENDBRANCH  20  21
ENDBRANCH   4  20
TORSDOF 7
ENDMDL
MODEL 3
REMARK VINA RESULT:    -7.891      1.306      1.646
REMARK INTER + INTRA:         -12.240
REMARK INTER:                 -10.897
REMARK INTRA:                  -1.344
REMARK UNBOUND:                -1.351
REMARK  Name = 
REMARK  7 active torsions:
REMARK  status: ('A' for Active; 'I' for Inactive)
REMARK    1  A    between atoms: N_1  and  C_2
REMARK    2  A    between atoms: C_2  and  C_3
REMARK    3  A    between atoms: C_2  and  C_25
REMARK    4  A    between atoms: C_3  and  C_4
REMARK    5  A    between atoms: C_7  and  C_8
REMARK    6  A    between atoms: C_8  and  N_9
REMARK    7  A    between atoms: C_10  and  C_12
REMARK                            x       y       z     vdW  Elec       q    Type
REMARK                         _______ _______ _______ _____ _____    ______ ____
ROOT
ATOM      1  C   UNL     1      45.542   5.434  12.737  0.00  0.00    +0.000 A 
ATOM      2  C   UNL     1      46.056   4.666  13.791  0.00  0.00    +0.000 A 
ATOM      3  C   UNL     1      47.173   5.102  14.503  0.00  0.00    +0.000 A 
ATOM      4  C   UNL     1      47.790   6.316  14.183  0.00  0.00    +0.000 A 
ATOM      5  C   UNL     1      47.289   7.060  13.111  0.00  0.00    +0.000 A 
ATOM      6  F   UNL     1      47.877   8.213  12.761  0.00  0.00    +0.000 F 
ATOM      7  C   UNL     1      46.176   6.633  12.395  0.00  0.00    +0.000 A 
ENDROOT
BRANCH   1   8
ATOM      8  C   UNL     1      44.337   4.960  11.961  0.00  0.00    +0.000 C 
BRANCH   8   9
ATOM      9  C   UNL     1      44.371   3.455  11.588  0.00  0.00    +0.000 C 
BRANCH   9  10
ATOM     10  C   UNL     1      45.251   3.211  10.309  0.00  0.00    +0.000 C 
ATOM     11  C   UNL     1      45.143   4.391   9.319  0.00  0.00    +0.000 C 
ATOM     12  C   UNL     1      46.004   4.166   8.080  0.00  0.00    +0.000 C 
ATOM     13  C   UNL     1      45.695   2.818   7.444  0.00  0.00    +0.000 C 
ATOM     14  C   UNL     1      45.764   1.698   8.473  0.00  0.00    +0.000 C 
ATOM     15  N   UNL     1      44.881   1.966   9.607  0.00  0.00    +0.000 NA
ATOM     16  H   UNL     1      44.932   1.170  10.239  0.00  0.00    +0.000 HD
ENDBRANCH   9  10
BRANCH   9  17
ATOM     17  N   UNL     1      42.990   2.965  11.405  0.00  0.00    +0.000 NA
ATOM     18  H   UNL     1      42.349   3.489  11.998  0.00  0.00    +0.000 HD
ATOM     19  H   UNL     1      42.924   1.987  11.678  0.00  0.00    +0.000 HD
ENDBRANCH   9  17
ENDBRANCH   8   9
ENDBRANCH   1   8
BRANCH   4  20
ATOM     20  C   UNL     1      48.973   6.793  14.967  0.00  0.00    +0.000 C 
BRANCH  20  21
ATOM     21  N   UNL     1      49.097   6.110  16.230  0.00  0.00    +0.000 N 
ATOM     22  C   UNL     1      50.354   5.846  16.736  0.00  0.00    +0.000 C 
ATOM     23  O   UNL     1      51.387   6.203  16.181  0.00  0.00    +0.000 OA
ATOM     24  H   UNL     1      48.351   5.470  16.490  0.00  0.00    +0.000 HD
BRANCH  22  25
ATOM     25  C   UNL     1      50.331   5.064  18.044  0.00  0.00    +0.000 C 
ATOM     26  C   UNL     1      51.432   5.520  19.020  0.00  0.00    +0.000 C 
ATOM     27  C   UNL     1      52.499   4.412  19.072  0.00  0.00    +0.000 C 
ATOM     28  C   UNL     1      51.879   3.295  18.307  0.00  0.00    +0.000 A 
ATOM     29  N   UNL     1      52.467   2.071  18.169  0.00  0.00    +0.000 NA
ATOM     30  C   UNL     1      51.821   1.231  17.426  0.00  0.00    +0.000 A 
ATOM     31  N   UNL     1      50.615   1.492  16.827  0.00  0.00    +0.000 N 
ATOM     32  C   UNL     1      49.969   2.688  16.985  0.00  0.00    +0.000 A 
ATOM     33  O   UNL     1      48.863   2.934  16.532  0.00  0.00    +0.000 OA
ATOM     34  C   UNL     1      50.714   3.661  17.774  0.00  0.00    +0.000 A 
ATOM     35  H   UNL     1      50.144   0.789  16.282  0.00  0.00    +0.000 HD
ENDBRANCH  22  25
ENDBRANCH  20  21
ENDBRANCH   4  20
TORSDOF 7
ENDMDL
MODEL 4
REMARK VINA RESULT:    -7.586      1.683      2.392
REMARK INTER + INTRA:         -11.820
REMARK INTER:                 -10.282
REMARK INTRA:                  -1.539
REMARK UNBOUND:                -1.351
REMARK  Name = 
REMARK  7 active torsions:
REMARK  status: ('A' for Active; 'I' for Inactive)
REMARK    1  A    between atoms: N_1  and  C_2
REMARK    2  A    between atoms: C_2  and  C_3
REMARK    3  A    between atoms: C_2  and  C_25
REMARK    4  A    between atoms: C_3  and  C_4
REMARK    5  A    between atoms: C_7  and  C_8
REMARK    6  A    between atoms: C_8  and  N_9
REMARK    7  A    between atoms: C_10  and  C_12
REMARK                            x       y       z     vdW  Elec       q    Type
REMARK                         _______ _______ _______ _____ _____    ______ ____
ROOT
ATOM      1  C   UNL     1      45.232   7.021  11.873  0.00  0.00    +0.000 A 
ATOM      2  C   UNL     1      45.228   8.303  12.439  0.00  0.00    +0.000 A 
ATOM      3  C   UNL     1      46.250   8.696  13.304  0.00  0.00    +0.000 A 
ATOM      4  C   UNL     1      47.296   7.820  13.611  0.00  0.00    +0.000 A 
ATOM      5  C   UNL     1      47.276   6.534  13.066  0.00  0.00    +0.000 A 
ATOM      6  F   UNL     1      48.249   5.662  13.364  0.00  0.00    +0.000 F 
ATOM      7  C   UNL     1      46.262   6.133  12.202  0.00  0.00    +0.000 A 
ENDROOT
BRANCH   1   8
ATOM      8  C   UNL     1      44.124   6.592  10.941  0.00  0.00    +0.000 C 
BRANCH   8   9
ATOM      9  C   UNL     1      43.637   5.136  11.158  0.00  0.00    +0.000 C 
BRANCH   9  10
ATOM     10  C   UNL     1      43.983   4.235   9.919  0.00  0.00    +0.000 C 
ATOM     11  C   UNL     1      44.335   2.796  10.352  0.00  0.00    +0.000 C 
ATOM     12  C   UNL     1      44.662   1.912   9.152  0.00  0.00    +0.000 C 
ATOM     13  C   UNL     1      45.731   2.555   8.280  0.00  0.00    +0.000 C 
ATOM     14  C   UNL     1      45.359   3.988   7.926  0.00  0.00    +0.000 C 
ATOM     15  N   UNL     1      45.103   4.781   9.128  0.00  0.00    +0.000 NA
ATOM     16  H   UNL     1      44.905   5.736   8.837  0.00  0.00    +0.000 HD
ENDBRANCH   9  10
BRANCH   9  17
ATOM     17  N   UNL     1      42.188   5.143  11.444  0.00  0.00    +0.000 NA
ATOM     18  H   UNL     1      41.721   5.852  10.882  0.00  0.00    +0.000 HD
ATOM     19  H   UNL     1      42.022   5.373  12.421  0.00  0.00    +0.000 HD
ENDBRANCH   9  17
ENDBRANCH   8   9
ENDBRANCH   1   8
BRANCH   4  20
ATOM     20  C   UNL     1      48.404   8.256  14.519  0.00  0.00    +0.000 C 
BRANCH  20  21
ATOM     21  N   UNL     1      48.420   7.510  15.752  0.00  0.00    +0.000 N 
ATOM     22  C   UNL     1      49.554   6.804  16.100  0.00  0.00    +0.000 C 
ATOM     23  O   UNL     1      50.580   6.811  15.428  0.00  0.00    +0.000 OA
ATOM     24  H   UNL     1      47.531   7.153  16.093  0.00  0.00    +0.000 HD
BRANCH  22  25
ATOM     25  C   UNL     1      49.404   6.012  17.394  0.00  0.00    +0.000 C 
ATOM     26  C   UNL     1      50.731   5.896  18.168  0.00  0.00    +0.000 C 
ATOM     27  C   UNL     1      51.222   4.444  18.040  0.00  0.00    +0.000 C 
ATOM     28  C   UNL     1      50.077   3.745  17.392  0.00  0.00    +0.000 A 
ATOM     29  N   UNL     1      50.063   2.400  17.158  0.00  0.00    +0.000 NA
ATOM     30  C   UNL     1      49.016   1.961  16.536  0.00  0.00    +0.000 A 
ATOM     31  N   UNL     1      47.957   2.743  16.150  0.00  0.00    +0.000 N 
ATOM     32  C   UNL     1      47.912   4.086  16.415  0.00  0.00    +0.000 A 
ATOM     33  O   UNL     1      46.958   4.803  16.156  0.00  0.00    +0.000 OA
ATOM     34  C   UNL     1      49.110   4.600  17.065  0.00  0.00    +0.000 A 
ATOM     35  H   UNL     1      47.155   2.342  15.694  0.00  0.00    +0.000 HD
ENDBRANCH  22  25
ENDBRANCH  20  21
ENDBRANCH   4  20
TORSDOF 7
ENDMDL
MODEL 5
REMARK VINA RESULT:    -6.615      2.564      3.653
REMARK INTER + INTRA:         -10.480
REMARK INTER:                  -9.044
REMARK INTRA:                  -1.435
REMARK UNBOUND:                -1.351
REMARK  Name = 
REMARK  7 active torsions:
REMARK  status: ('A' for Active; 'I' for Inactive)
REMARK    1  A    between atoms: N_1  and  C_2
REMARK    2  A    between atoms: C_2  and  C_3
REMARK    3  A    between atoms: C_2  and  C_25
REMARK    4  A    between atoms: C_3  and  C_4
REMARK    5  A    between atoms: C_7  and  C_8
REMARK    6  A    between atoms: C_8  and  N_9
REMARK    7  A    between atoms: C_10  and  C_12
REMARK                            x       y       z     vdW  Elec       q    Type
REMARK                         _______ _______ _______ _____ _____    ______ ____
ROOT
ATOM      1  C   UNL     1      46.113   7.405  12.112  0.00  0.00    +0.000 A 
ATOM      2  C   UNL     1      47.014   6.333  12.039  0.00  0.00    +0.000 A 
ATOM      3  C   UNL     1      48.039   6.207  12.976  0.00  0.00    +0.000 A 
ATOM      4  C   UNL     1      48.176   7.141  14.008  0.00  0.00    +0.000 A 
ATOM      5  C   UNL     1      47.292   8.222  14.056  0.00  0.00    +0.000 A 
ATOM      6  F   UNL     1      47.417   9.150  15.015  0.00  0.00    +0.000 F 
ATOM      7  C   UNL     1      46.267   8.357  13.125  0.00  0.00    +0.000 A 
ENDROOT
BRANCH   1   8
ATOM      8  C   UNL     1      45.007   7.546  11.094  0.00  0.00    +0.000 C 
BRANCH   8   9
ATOM      9  C   UNL     1      43.670   6.879  11.509  0.00  0.00    +0.000 C 
BRANCH   9  10
ATOM     10  C   UNL     1      43.552   5.432  10.907  0.00  0.00    +0.000 C 
ATOM     11  C   UNL     1      43.779   4.353  11.987  0.00  0.00    +0.000 C 
ATOM     12  C   UNL     1      43.655   2.946  11.411  0.00  0.00    +0.000 C 
ATOM     13  C   UNL     1      44.555   2.777  10.196  0.00  0.00    +0.000 C 
ATOM     14  C   UNL     1      44.328   3.894   9.187  0.00  0.00    +0.000 C 
ATOM     15  N   UNL     1      44.507   5.208   9.803  0.00  0.00    +0.000 NA
ATOM     16  H   UNL     1      44.388   5.913   9.078  0.00  0.00    +0.000 HD
ENDBRANCH   9  10
BRANCH   9  17
ATOM     17  N   UNL     1      42.544   7.739  11.095  0.00  0.00    +0.000 NA
ATOM     18  H   UNL     1      42.703   8.100  10.157  0.00  0.00    +0.000 HD
ATOM     19  H   UNL     1      42.464   8.539  11.718  0.00  0.00    +0.000 HD
ENDBRANCH   9  17
ENDBRANCH   8   9
ENDBRANCH   1   8
BRANCH   4  20
ATOM     20  C   UNL     1      49.262   6.987  15.027  0.00  0.00    +0.000 C 
BRANCH  20  21
ATOM     21  N   UNL     1      48.910   6.041  16.056  0.00  0.00    +0.000 N 
ATOM     22  C   UNL     1      48.668   6.493  17.337  0.00  0.00    +0.000 C 
ATOM     23  O   UNL     1      48.694   7.680  17.644  0.00  0.00    +0.000 OA
ATOM     24  H   UNL     1      49.268   5.093  15.960  0.00  0.00    +0.000 HD
BRANCH  22  25
ATOM     25  C   UNL     1      48.371   5.375  18.330  0.00  0.00    +0.000 C 
ATOM     26  C   UNL     1      47.502   5.854  19.509  0.00  0.00    +0.000 C 
ATOM     27  C   UNL     1      48.400   5.912  20.758  0.00  0.00    +0.000 C 
ATOM     28  C   UNL     1      49.667   5.274  20.306  0.00  0.00    +0.000 A 
ATOM     29  N   UNL     1      50.725   5.050  21.138  0.00  0.00    +0.000 NA
ATOM     30  C   UNL     1      51.771   4.538  20.573  0.00  0.00    +0.000 A 
ATOM     31  N   UNL     1      51.849   4.198  19.247  0.00  0.00    +0.000 N 
ATOM     32  C   UNL     1      50.791   4.358  18.393  0.00  0.00    +0.000 A 
ATOM     33  O   UNL     1      50.793   4.000  17.226  0.00  0.00    +0.000 OA
ATOM     34  C   UNL     1      49.627   4.985  19.006  0.00  0.00    +0.000 A 
ATOM     35  H   UNL     1      52.680   3.775  18.867  0.00  0.00    +0.000 HD
ENDBRANCH  22  25
ENDBRANCH  20  21
ENDBRANCH   4  20
TORSDOF 7
ENDMDL
MODEL 6
REMARK VINA RESULT:    -6.523      2.973      4.184
REMARK INTER + INTRA:         -10.353
REMARK INTER:                  -9.182
REMARK INTRA:                  -1.171
REMARK UNBOUND:                -1.351
REMARK  Name = 
REMARK  7 active torsions:
REMARK  status: ('A' for Active; 'I' for Inactive)
REMARK    1  A    between atoms: N_1  and  C_2
REMARK    2  A    between atoms: C_2  and  C_3
REMARK    3  A    between atoms: C_2  and  C_25
REMARK    4  A    between atoms: C_3  and  C_4
REMARK    5  A    between atoms: C_7  and  C_8
REMARK    6  A    between atoms: C_8  and  N_9
REMARK    7  A    between atoms: C_10  and  C_12
REMARK                            x       y       z     vdW  Elec       q    Type
REMARK                         _______ _______ _______ _____ _____    ______ ____
ROOT
ATOM      1  C   UNL     1      47.930   7.658  12.848  0.00  0.00    +0.000 A 
ATOM      2  C   UNL     1      47.692   7.004  14.065  0.00  0.00    +0.000 A 
ATOM      3  C   UNL     1      48.715   6.864  15.003  0.00  0.00    +0.000 A 
ATOM      4  C   UNL     1      49.989   7.383  14.747  0.00  0.00    +0.000 A 
ATOM      5  C   UNL     1      50.224   8.007  13.519  0.00  0.00    +0.000 A 
ATOM      6  F   UNL     1      51.442   8.487  13.233  0.00  0.00    +0.000 F 
ATOM      7  C   UNL     1      49.211   8.150  12.578  0.00  0.00    +0.000 A 
ENDROOT
BRANCH   1   8
ATOM      8  C   UNL     1      46.825   7.804  11.829  0.00  0.00    +0.000 C 
BRANCH   8   9
ATOM      9  C   UNL     1      45.397   7.794  12.432  0.00  0.00    +0.000 C 
BRANCH   9  10
ATOM     10  C   UNL     1      44.741   6.372  12.303  0.00  0.00    +0.000 C 
ATOM     11  C   UNL     1      45.515   5.485  11.304  0.00  0.00    +0.000 C 
ATOM     12  C   UNL     1      44.889   4.099  11.181  0.00  0.00    +0.000 C 
ATOM     13  C   UNL     1      43.404   4.201  10.867  0.00  0.00    +0.000 C 
ATOM     14  C   UNL     1      42.699   5.127  11.848  0.00  0.00    +0.000 C 
ATOM     15  N   UNL     1      43.329   6.447  11.877  0.00  0.00    +0.000 NA
ATOM     16  H   UNL     1      42.794   7.036  12.511  0.00  0.00    +0.000 HD
ENDBRANCH   9  10
BRANCH   9  17
ATOM     17  N   UNL     1      44.581   8.836  11.777  0.00  0.00    +0.000 NA
ATOM     18  H   UNL     1      43.613   8.531  11.705  0.00  0.00    +0.000 HD
ATOM     19  H   UNL     1      44.917   9.004  10.832  0.00  0.00    +0.000 HD
ENDBRANCH   9  17
ENDBRANCH   8   9
ENDBRANCH   1   8
BRANCH   4  20
ATOM     20  C   UNL     1      51.076   7.254  15.768  0.00  0.00    +0.000 C 
BRANCH  20  21
ATOM     21  N   UNL     1      50.924   6.070  16.576  0.00  0.00    +0.000 N 
ATOM     22  C   UNL     1      50.638   6.201  17.920  0.00  0.00    +0.000 C 
ATOM     23  O   UNL     1      50.462   7.285  18.465  0.00  0.00    +0.000 OA
ATOM     24  H   UNL     1      51.442   5.242  16.293  0.00  0.00    +0.000 HD
BRANCH  22  25
ATOM     25  C   UNL     1      50.571   4.869  18.659  0.00  0.00    +0.000 C 
ATOM     26  C   UNL     1      51.925   4.135  18.670  0.00  0.00    +0.000 C 
ATOM     27  C   UNL     1      51.812   2.930  17.720  0.00  0.00    +0.000 C 
ATOM     28  C   UNL     1      50.363   2.895  17.373  0.00  0.00    +0.000 A 
ATOM     29  N   UNL     1      49.808   1.920  16.597  0.00  0.00    +0.000 NA
ATOM     30  C   UNL     1      48.546   2.068  16.346  0.00  0.00    +0.000 A 
ATOM     31  N   UNL     1      47.775   3.095  16.827  0.00  0.00    +0.000 N 
ATOM     32  C   UNL     1      48.285   4.063  17.650  0.00  0.00    +0.000 A 
ATOM     33  O   UNL     1      47.618   4.950  18.160  0.00  0.00    +0.000 OA
ATOM     34  C   UNL     1      49.716   3.936  17.895  0.00  0.00    +0.000 A 
ATOM     35  H   UNL     1      46.791   3.145  16.622  0.00  0.00    +0.000 HD
ENDBRANCH  22  25
ENDBRANCH  20  21
ENDBRANCH   4  20
TORSDOF 7
ENDMDL
MODEL 7
REMARK VINA RESULT:    -6.435      2.299      3.119
REMARK INTER + INTRA:         -10.232
REMARK INTER:                  -9.092
REMARK INTRA:                  -1.139
REMARK UNBOUND:                -1.351
REMARK  Name = 
REMARK  7 active torsions:
REMARK  status: ('A' for Active; 'I' for Inactive)
REMARK    1  A    between atoms: N_1  and  C_2
REMARK    2  A    between atoms: C_2  and  C_3
REMARK    3  A    between atoms: C_2  and  C_25
REMARK    4  A    between atoms: C_3  and  C_4
REMARK    5  A    between atoms: C_7  and  C_8
REMARK    6  A    between atoms: C_8  and  N_9
REMARK    7  A    between atoms: C_10  and  C_12
REMARK                            x       y       z     vdW  Elec       q    Type
REMARK                         _______ _______ _______ _____ _____    ______ ____
ROOT
ATOM      1  C   UNL     1      45.864   7.188  12.050  0.00  0.00    +0.000 A 
ATOM      2  C   UNL     1      45.660   8.272  12.915  0.00  0.00    +0.000 A 
ATOM      3  C   UNL     1      46.722   8.799  13.651  0.00  0.00    +0.000 A 
ATOM      4  C   UNL     1      48.007   8.259  13.528  0.00  0.00    +0.000 A 
ATOM      5  C   UNL     1      48.194   7.159  12.686  0.00  0.00    +0.000 A 
ATOM      6  F   UNL     1      49.407   6.601  12.570  0.00  0.00    +0.000 F 
ATOM      7  C   UNL     1      47.141   6.628  11.949  0.00  0.00    +0.000 A 
ENDROOT
BRANCH   1   8
ATOM      8  C   UNL     1      44.714   6.614  11.258  0.00  0.00    +0.000 C 
BRANCH   8   9
ATOM      9  C   UNL     1      44.385   5.137  11.594  0.00  0.00    +0.000 C 
BRANCH   9  10
ATOM     10  C   UNL     1      44.951   4.169  10.492  0.00  0.00    +0.000 C 
ATOM     11  C   UNL     1      45.353   4.943   9.218  0.00  0.00    +0.000 C 
ATOM     12  C   UNL     1      45.914   4.011   8.148  0.00  0.00    +0.000 C 
ATOM     13  C   UNL     1      44.955   2.862   7.874  0.00  0.00    +0.000 C 
ATOM     14  C   UNL     1      44.550   2.167   9.167  0.00  0.00    +0.000 C 
ATOM     15  N   UNL     1      43.983   3.117  10.123  0.00  0.00    +0.000 NA
ATOM     16  H   UNL     1      43.689   2.596  10.947  0.00  0.00    +0.000 HD
ENDBRANCH   9  10
BRANCH   9  17
ATOM     17  N   UNL     1      42.925   4.985  11.759  0.00  0.00    +0.000 NA
ATOM     18  H   UNL     1      42.494   5.892  11.929  0.00  0.00    +0.000 HD
ATOM     19  H   UNL     1      42.720   4.396  12.563  0.00  0.00    +0.000 HD
ENDBRANCH   9  17
ENDBRANCH   8   9
ENDBRANCH   1   8
BRANCH   4  20
ATOM     20  C   UNL     1      49.149   8.844  14.300  0.00  0.00    +0.000 C 
BRANCH  20  21
ATOM     21  N   UNL     1      49.547   8.004  15.401  0.00  0.00    +0.000 N 
ATOM     22  C   UNL     1      49.392   8.464  16.693  0.00  0.00    +0.000 C 
ATOM     23  O   UNL     1      48.886   9.548  16.961  0.00  0.00    +0.000 OA
ATOM     24  H   UNL     1      50.300   7.342  15.234  0.00  0.00    +0.000 HD
BRANCH  22  25
ATOM     25  C   UNL     1      49.914   7.497  17.749  0.00  0.00    +0.000 C 
ATOM     26  C   UNL     1      51.146   6.708  17.264  0.00  0.00    +0.000 C 
ATOM     27  C   UNL     1      50.703   5.256  17.016  0.00  0.00    +0.000 C 
ATOM     28  C   UNL     1      49.317   5.216  17.559  0.00  0.00    +0.000 A 
ATOM     29  N   UNL     1      48.570   4.076  17.608  0.00  0.00    +0.000 NA
ATOM     30  C   UNL     1      47.366   4.226  18.059  0.00  0.00    +0.000 A 
ATOM     31  N   UNL     1      46.843   5.416  18.497  0.00  0.00    +0.000 N 
ATOM     32  C   UNL     1      47.580   6.570  18.513  0.00  0.00    +0.000 A 
ATOM     33  O   UNL     1      47.179   7.631  18.964  0.00  0.00    +0.000 OA
ATOM     34  C   UNL     1      48.918   6.424  17.957  0.00  0.00    +0.000 A 
ATOM     35  H   UNL     1      45.908   5.468  18.865  0.00  0.00    +0.000 HD
ENDBRANCH  22  25
ENDBRANCH  20  21
ENDBRANCH   4  20
TORSDOF 7
ENDMDL
MODEL 8
REMARK VINA RESULT:    -6.113      4.139      5.843
REMARK INTER + INTRA:          -9.787
REMARK INTER:                  -9.204
REMARK INTRA:                  -0.583
REMARK UNBOUND:                -1.351
REMARK  Name = 
REMARK  7 active torsions:
REMARK  status: ('A' for Active; 'I' for Inactive)
REMARK    1  A    between atoms: N_1  and  C_2
REMARK    2  A    between atoms: C_2  and  C_3
REMARK    3  A    between atoms: C_2  and  C_25
REMARK    4  A    between atoms: C_3  and  C_4
REMARK    5  A    between atoms: C_7  and  C_8
REMARK    6  A    between atoms: C_8  and  N_9
REMARK    7  A    between atoms: C_10  and  C_12
REMARK                            x       y       z     vdW  Elec       q    Type
REMARK                         _______ _______ _______ _____ _____    ______ ____
ROOT
ATOM      1  C   UNL     1      50.319   8.258  12.671  0.00  0.00    +0.000 A 
ATOM      2  C   UNL     1      49.380   7.784  11.745  0.00  0.00    +0.000 A 
ATOM      3  C   UNL     1      48.335   6.957  12.158  0.00  0.00    +0.000 A 
ATOM      4  C   UNL     1      48.204   6.598  13.504  0.00  0.00    +0.000 A 
ATOM      5  C   UNL     1      49.162   7.050  14.415  0.00  0.00    +0.000 A 
ATOM      6  F   UNL     1      49.081   6.699  15.706  0.00  0.00    +0.000 F 
ATOM      7  C   UNL     1      50.208   7.874  14.012  0.00  0.00    +0.000 A 
ENDROOT
BRANCH   1   8
ATOM      8  C   UNL     1      51.454   9.147  12.224  0.00  0.00    +0.000 C 
BRANCH   8   9
ATOM      9  C   UNL     1      51.706   9.137  10.694  0.00  0.00    +0.000 C 
BRANCH   9  10
ATOM     10  C   UNL     1      52.871   8.151  10.320  0.00  0.00    +0.000 C 
ATOM     11  C   UNL     1      52.381   7.039   9.368  0.00  0.00    +0.000 C 
ATOM     12  C   UNL     1      53.509   6.083   8.992  0.00  0.00    +0.000 C 
ATOM     13  C   UNL     1      54.201   5.546  10.237  0.00  0.00    +0.000 C 
ATOM     14  C   UNL     1      54.616   6.679  11.165  0.00  0.00    +0.000 C 
ATOM     15  N   UNL     1      53.474   7.524  11.513  0.00  0.00    +0.000 NA
ATOM     16  H   UNL     1      53.797   8.234  12.166  0.00  0.00    +0.000 HD
ENDBRANCH   9  10
BRANCH   9  17
ATOM     17  N   UNL     1      51.984  10.513  10.235  0.00  0.00    +0.000 NA
ATOM     18  H   UNL     1      52.683  10.949  10.833  0.00  0.00    +0.000 HD
ATOM     19  H   UNL     1      51.141  11.080  10.290  0.00  0.00    +0.000 HD
ENDBRANCH   9  17
ENDBRANCH   8   9
ENDBRANCH   1   8
BRANCH   4  20
ATOM     20  C   UNL     1      47.066   5.732  13.947  0.00  0.00    +0.000 C 
BRANCH  20  21
ATOM     21  N   UNL     1      47.242   5.251  15.294  0.00  0.00    +0.000 N 
ATOM     22  C   UNL     1      47.388   3.897  15.515  0.00  0.00    +0.000 C 
ATOM     23  O   UNL     1      47.418   3.071  14.609  0.00  0.00    +0.000 OA
ATOM     24  H   UNL     1      46.827   5.800  16.043  0.00  0.00    +0.000 HD
BRANCH  22  25
ATOM     25  C   UNL     1      47.500   3.530  16.990  0.00  0.00    +0.000 C 
ATOM     26  C   UNL     1      47.019   4.665  17.915  0.00  0.00    +0.000 C 
ATOM     27  C   UNL     1      48.260   5.276  18.589  0.00  0.00    +0.000 C 
ATOM     28  C   UNL     1      49.360   4.351  18.199  0.00  0.00    +0.000 A 
ATOM     29  N   UNL     1      50.640   4.485  18.653  0.00  0.00    +0.000 NA
ATOM     30  C   UNL     1      51.485   3.629  18.173  0.00  0.00    +0.000 A 
ATOM     31  N   UNL     1      51.162   2.625  17.297  0.00  0.00    +0.000 N 
ATOM     32  C   UNL     1      49.879   2.427  16.862  0.00  0.00    +0.000 A 
ATOM     33  O   UNL     1      49.535   1.501  16.144  0.00  0.00    +0.000 OA
ATOM     34  C   UNL     1      48.929   3.417  17.352  0.00  0.00    +0.000 A 
ATOM     35  H   UNL     1      51.856   1.970  16.979  0.00  0.00    +0.000 HD
ENDBRANCH  22  25
ENDBRANCH  20  21
ENDBRANCH   4  20
TORSDOF 7
ENDMDL
MODEL 9
REMARK VINA RESULT:    -6.094      3.415      4.799
REMARK INTER + INTRA:          -9.761
REMARK INTER:                  -9.069
REMARK INTRA:                  -0.692
REMARK UNBOUND:                -1.351
REMARK  Name = 
REMARK  7 active torsions:
REMARK  status: ('A' for Active; 'I' for Inactive)
REMARK    1  A    between atoms: N_1  and  C_2
REMARK    2  A    between atoms: C_2  and  C_3
REMARK    3  A    between atoms: C_2  and  C_25
REMARK    4  A    between atoms: C_3  and  C_4
REMARK    5  A    between atoms: C_7  and  C_8
REMARK    6  A    between atoms: C_8  and  N_9
REMARK    7  A    between atoms: C_10  and  C_12
REMARK                            x       y       z     vdW  Elec       q    Type
REMARK                         _______ _______ _______ _____ _____    ______ ____
ROOT
ATOM      1  C   UNL     1      47.148   6.636  12.123  0.00  0.00    +0.000 A 
ATOM      2  C   UNL     1      47.274   5.943  13.335  0.00  0.00    +0.000 A 
ATOM      3  C   UNL     1      48.310   6.248  14.218  0.00  0.00    +0.000 A 
ATOM      4  C   UNL     1      49.232   7.254  13.911  0.00  0.00    +0.000 A 
ATOM      5  C   UNL     1      49.116   7.919  12.687  0.00  0.00    +0.000 A 
ATOM      6  F   UNL     1      50.001   8.868  12.352  0.00  0.00    +0.000 F 
ATOM      7  C   UNL     1      48.086   7.623  11.801  0.00  0.00    +0.000 A 
ENDROOT
BRANCH   1   8
ATOM      8  C   UNL     1      46.030   6.304  11.164  0.00  0.00    +0.000 C 
BRANCH   8   9
ATOM      9  C   UNL     1      44.638   6.827  11.602  0.00  0.00    +0.000 C 
BRANCH   9  10
ATOM     10  C   UNL     1      44.421   8.311  11.136  0.00  0.00    +0.000 C 
ATOM     11  C   UNL     1      44.967   9.312  12.177  0.00  0.00    +0.000 C 
ATOM     12  C   UNL     1      44.770  10.756  11.726  0.00  0.00    +0.000 C 
ATOM     13  C   UNL     1      43.318  11.013  11.351  0.00  0.00    +0.000 C 
ATOM     14  C   UNL     1      42.814   9.969  10.364  0.00  0.00    +0.000 C 
ATOM     15  N   UNL     1      42.998   8.615  10.886  0.00  0.00    +0.000 NA
ATOM     16  H   UNL     1      42.606   7.963  10.210  0.00  0.00    +0.000 HD
ENDBRANCH   9  10
BRANCH   9  17
ATOM     17  N   UNL     1      44.500   6.686  13.066  0.00  0.00    +0.000 NA
ATOM     18  H   UNL     1      43.987   7.478  13.449  0.00  0.00    +0.000 HD
ATOM     19  H   UNL     1      45.417   6.677  13.507  0.00  0.00    +0.000 HD
ENDBRANCH   9  17
ENDBRANCH   8   9
ENDBRANCH   1   8
BRANCH   4  20
ATOM     20  C   UNL     1      50.327   7.595  14.874  0.00  0.00    +0.000 C 
BRANCH  20  21
ATOM     21  N   UNL     1      50.401   6.657  15.965  0.00  0.00    +0.000 N 
ATOM     22  C   UNL     1      50.137   7.090  17.249  0.00  0.00    +0.000 C 
ATOM     23  O   UNL     1      49.795   8.238  17.510  0.00  0.00    +0.000 OA
ATOM     24  H   UNL     1      51.044   5.875  15.865  0.00  0.00    +0.000 HD
BRANCH  22  25
ATOM     25  C   UNL     1      50.318   6.006  18.305  0.00  0.00    +0.000 C 
ATOM     26  C   UNL     1      51.592   5.171  18.076  0.00  0.00    +0.000 C 
ATOM     27  C   UNL     1      51.156   3.779  17.584  0.00  0.00    +0.000 C 
ATOM     28  C   UNL     1      49.676   3.798  17.751  0.00  0.00    +0.000 A 
ATOM     29  N   UNL     1      48.885   2.715  17.498  0.00  0.00    +0.000 NA
ATOM     30  C   UNL     1      47.615   2.917  17.640  0.00  0.00    +0.000 A 
ATOM     31  N   UNL     1      47.057   4.104  18.044  0.00  0.00    +0.000 N 
ATOM     32  C   UNL     1      47.821   5.195  18.357  0.00  0.00    +0.000 A 
ATOM     33  O   UNL     1      47.371   6.244  18.791  0.00  0.00    +0.000 OA
ATOM     34  C   UNL     1      49.250   4.996  18.148  0.00  0.00    +0.000 A 
ATOM     35  H   UNL     1      46.062   4.195  18.165  0.00  0.00    +0.000 HD
ENDBRANCH  22  25
ENDBRANCH  20  21
ENDBRANCH   4  20
TORSDOF 7
ENDMDL
